MODEL 1
REMARK VINA RESULT: -8.165274544      0.000      0.000
REMARK  11 active torsions:
REMARK  status: ('A' for Active; 'I' for Inactive)
REMARK    1  A    between atoms: C2_2  and  C3_3 
REMARK    2  A    between atoms: C3_3  and  O1_4 
REMARK    3  A    between atoms: O1_4  and  C4_5 
REMARK    4  A    between atoms: C4_5  and  O2_6 
REMARK    5  A    between atoms: C4_5  and  C5_8 
REMARK    6  A    between atoms: C5_8  and  O3_9 
REMARK    7  A    between atoms: C5_8  and  C8_13 
REMARK    8  A    between atoms: O3_9  and  C6_10 
REMARK    9  A    between atoms: C6_10  and  C7_11 
REMARK   10  A    between atoms: C8_13  and  C9_15 
REMARK       I    between atoms: C9_15  and  N1_17 
REMARK   11  A    between atoms: C18_28  and  O6_29 
ROOT
HETATM    1  C9  UNL     1      16.431 -12.846  20.043  1.00  0.00     0.294 C 
HETATM    2  O5  UNL     1      16.725 -12.100  19.045  1.00  0.00    -0.264 OA
HETATM    3  N1  UNL     1      17.560 -13.309  20.780  1.00  0.00    -0.315 N 
HETATM    4  C10 UNL     1      18.896 -12.890  20.318  1.00  0.00     0.134 C 
HETATM    5  C11 UNL     1      19.905 -13.992  20.581  1.00  0.00     0.059 C 
HETATM    6  C12 UNL     1      19.941 -14.281  22.049  1.00  0.00    -0.044 A 
HETATM    7  C13 UNL     1      21.110 -14.466  22.749  1.00  0.00     0.033 A 
HETATM    8  C14 UNL     1      21.089 -14.722  24.107  1.00  0.00     0.056 A 
HETATM    9 CL2  UNL     1      22.547 -14.964  25.040  1.00  0.00    -0.083 Cl
HETATM   10  C15 UNL     1      19.886 -14.791  24.760  1.00  0.00     0.056 A 
HETATM   11 CL3  UNL     1      19.785 -15.112  26.481  1.00  0.00    -0.083 Cl
HETATM   12  C16 UNL     1      18.727 -14.606  24.054  1.00  0.00     0.037 A 
HETATM   13  C17 UNL     1      18.722 -14.345  22.675  1.00  0.00    -0.002 A 
HETATM   14  C18 UNL     1      17.462 -14.157  21.940  1.00  0.00     0.258 C 
ENDROOT
BRANCH   1  15
HETATM   15  C8  UNL     1      15.059 -13.139  20.321  1.00  0.00     0.250 C 
HETATM   16  O4  UNL     1      14.422 -13.997  19.616  1.00  0.00    -0.284 OA
BRANCH  15  17
HETATM   17  C5  UNL     1      14.322 -12.460  21.442  1.00  0.00     0.255 C 
BRANCH  17  18
HETATM   18  C4  UNL     1      13.076 -11.725  20.903  1.00  0.00     0.293 C 
BRANCH  18  19
HETATM   19  O1  UNL     1      12.892 -10.519  21.512  1.00  0.00    -0.358 OA
BRANCH  19  20
HETATM   20  C3  UNL     1      11.695 -10.605  22.243  1.00  0.00     0.170 C 
BRANCH  20  21
HETATM   21  C2  UNL     1      11.921 -10.371  23.708  1.00  0.00     0.022 C 
HETATM   22  C1  UNL     1      11.070 -11.368  24.466  1.00  0.00     0.007 C 
ENDBRANCH  20  21
ENDBRANCH  19  20
ENDBRANCH  18  19
BRANCH  18  23
HETATM   23  O2  UNL     1      13.165 -11.615  19.511  1.00  0.00    -0.368 OA
ATOM     24  H2  UNL     1      13.003 -12.441  19.070  1.00  0.00     0.212 HD
ENDBRANCH  18  23
ENDBRANCH  17  18
BRANCH  17  25
HETATM   25  O3  UNL     1      13.897 -13.388  22.353  1.00  0.00    -0.372 OA
BRANCH  25  26
HETATM   26  C6  UNL     1      12.716 -13.990  22.290  1.00  0.00     0.184 C 
BRANCH  26  27
HETATM   27  C7  UNL     1      12.771 -15.481  22.199  1.00  0.00     0.141 C 
HETATM   28 CL1  UNL     1      12.057 -16.231  20.795  1.00  0.00    -0.128 Cl
ENDBRANCH  26  27
ENDBRANCH  25  26
ENDBRANCH  17  25
ENDBRANCH  15  17
ENDBRANCH   1  15
BRANCH  14  29
HETATM   29  O6  UNL     1      17.079 -15.429  21.476  1.00  0.00    -0.372 OA
ATOM     30  H6  UNL     1      17.834 -15.996  21.589  1.00  0.00     0.212 HD
ENDBRANCH  14  29
TORSDOF 11
ENDMDL
MODEL 2
REMARK VINA RESULT: -7.740678319      2.012      3.321
REMARK  11 active torsions:
REMARK  status: ('A' for Active; 'I' for Inactive)
REMARK    1  A    between atoms: C2_2  and  C3_3 
REMARK    2  A    between atoms: C3_3  and  O1_4 
REMARK    3  A    between atoms: O1_4  and  C4_5 
REMARK    4  A    between atoms: C4_5  and  O2_6 
REMARK    5  A    between atoms: C4_5  and  C5_8 
REMARK    6  A    between atoms: C5_8  and  O3_9 
REMARK    7  A    between atoms: C5_8  and  C8_13 
REMARK    8  A    between atoms: O3_9  and  C6_10 
REMARK    9  A    between atoms: C6_10  and  C7_11 
REMARK   10  A    between atoms: C8_13  and  C9_15 
REMARK       I    between atoms: C9_15  and  N1_17 
REMARK   11  A    between atoms: C18_28  and  O6_29 
ROOT
HETATM    1  C9  UNL     1      16.372 -12.510  21.132  1.00  0.00     0.294 C 
HETATM    2  O5  UNL     1      16.544 -11.774  20.098  1.00  0.00    -0.264 OA
HETATM    3  N1  UNL     1      17.569 -13.098  21.636  1.00  0.00    -0.315 N 
HETATM    4  C10 UNL     1      18.827 -12.801  20.928  1.00  0.00     0.134 C 
HETATM    5  C11 UNL     1      19.752 -14.003  20.988  1.00  0.00     0.059 C 
HETATM    6  C12 UNL     1      20.038 -14.326  22.421  1.00  0.00    -0.044 A 
HETATM    7  C13 UNL     1      21.295 -14.641  22.882  1.00  0.00     0.033 A 
HETATM    8  C14 UNL     1      21.509 -14.924  24.218  1.00  0.00     0.056 A 
HETATM    9 CL2  UNL     1      23.086 -15.328  24.852  1.00  0.00    -0.083 Cl
HETATM   10  C15 UNL     1      20.451 -14.890  25.089  1.00  0.00     0.056 A 
HETATM   11 CL3  UNL     1      20.649 -15.238  26.797  1.00  0.00    -0.083 Cl
HETATM   12  C16 UNL     1      19.204 -14.576  24.620  1.00  0.00     0.037 A 
HETATM   13  C17 UNL     1      18.961 -14.285  23.269  1.00  0.00    -0.002 A 
HETATM   14  C18 UNL     1      17.610 -13.957  22.791  1.00  0.00     0.258 C 
ENDROOT
BRANCH   1  15
HETATM   15  C8  UNL     1      15.057 -12.673  21.667  1.00  0.00     0.250 C 
HETATM   16  O4  UNL     1      14.758 -13.711  22.354  1.00  0.00    -0.284 OA
BRANCH  15  17
HETATM   17  C5  UNL     1      13.986 -11.640  21.449  1.00  0.00     0.255 C 
BRANCH  17  18
HETATM   18  C4  UNL     1      13.042 -12.073  20.308  1.00  0.00     0.293 C 
BRANCH  18  19
HETATM   19  O1  UNL     1      13.524 -11.716  19.082  1.00  0.00    -0.358 OA
BRANCH  19  20
HETATM   20  C3  UNL     1      13.850 -12.904  18.406  1.00  0.00     0.170 C 
BRANCH  20  21
HETATM   21  C2  UNL     1      14.682 -12.638  17.185  1.00  0.00     0.022 C 
HETATM   22  C1  UNL     1      15.807 -13.650  17.171  1.00  0.00     0.007 C 
ENDBRANCH  20  21
ENDBRANCH  19  20
ENDBRANCH  18  19
BRANCH  18  23
HETATM   23  O2  UNL     1      12.790 -13.445  20.405  1.00  0.00    -0.368 OA
ATOM     24  H2  UNL     1      12.843 -13.762  21.299  1.00  0.00     0.212 HD
ENDBRANCH  18  23
ENDBRANCH  17  18
BRANCH  17  25
HETATM   25  O3  UNL     1      13.233 -11.499  22.582  1.00  0.00    -0.372 OA
BRANCH  25  26
HETATM   26  C6  UNL     1      12.222 -10.646  22.690  1.00  0.00     0.184 C 
BRANCH  26  27
HETATM   27  C7  UNL     1      11.723 -10.430  24.083  1.00  0.00     0.141 C 
HETATM   28 CL1  UNL     1      12.006  -8.870  24.810  1.00  0.00    -0.128 Cl
ENDBRANCH  26  27
ENDBRANCH  25  26
ENDBRANCH  17  25
ENDBRANCH  15  17
ENDBRANCH   1  15
BRANCH  14  29
HETATM   29  O6  UNL     1      17.020 -15.175  22.405  1.00  0.00    -0.372 OA
ATOM     30  H6  UNL     1      17.732 -15.754  22.158  1.00  0.00     0.212 HD
ENDBRANCH  14  29
TORSDOF 11
ENDMDL
MODEL 3
REMARK VINA RESULT: -7.726729855      1.910      2.911
REMARK  11 active torsions:
REMARK  status: ('A' for Active; 'I' for Inactive)
REMARK    1  A    between atoms: C2_2  and  C3_3 
REMARK    2  A    between atoms: C3_3  and  O1_4 
REMARK    3  A    between atoms: O1_4  and  C4_5 
REMARK    4  A    between atoms: C4_5  and  O2_6 
REMARK    5  A    between atoms: C4_5  and  C5_8 
REMARK    6  A    between atoms: C5_8  and  O3_9 
REMARK    7  A    between atoms: C5_8  and  C8_13 
REMARK    8  A    between atoms: O3_9  and  C6_10 
REMARK    9  A    between atoms: C6_10  and  C7_11 
REMARK   10  A    between atoms: C8_13  and  C9_15 
REMARK       I    between atoms: C9_15  and  N1_17 
REMARK   11  A    between atoms: C18_28  and  O6_29 
ROOT
HETATM    1  C9  UNL     1      16.496 -12.557  21.077  1.00  0.00     0.294 C 
HETATM    2  O5  UNL     1      16.638 -11.912  19.980  1.00  0.00    -0.264 OA
HETATM    3  N1  UNL     1      17.704 -13.118  21.585  1.00  0.00    -0.315 N 
HETATM    4  C10 UNL     1      18.939 -12.898  20.809  1.00  0.00     0.134 C 
HETATM    5  C11 UNL     1      19.852 -14.104  20.936  1.00  0.00     0.059 C 
HETATM    6  C12 UNL     1      20.188 -14.312  22.379  1.00  0.00    -0.044 A 
HETATM    7  C13 UNL     1      21.458 -14.604  22.818  1.00  0.00     0.033 A 
HETATM    8  C14 UNL     1      21.718 -14.779  24.165  1.00  0.00     0.056 A 
HETATM    9 CL2  UNL     1      23.314 -15.151  24.773  1.00  0.00    -0.083 Cl
HETATM   10  C15 UNL     1      20.694 -14.658  25.068  1.00  0.00     0.056 A 
HETATM   11 CL3  UNL     1      20.952 -14.867  26.791  1.00  0.00    -0.083 Cl
HETATM   12  C16 UNL     1      19.433 -14.367  24.620  1.00  0.00     0.037 A 
HETATM   13  C17 UNL     1      19.144 -14.185  23.259  1.00  0.00    -0.002 A 
HETATM   14  C18 UNL     1      17.779 -13.880  22.805  1.00  0.00     0.258 C 
ENDROOT
BRANCH   1  15
HETATM   15  C8  UNL     1      15.200 -12.657  21.671  1.00  0.00     0.250 C 
HETATM   16  O4  UNL     1      14.964 -13.535  22.573  1.00  0.00    -0.284 OA
BRANCH  15  17
HETATM   17  C5  UNL     1      14.077 -11.742  21.267  1.00  0.00     0.255 C 
BRANCH  17  18
HETATM   18  C4  UNL     1      13.231 -12.386  20.148  1.00  0.00     0.293 C 
BRANCH  18  19
HETATM   19  O1  UNL     1      12.149 -13.051  20.646  1.00  0.00    -0.358 OA
BRANCH  19  20
HETATM   20  C3  UNL     1      12.338 -14.415  20.365  1.00  0.00     0.170 C 
BRANCH  20  21
HETATM   21  C2  UNL     1      12.329 -15.246  21.615  1.00  0.00     0.022 C 
HETATM   22  C1  UNL     1      12.004 -16.669  21.214  1.00  0.00     0.007 C 
ENDBRANCH  20  21
ENDBRANCH  19  20
ENDBRANCH  18  19
BRANCH  18  23
HETATM   23  O2  UNL     1      12.876 -11.412  19.210  1.00  0.00    -0.368 OA
ATOM     24  H2  UNL     1      13.610 -10.862  18.961  1.00  0.00     0.212 HD
ENDBRANCH  18  23
ENDBRANCH  17  18
BRANCH  17  25
HETATM   25  O3  UNL     1      13.253 -11.512  22.334  1.00  0.00    -0.372 OA
BRANCH  25  26
HETATM   26  C6  UNL     1      12.821 -10.306  22.680  1.00  0.00     0.184 C 
BRANCH  26  27
HETATM   27  C7  UNL     1      11.931 -10.274  23.882  1.00  0.00     0.141 C 
HETATM   28 CL1  UNL     1      11.948  -8.831  24.861  1.00  0.00    -0.128 Cl
ENDBRANCH  26  27
ENDBRANCH  25  26
ENDBRANCH  17  25
ENDBRANCH  15  17
ENDBRANCH   1  15
BRANCH  14  29
HETATM   29  O6  UNL     1      17.162 -15.117  22.543  1.00  0.00    -0.372 OA
ATOM     30  H6  UNL     1      17.760 -15.788  22.851  1.00  0.00     0.212 HD
ENDBRANCH  14  29
TORSDOF 11
ENDMDL
MODEL 4
REMARK VINA RESULT: -7.601948284      1.526      2.022
REMARK  11 active torsions:
REMARK  status: ('A' for Active; 'I' for Inactive)
REMARK    1  A    between atoms: C2_2  and  C3_3 
REMARK    2  A    between atoms: C3_3  and  O1_4 
REMARK    3  A    between atoms: O1_4  and  C4_5 
REMARK    4  A    between atoms: C4_5  and  O2_6 
REMARK    5  A    between atoms: C4_5  and  C5_8 
REMARK    6  A    between atoms: C5_8  and  O3_9 
REMARK    7  A    between atoms: C5_8  and  C8_13 
REMARK    8  A    between atoms: O3_9  and  C6_10 
REMARK    9  A    between atoms: C6_10  and  C7_11 
REMARK   10  A    between atoms: C8_13  and  C9_15 
REMARK       I    between atoms: C9_15  and  N1_17 
REMARK   11  A    between atoms: C18_28  and  O6_29 
ROOT
HETATM    1  C9  UNL     1      15.479 -13.807  20.424  1.00  0.00     0.294 C 
HETATM    2  O5  UNL     1      14.876 -14.354  19.435  1.00  0.00    -0.264 OA
HETATM    3  N1  UNL     1      16.474 -14.630  21.029  1.00  0.00    -0.315 N 
HETATM    4  C10 UNL     1      16.683 -15.975  20.465  1.00  0.00     0.134 C 
HETATM    5  C11 UNL     1      17.063 -16.947  21.567  1.00  0.00     0.059 C 
HETATM    6  C12 UNL     1      18.319 -16.470  22.227  1.00  0.00    -0.044 A 
HETATM    7  C13 UNL     1      19.359 -17.308  22.553  1.00  0.00     0.033 A 
HETATM    8  C14 UNL     1      20.503 -16.816  23.154  1.00  0.00     0.056 A 
HETATM    9 CL2  UNL     1      21.851 -17.839  23.587  1.00  0.00    -0.083 Cl
HETATM   10  C15 UNL     1      20.595 -15.476  23.426  1.00  0.00     0.056 A 
HETATM   11 CL3  UNL     1      22.015 -14.783  24.187  1.00  0.00    -0.083 Cl
HETATM   12  C16 UNL     1      19.553 -14.650  23.098  1.00  0.00     0.037 A 
HETATM   13  C17 UNL     1      18.382 -15.125  22.488  1.00  0.00    -0.002 A 
HETATM   14  C18 UNL     1      17.275 -14.217  22.152  1.00  0.00     0.258 C 
ENDROOT
BRANCH   1  15
HETATM   15  C8  UNL     1      15.121 -12.481  20.820  1.00  0.00     0.250 C 
HETATM   16  O4  UNL     1      15.760 -11.470  20.362  1.00  0.00    -0.284 OA
BRANCH  15  17
HETATM   17  C5  UNL     1      13.988 -12.226  21.775  1.00  0.00     0.255 C 
BRANCH  17  18
HETATM   18  C4  UNL     1      12.707 -11.842  21.005  1.00  0.00     0.293 C 
BRANCH  18  19
HETATM   19  O1  UNL     1      11.981 -10.891  21.662  1.00  0.00    -0.358 OA
BRANCH  19  20
HETATM   20  C3  UNL     1      12.816 -10.348  22.653  1.00  0.00     0.170 C 
BRANCH  20  21
HETATM   21  C2  UNL     1      12.035  -9.912  23.859  1.00  0.00     0.022 C 
HETATM   22  C1  UNL     1      11.271 -11.116  24.367  1.00  0.00     0.007 C 
ENDBRANCH  20  21
ENDBRANCH  19  20
ENDBRANCH  18  19
BRANCH  18  23
HETATM   23  O2  UNL     1      13.042 -11.454  19.703  1.00  0.00    -0.368 OA
ATOM     24  H2  UNL     1      12.472 -10.772  19.369  1.00  0.00     0.212 HD
ENDBRANCH  18  23
ENDBRANCH  17  18
BRANCH  17  25
HETATM   25  O3  UNL     1      13.718 -13.358  22.495  1.00  0.00    -0.372 OA
BRANCH  25  26
HETATM   26  C6  UNL     1      12.606 -14.068  22.354  1.00  0.00     0.184 C 
BRANCH  26  27
HETATM   27  C7  UNL     1      12.816 -15.534  22.140  1.00  0.00     0.141 C 
HETATM   28 CL1  UNL     1      12.099 -16.253  20.721  1.00  0.00    -0.128 Cl
ENDBRANCH  26  27
ENDBRANCH  25  26
ENDBRANCH  17  25
ENDBRANCH  15  17
ENDBRANCH   1  15
BRANCH  14  29
HETATM   29  O6  UNL     1      16.421 -14.202  23.270  1.00  0.00    -0.372 OA
ATOM     30  H6  UNL     1      16.981 -14.232  24.038  1.00  0.00     0.212 HD
ENDBRANCH  14  29
TORSDOF 11
ENDMDL
MODEL 5
REMARK VINA RESULT: -7.513532787      1.676      2.218
REMARK  11 active torsions:
REMARK  status: ('A' for Active; 'I' for Inactive)
REMARK    1  A    between atoms: C2_2  and  C3_3 
REMARK    2  A    between atoms: C3_3  and  O1_4 
REMARK    3  A    between atoms: O1_4  and  C4_5 
REMARK    4  A    between atoms: C4_5  and  O2_6 
REMARK    5  A    between atoms: C4_5  and  C5_8 
REMARK    6  A    between atoms: C5_8  and  O3_9 
REMARK    7  A    between atoms: C5_8  and  C8_13 
REMARK    8  A    between atoms: O3_9  and  C6_10 
REMARK    9  A    between atoms: C6_10  and  C7_11 
REMARK   10  A    between atoms: C8_13  and  C9_15 
REMARK       I    between atoms: C9_15  and  N1_17 
REMARK   11  A    between atoms: C18_28  and  O6_29 
ROOT
HETATM    1  C9  UNL     1      16.007 -12.373  21.019  1.00  0.00     0.294 C 
HETATM    2  O5  UNL     1      16.239 -11.483  20.127  1.00  0.00    -0.264 OA
HETATM    3  N1  UNL     1      17.176 -13.019  21.517  1.00  0.00    -0.315 N 
HETATM    4  C10 UNL     1      18.476 -12.602  20.962  1.00  0.00     0.134 C 
HETATM    5  C11 UNL     1      19.421 -13.788  20.908  1.00  0.00     0.059 C 
HETATM    6  C12 UNL     1      19.607 -14.328  22.291  1.00  0.00    -0.044 A 
HETATM    7  C13 UNL     1      20.833 -14.696  22.794  1.00  0.00     0.033 A 
HETATM    8  C14 UNL     1      20.953 -15.182  24.082  1.00  0.00     0.056 A 
HETATM    9 CL2  UNL     1      22.487 -15.663  24.767  1.00  0.00    -0.083 Cl
HETATM   10  C15 UNL     1      19.833 -15.296  24.864  1.00  0.00     0.056 A 
HETATM   11 CL3  UNL     1      19.911 -15.904  26.508  1.00  0.00    -0.083 Cl
HETATM   12  C16 UNL     1      18.617 -14.926  24.354  1.00  0.00     0.037 A 
HETATM   13  C17 UNL     1      18.469 -14.431  23.049  1.00  0.00    -0.002 A 
HETATM   14  C18 UNL     1      17.150 -14.048  22.524  1.00  0.00     0.258 C 
ENDROOT
BRANCH   1  15
HETATM   15  C8  UNL     1      14.659 -12.632  21.419  1.00  0.00     0.250 C 
HETATM   16  O4  UNL     1      14.411 -13.197  22.541  1.00  0.00    -0.284 OA
BRANCH  15  17
HETATM   17  C5  UNL     1      13.494 -12.251  20.547  1.00  0.00     0.255 C 
BRANCH  17  18
HETATM   18  C4  UNL     1      12.923 -10.883  20.976  1.00  0.00     0.293 C 
BRANCH  18  19
HETATM   19  O1  UNL     1      11.853 -11.016  21.812  1.00  0.00    -0.358 OA
BRANCH  19  20
HETATM   20  C3  UNL     1      12.184 -10.366  23.013  1.00  0.00     0.170 C 
BRANCH  20  21
HETATM   21  C2  UNL     1      11.279 -10.779  24.136  1.00  0.00     0.022 C 
HETATM   22  C1  UNL     1      10.996 -12.257  23.974  1.00  0.00     0.007 C 
ENDBRANCH  20  21
ENDBRANCH  19  20
ENDBRANCH  18  19
BRANCH  18  23
HETATM   23  O2  UNL     1      13.943 -10.105  21.533  1.00  0.00    -0.368 OA
ATOM     24  H2  UNL     1      14.380  -9.563  20.886  1.00  0.00     0.212 HD
ENDBRANCH  18  23
ENDBRANCH  17  18
BRANCH  17  25
HETATM   25  O3  UNL     1      13.899 -12.145  19.245  1.00  0.00    -0.372 OA
BRANCH  25  26
HETATM   26  C6  UNL     1      13.956 -13.173  18.408  1.00  0.00     0.184 C 
BRANCH  26  27
HETATM   27  C7  UNL     1      14.745 -12.930  17.162  1.00  0.00     0.141 C 
HETATM   28 CL1  UNL     1      16.459 -13.256  17.215  1.00  0.00    -0.128 Cl
ENDBRANCH  26  27
ENDBRANCH  25  26
ENDBRANCH  17  25
ENDBRANCH  15  17
ENDBRANCH   1  15
BRANCH  14  29
HETATM   29  O6  UNL     1      16.619 -15.197  21.910  1.00  0.00    -0.372 OA
ATOM     30  H6  UNL     1      16.341 -15.774  22.612  1.00  0.00     0.212 HD
ENDBRANCH  14  29
TORSDOF 11
ENDMDL
