MODEL 1
REMARK VINA RESULT: -7.499597303      0.000      0.000
REMARK  12 active torsions:
REMARK  status: ('A' for Active; 'I' for Inactive)
REMARK    1  A    between atoms: C2_2  and  O1_3 
REMARK    2  A    between atoms: C2_2  and  C3_5 
REMARK    3  A    between atoms: C5_7  and  O2_8 
REMARK    4  A    between atoms: O2_8  and  C6_9 
REMARK    5  A    between atoms: C6_9  and  C7_10 
REMARK    6  A    between atoms: C11_17  and  C12_18 
REMARK    7  A    between atoms: N2_21  and  C13_22 
REMARK    8  A    between atoms: C13_22  and  O4_23 
REMARK    9  A    between atoms: C13_22  and  C14_25 
REMARK   10  A    between atoms: C14_25  and  C15_26 
REMARK   11  A    between atoms: C15_26  and  C16_27 
REMARK   12  A    between atoms: C16_27  and  C17_28 
ROOT
HETATM    1  C3  UNL     1      14.140 -14.087  20.030  1.00  0.00     0.117 C 
HETATM    2  C4  UNL     1      12.752 -14.600  20.191  1.00  0.00     0.060 C 
HETATM    3  C5  UNL     1      12.220 -14.649  21.604  1.00  0.00     0.126 C 
HETATM    4  C10 UNL     1      12.465 -13.416  22.412  1.00  0.00     0.066 C 
HETATM    5  C11 UNL     1      13.261 -12.448  21.535  1.00  0.00     0.178 C 
HETATM    6  N2  UNL     1      14.429 -13.165  21.166  1.00  0.00    -0.345 N 
ENDROOT
BRANCH   6   7
HETATM    7  C13 UNL     1      15.705 -13.205  21.697  1.00  0.00     0.114 C 
BRANCH   7   8
HETATM    8  O4  UNL     1      15.845 -13.950  22.756  1.00  0.00    -0.349 OA
ATOM      9  H4  UNL     1      16.528 -13.677  23.357  1.00  0.00     0.219 HD
ENDBRANCH   7   8
BRANCH   7  10
HETATM   10  C14 UNL     1      16.964 -12.585  21.327  1.00  0.00     0.084 C 
BRANCH  10  11
HETATM   11  C15 UNL     1      17.937 -13.646  20.754  1.00  0.00     0.017 C 
BRANCH  11  12
HETATM   12  C16 UNL     1      18.624 -13.051  19.540  1.00  0.00     0.118 C 
BRANCH  12  13
HETATM   13  C17 UNL     1      20.096 -13.306  19.555  1.00  0.00     0.387 C 
HETATM   14  F2  UNL     1      20.657 -13.239  18.305  1.00  0.00    -0.171 F 
HETATM   15  F3  UNL     1      20.751 -12.352  20.345  1.00  0.00    -0.171 F 
HETATM   16  F4  UNL     1      20.388 -14.528  20.119  1.00  0.00    -0.171 F 
ENDBRANCH  12  13
ENDBRANCH  11  12
ENDBRANCH  10  11
ENDBRANCH   7  10
ENDBRANCH   6   7
BRANCH   1  17
HETATM   17  C2  UNL     1      14.296 -13.444  18.710  1.00  0.00     0.137 C 
HETATM   18  C1  UNL     1      15.456 -13.947  17.879  1.00  0.00     0.041 C 
BRANCH  17  19
HETATM   19  O1  UNL     1      14.356 -12.075  18.673  1.00  0.00    -0.394 OA
ATOM     20  H1  UNL     1      13.591 -11.760  19.141  1.00  0.00     0.210 HD
ENDBRANCH  17  19
ENDBRANCH   1  17
BRANCH   5  21
HETATM   21  C12 UNL     1      13.302 -11.088  21.970  1.00  0.00     0.254 C 
HETATM   22  N1  UNL     1      12.646 -10.574  23.081  1.00  0.00    -0.060 NA
HETATM   23  O3  UNL     1      14.007 -10.274  21.275  1.00  0.00    -0.275 OA
ENDBRANCH   5  21
BRANCH   3  24
HETATM   24  O2  UNL     1      12.666 -15.759  22.293  1.00  0.00    -0.384 OA
BRANCH  24  25
HETATM   25  C6  UNL     1      12.856 -16.906  21.621  1.00  0.00     0.187 C 
BRANCH  25  26
HETATM   26  C7  UNL     1      14.009 -17.786  21.858  1.00  0.00     0.117 C 
HETATM   27  S1  UNL     1      13.339 -19.515  21.528  1.00  0.00    -0.088 SA
HETATM   28  S2  UNL     1      13.623 -19.352  19.387  1.00  0.00    -0.094 SA
HETATM   29  C8  UNL     1      14.579 -17.784  19.480  1.00  0.00     0.124 C 
HETATM   30  C9  UNL     1      15.135 -17.718  20.862  1.00  0.00     0.196 C 
HETATM   31  F1  UNL     1      15.879 -16.621  21.028  1.00  0.00    -0.247 F 
ENDBRANCH  25  26
ENDBRANCH  24  25
ENDBRANCH   3  24
TORSDOF 12
ENDMDL
MODEL 2
REMARK VINA RESULT: -7.395086594      1.436      1.597
REMARK  12 active torsions:
REMARK  status: ('A' for Active; 'I' for Inactive)
REMARK    1  A    between atoms: C2_2  and  O1_3 
REMARK    2  A    between atoms: C2_2  and  C3_5 
REMARK    3  A    between atoms: C5_7  and  O2_8 
REMARK    4  A    between atoms: O2_8  and  C6_9 
REMARK    5  A    between atoms: C6_9  and  C7_10 
REMARK    6  A    between atoms: C11_17  and  C12_18 
REMARK    7  A    between atoms: N2_21  and  C13_22 
REMARK    8  A    between atoms: C13_22  and  O4_23 
REMARK    9  A    between atoms: C13_22  and  C14_25 
REMARK   10  A    between atoms: C14_25  and  C15_26 
REMARK   11  A    between atoms: C15_26  and  C16_27 
REMARK   12  A    between atoms: C16_27  and  C17_28 
ROOT
HETATM    1  C3  UNL     1      14.324 -14.030  19.787  1.00  0.00     0.117 C 
HETATM    2  C4  UNL     1      12.899 -14.457  19.749  1.00  0.00     0.060 C 
HETATM    3  C5  UNL     1      12.194 -14.543  21.082  1.00  0.00     0.126 C 
HETATM    4  C10 UNL     1      12.409 -13.371  21.984  1.00  0.00     0.066 C 
HETATM    5  C11 UNL     1      13.364 -12.415  21.269  1.00  0.00     0.178 C 
HETATM    6  N2  UNL     1      14.524 -13.188  21.003  1.00  0.00    -0.345 N 
ENDROOT
BRANCH   6   7
HETATM    7  C13 UNL     1      15.720 -13.340  21.680  1.00  0.00     0.114 C 
BRANCH   7   8
HETATM    8  O4  UNL     1      15.681 -14.143  22.705  1.00  0.00    -0.349 OA
ATOM      9  H4  UNL     1      16.507 -14.262  23.159  1.00  0.00     0.219 HD
ENDBRANCH   7   8
BRANCH   7  10
HETATM   10  C14 UNL     1      17.050 -12.789  21.501  1.00  0.00     0.084 C 
BRANCH  10  11
HETATM   11  C15 UNL     1      17.932 -13.771  20.689  1.00  0.00     0.017 C 
BRANCH  11  12
HETATM   12  C16 UNL     1      18.645 -12.981  19.606  1.00  0.00     0.118 C 
BRANCH  12  13
HETATM   13  C17 UNL     1      20.105 -13.293  19.564  1.00  0.00     0.387 C 
HETATM   14  F2  UNL     1      20.611 -13.281  18.288  1.00  0.00    -0.171 F 
HETATM   15  F3  UNL     1      20.831 -12.346  20.297  1.00  0.00    -0.171 F 
HETATM   16  F4  UNL     1      20.376 -14.511  20.146  1.00  0.00    -0.171 F 
ENDBRANCH  12  13
ENDBRANCH  11  12
ENDBRANCH  10  11
ENDBRANCH   7  10
ENDBRANCH   6   7
BRANCH   1  17
HETATM   17  C2  UNL     1      14.681 -13.332  18.536  1.00  0.00     0.137 C 
HETATM   18  C1  UNL     1      15.653 -14.068  17.639  1.00  0.00     0.041 C 
BRANCH  17  19
HETATM   19  O1  UNL     1      15.143 -12.045  18.636  1.00  0.00    -0.394 OA
ATOM     20  H1  UNL     1      14.380 -11.495  18.769  1.00  0.00     0.210 HD
ENDBRANCH  17  19
ENDBRANCH   1  17
BRANCH   5  21
HETATM   21  C12 UNL     1      13.432 -11.085  21.785  1.00  0.00     0.254 C 
HETATM   22  N1  UNL     1      12.778 -10.624  22.920  1.00  0.00    -0.060 NA
HETATM   23  O3  UNL     1      14.161 -10.247  21.145  1.00  0.00    -0.275 OA
ENDBRANCH   5  21
BRANCH   3  24
HETATM   24  O2  UNL     1      12.483 -15.713  21.753  1.00  0.00    -0.384 OA
BRANCH  24  25
HETATM   25  C6  UNL     1      12.546 -16.861  21.058  1.00  0.00     0.187 C 
BRANCH  25  26
HETATM   26  C7  UNL     1      11.427 -17.811  20.987  1.00  0.00     0.117 C 
HETATM   27  S1  UNL     1      10.762 -17.606  19.237  1.00  0.00    -0.088 SA
HETATM   28  S2  UNL     1      12.239 -18.941  18.386  1.00  0.00    -0.094 SA
HETATM   29  C8  UNL     1      12.866 -19.530  20.011  1.00  0.00     0.124 C 
HETATM   30  C9  UNL     1      11.774 -19.275  20.994  1.00  0.00     0.196 C 
HETATM   31  F1  UNL     1      12.118 -19.698  22.213  1.00  0.00    -0.247 F 
ENDBRANCH  25  26
ENDBRANCH  24  25
ENDBRANCH   3  24
TORSDOF 12
ENDMDL
MODEL 3
REMARK VINA RESULT: -7.291611209      1.486      1.770
REMARK  12 active torsions:
REMARK  status: ('A' for Active; 'I' for Inactive)
REMARK    1  A    between atoms: C2_2  and  O1_3 
REMARK    2  A    between atoms: C2_2  and  C3_5 
REMARK    3  A    between atoms: C5_7  and  O2_8 
REMARK    4  A    between atoms: O2_8  and  C6_9 
REMARK    5  A    between atoms: C6_9  and  C7_10 
REMARK    6  A    between atoms: C11_17  and  C12_18 
REMARK    7  A    between atoms: N2_21  and  C13_22 
REMARK    8  A    between atoms: C13_22  and  O4_23 
REMARK    9  A    between atoms: C13_22  and  C14_25 
REMARK   10  A    between atoms: C14_25  and  C15_26 
REMARK   11  A    between atoms: C15_26  and  C16_27 
REMARK   12  A    between atoms: C16_27  and  C17_28 
ROOT
HETATM    1  C3  UNL     1      14.187 -14.169  19.959  1.00  0.00     0.117 C 
HETATM    2  C4  UNL     1      12.809 -14.723  20.049  1.00  0.00     0.060 C 
HETATM    3  C5  UNL     1      12.250 -14.899  21.441  1.00  0.00     0.126 C 
HETATM    4  C10 UNL     1      12.451 -13.731  22.352  1.00  0.00     0.066 C 
HETATM    5  C11 UNL     1      13.241 -12.678  21.574  1.00  0.00     0.178 C 
HETATM    6  N2  UNL     1      14.433 -13.337  21.173  1.00  0.00    -0.345 N 
ENDROOT
BRANCH   6   7
HETATM    7  C13 UNL     1      15.699 -13.394  21.726  1.00  0.00     0.114 C 
BRANCH   7   8
HETATM    8  O4  UNL     1      15.849 -14.260  22.687  1.00  0.00    -0.349 OA
ATOM      9  H4  UNL     1      15.382 -14.060  23.490  1.00  0.00     0.219 HD
ENDBRANCH   7   8
BRANCH   7  10
HETATM   10  C14 UNL     1      16.937 -12.683  21.467  1.00  0.00     0.084 C 
BRANCH  10  11
HETATM   11  C15 UNL     1      17.997 -13.648  20.880  1.00  0.00     0.017 C 
BRANCH  11  12
HETATM   12  C16 UNL     1      18.706 -12.937  19.743  1.00  0.00     0.118 C 
BRANCH  12  13
HETATM   13  C17 UNL     1      20.150 -13.313  19.669  1.00  0.00     0.387 C 
HETATM   14  F2  UNL     1      20.958 -12.442  20.355  1.00  0.00    -0.171 F 
HETATM   15  F3  UNL     1      20.357 -14.582  20.226  1.00  0.00    -0.171 F 
HETATM   16  F4  UNL     1      20.581 -13.399  18.364  1.00  0.00    -0.171 F 
ENDBRANCH  12  13
ENDBRANCH  11  12
ENDBRANCH  10  11
ENDBRANCH   7  10
ENDBRANCH   6   7
BRANCH   1  17
HETATM   17  C2  UNL     1      14.354 -13.417  18.700  1.00  0.00     0.137 C 
HETATM   18  C1  UNL     1      15.567 -13.794  17.877  1.00  0.00     0.041 C 
BRANCH  17  19
HETATM   19  O1  UNL     1      14.343 -12.049  18.771  1.00  0.00    -0.394 OA
ATOM     20  H1  UNL     1      14.994 -11.808  19.421  1.00  0.00     0.210 HD
ENDBRANCH  17  19
ENDBRANCH   1  17
BRANCH   5  21
HETATM   21  C12 UNL     1      13.243 -11.358  22.119  1.00  0.00     0.254 C 
HETATM   22  N1  UNL     1      13.823 -10.242  21.530  1.00  0.00    -0.060 NA
HETATM   23  O3  UNL     1      12.655 -11.190  23.246  1.00  0.00    -0.275 OA
ENDBRANCH   5  21
BRANCH   3  24
HETATM   24  O2  UNL     1      12.708 -16.052  22.047  1.00  0.00    -0.384 OA
BRANCH  24  25
HETATM   25  C6  UNL     1      12.809 -17.173  21.314  1.00  0.00     0.187 C 
BRANCH  25  26
HETATM   26  C7  UNL     1      11.711 -18.141  21.185  1.00  0.00     0.117 C 
HETATM   27  S1  UNL     1      11.210 -18.024  19.373  1.00  0.00    -0.088 SA
HETATM   28  S2  UNL     1      12.773 -19.376  18.724  1.00  0.00    -0.094 SA
HETATM   29  C8  UNL     1      13.251 -19.882  20.427  1.00  0.00     0.124 C 
HETATM   30  C9  UNL     1      12.070 -19.598  21.291  1.00  0.00     0.196 C 
HETATM   31  F1  UNL     1      12.303 -19.961  22.555  1.00  0.00    -0.247 F 
ENDBRANCH  25  26
ENDBRANCH  24  25
ENDBRANCH   3  24
TORSDOF 12
ENDMDL
MODEL 4
REMARK VINA RESULT: -7.263464651      1.416      1.814
REMARK  12 active torsions:
REMARK  status: ('A' for Active; 'I' for Inactive)
REMARK    1  A    between atoms: C2_2  and  O1_3 
REMARK    2  A    between atoms: C2_2  and  C3_5 
REMARK    3  A    between atoms: C5_7  and  O2_8 
REMARK    4  A    between atoms: O2_8  and  C6_9 
REMARK    5  A    between atoms: C6_9  and  C7_10 
REMARK    6  A    between atoms: C11_17  and  C12_18 
REMARK    7  A    between atoms: N2_21  and  C13_22 
REMARK    8  A    between atoms: C13_22  and  O4_23 
REMARK    9  A    between atoms: C13_22  and  C14_25 
REMARK   10  A    between atoms: C14_25  and  C15_26 
REMARK   11  A    between atoms: C15_26  and  C16_27 
REMARK   12  A    between atoms: C16_27  and  C17_28 
ROOT
HETATM    1  C3  UNL     1      14.180 -14.147  19.991  1.00  0.00     0.117 C 
HETATM    2  C4  UNL     1      12.828 -14.752  20.131  1.00  0.00     0.060 C 
HETATM    3  C5  UNL     1      12.320 -14.929  21.542  1.00  0.00     0.126 C 
HETATM    4  C10 UNL     1      12.503 -13.742  22.431  1.00  0.00     0.066 C 
HETATM    5  C11 UNL     1      13.228 -12.670  21.616  1.00  0.00     0.178 C 
HETATM    6  N2  UNL     1      14.431 -13.290  21.186  1.00  0.00    -0.345 N 
ENDROOT
BRANCH   6   7
HETATM    7  C13 UNL     1      15.715 -13.290  21.699  1.00  0.00     0.114 C 
BRANCH   7   8
HETATM    8  O4  UNL     1      15.913 -14.097  22.702  1.00  0.00    -0.349 OA
ATOM      9  H4  UNL     1      16.765 -14.518  22.722  1.00  0.00     0.219 HD
ENDBRANCH   7   8
BRANCH   7  10
HETATM   10  C14 UNL     1      16.929 -12.571  21.361  1.00  0.00     0.084 C 
BRANCH  10  11
HETATM   11  C15 UNL     1      18.030 -13.562  20.908  1.00  0.00     0.017 C 
BRANCH  11  12
HETATM   12  C16 UNL     1      18.687 -13.001  19.660  1.00  0.00     0.118 C 
BRANCH  12  13
HETATM   13  C17 UNL     1      20.150 -13.301  19.622  1.00  0.00     0.387 C 
HETATM   14  F2  UNL     1      20.892 -12.404  20.349  1.00  0.00    -0.171 F 
HETATM   15  F3  UNL     1      20.406 -14.569  20.159  1.00  0.00    -0.171 F 
HETATM   16  F4  UNL     1      20.622 -13.336  18.329  1.00  0.00    -0.171 F 
ENDBRANCH  12  13
ENDBRANCH  11  12
ENDBRANCH  10  11
ENDBRANCH   7  10
ENDBRANCH   6   7
BRANCH   1  17
HETATM   17  C2  UNL     1      14.279 -13.407  18.718  1.00  0.00     0.137 C 
HETATM   18  C1  UNL     1      15.508 -13.708  17.888  1.00  0.00     0.041 C 
BRANCH  17  19
HETATM   19  O1  UNL     1      14.168 -12.042  18.766  1.00  0.00    -0.394 OA
ATOM     20  H1  UNL     1      13.242 -11.851  18.861  1.00  0.00     0.210 HD
ENDBRANCH  17  19
ENDBRANCH   1  17
BRANCH   5  21
HETATM   21  C12 UNL     1      13.195 -11.344  22.143  1.00  0.00     0.254 C 
HETATM   22  N1  UNL     1      13.738 -10.219  21.535  1.00  0.00    -0.060 NA
HETATM   23  O3  UNL     1      12.612 -11.178  23.272  1.00  0.00    -0.275 OA
ENDBRANCH   5  21
BRANCH   3  24
HETATM   24  O2  UNL     1      12.840 -16.055  22.148  1.00  0.00    -0.384 OA
BRANCH  24  25
HETATM   25  C6  UNL     1      12.661 -17.249  21.560  1.00  0.00     0.187 C 
BRANCH  25  26
HETATM   26  C7  UNL     1      13.761 -18.012  20.955  1.00  0.00     0.117 C 
HETATM   27  S1  UNL     1      15.265 -17.542  21.987  1.00  0.00    -0.088 SA
HETATM   28  S2  UNL     1      14.815 -18.993  23.530  1.00  0.00    -0.094 SA
HETATM   29  C8  UNL     1      13.481 -19.822  22.573  1.00  0.00     0.124 C 
HETATM   30  C9  UNL     1      13.739 -19.505  21.140  1.00  0.00     0.196 C 
HETATM   31  F1  UNL     1      12.836 -20.090  20.349  1.00  0.00    -0.247 F 
ENDBRANCH  25  26
ENDBRANCH  24  25
ENDBRANCH   3  24
TORSDOF 12
ENDMDL
MODEL 5
REMARK VINA RESULT: -7.206919548      1.078      1.401
REMARK  12 active torsions:
REMARK  status: ('A' for Active; 'I' for Inactive)
REMARK    1  A    between atoms: C2_2  and  O1_3 
REMARK    2  A    between atoms: C2_2  and  C3_5 
REMARK    3  A    between atoms: C5_7  and  O2_8 
REMARK    4  A    between atoms: O2_8  and  C6_9 
REMARK    5  A    between atoms: C6_9  and  C7_10 
REMARK    6  A    between atoms: C11_17  and  C12_18 
REMARK    7  A    between atoms: N2_21  and  C13_22 
REMARK    8  A    between atoms: C13_22  and  O4_23 
REMARK    9  A    between atoms: C13_22  and  C14_25 
REMARK   10  A    between atoms: C14_25  and  C15_26 
REMARK   11  A    between atoms: C15_26  and  C16_27 
REMARK   12  A    between atoms: C16_27  and  C17_28 
ROOT
HETATM    1  C3  UNL     1      14.254 -14.109  19.999  1.00  0.00     0.117 C 
HETATM    2  C4  UNL     1      12.879 -14.645  20.190  1.00  0.00     0.060 C 
HETATM    3  C5  UNL     1      12.379 -14.705  21.614  1.00  0.00     0.126 C 
HETATM    4  C10 UNL     1      12.620 -13.469  22.418  1.00  0.00     0.066 C 
HETATM    5  C11 UNL     1      13.380 -12.487  21.526  1.00  0.00     0.178 C 
HETATM    6  N2  UNL     1      14.552 -13.184  21.131  1.00  0.00    -0.345 N 
ENDROOT
BRANCH   6   7
HETATM    7  C13 UNL     1      15.840 -13.203  21.633  1.00  0.00     0.114 C 
BRANCH   7   8
HETATM    8  O4  UNL     1      16.015 -13.945  22.689  1.00  0.00    -0.349 OA
ATOM      9  H4  UNL     1      15.723 -13.561  23.508  1.00  0.00     0.219 HD
ENDBRANCH   7   8
BRANCH   7  10
HETATM   10  C14 UNL     1      17.080 -12.563  21.235  1.00  0.00     0.084 C 
BRANCH  10  11
HETATM   11  C15 UNL     1      17.937 -13.534  20.384  1.00  0.00     0.017 C 
BRANCH  11  12
HETATM   12  C16 UNL     1      19.398 -13.279  20.702  1.00  0.00     0.118 C 
BRANCH  12  13
HETATM   13  C17 UNL     1      19.961 -14.331  21.602  1.00  0.00     0.387 C 
HETATM   14  F2  UNL     1      19.106 -14.666  22.622  1.00  0.00    -0.171 F 
HETATM   15  F3  UNL     1      20.216 -15.507  20.883  1.00  0.00    -0.171 F 
HETATM   16  F4  UNL     1      21.171 -13.944  22.133  1.00  0.00    -0.171 F 
ENDBRANCH  12  13
ENDBRANCH  11  12
ENDBRANCH  10  11
ENDBRANCH   7  10
ENDBRANCH   6   7
BRANCH   1  17
HETATM   17  C2  UNL     1      14.370 -13.462  18.677  1.00  0.00     0.137 C 
HETATM   18  C1  UNL     1      15.493 -13.974  17.802  1.00  0.00     0.041 C 
BRANCH  17  19
HETATM   19  O1  UNL     1      14.446 -12.094  18.644  1.00  0.00    -0.394 OA
ATOM     20  H1  UNL     1      13.810 -11.774  19.274  1.00  0.00     0.210 HD
ENDBRANCH  17  19
ENDBRANCH   1  17
BRANCH   5  21
HETATM   21  C12 UNL     1      13.409 -11.127  21.962  1.00  0.00     0.254 C 
HETATM   22  N1  UNL     1      13.968 -10.066  21.262  1.00  0.00    -0.060 NA
HETATM   23  O3  UNL     1      12.869 -10.865  23.095  1.00  0.00    -0.275 OA
ENDBRANCH   5  21
BRANCH   3  24
HETATM   24  O2  UNL     1      12.858 -15.808  22.291  1.00  0.00    -0.384 OA
BRANCH  24  25
HETATM   25  C6  UNL     1      13.064 -16.948  21.611  1.00  0.00     0.187 C 
BRANCH  25  26
HETATM   26  C7  UNL     1      14.240 -17.801  21.824  1.00  0.00     0.117 C 
HETATM   27  S1  UNL     1      13.604 -19.545  21.508  1.00  0.00    -0.088 SA
HETATM   28  S2  UNL     1      13.840 -19.377  19.362  1.00  0.00    -0.094 SA
HETATM   29  C8  UNL     1      14.762 -17.788  19.435  1.00  0.00     0.124 C 
HETATM   30  C9  UNL     1      15.344 -17.708  20.806  1.00  0.00     0.196 C 
HETATM   31  F1  UNL     1      16.066 -16.595  20.956  1.00  0.00    -0.247 F 
ENDBRANCH  25  26
ENDBRANCH  24  25
ENDBRANCH   3  24
TORSDOF 12
ENDMDL
