MODEL 1
REMARK VINA RESULT: -7.727176973      0.000      0.000
REMARK  10 active torsions:
REMARK  status: ('A' for Active; 'I' for Inactive)
REMARK    1  A    between atoms: C2_2  and  C4_4 
REMARK    2  A    between atoms: C4_4  and  C5_5 
REMARK    3  A    between atoms: C4_4  and  O2_8 
REMARK    4  A    between atoms: C5_5  and  O1_6 
REMARK    5  A    between atoms: O2_8  and  C6_9 
REMARK       I    between atoms: C6_9  and  N1_11 
REMARK    6  A    between atoms: N1_11  and  C7_13 
REMARK    7  A    between atoms: C7_13  and  C8_14 
REMARK    8  A    between atoms: C7_13  and  C14_24 
REMARK    9  A    between atoms: C8_14  and  C9_15 
REMARK   10  A    between atoms: C9_15  and  N2_16 
ROOT
HETATM    1  C7  UNL     1      13.824 -14.550  19.856  1.00  0.00     0.120 C 
ENDROOT
BRANCH   1   2
HETATM    2  N1  UNL     1      15.203 -14.253  20.186  1.00  0.00    -0.328 N 
HETATM    3  C6  UNL     1      16.125 -14.050  19.147  1.00  0.00     0.361 C 
HETATM    4  O3  UNL     1      15.773 -14.123  17.945  1.00  0.00    -0.238 OA
ATOM      5  H1  UNL     1      15.500 -14.193  21.160  1.00  0.00     0.165 HD
BRANCH   3   6
HETATM    6  O2  UNL     1      17.461 -13.761  19.315  1.00  0.00    -0.296 OA
BRANCH   6   7
HETATM    7  C4  UNL     1      18.080 -13.680  20.531  1.00  0.00     0.160 C 
BRANCH   7   8
HETATM    8  C2  UNL     1      19.530 -14.154  20.362  1.00  0.00     0.009 C 
HETATM    9  C1  UNL     1      20.105 -14.663  21.639  1.00  0.00     0.012 C 
HETATM   10  C3  UNL     1      20.372 -13.077  19.717  1.00  0.00     0.012 C 
ENDBRANCH   7   8
BRANCH   7  11
HETATM   11  C5  UNL     1      18.014 -12.395  21.273  1.00  0.00     0.197 C 
BRANCH  11  12
HETATM   12  O1  UNL     1      16.937 -11.599  20.985  1.00  0.00    -0.398 OA
ATOM     13  H1  UNL     1      16.908 -10.766  21.443  1.00  0.00     0.209 HD
ENDBRANCH  11  12
ENDBRANCH   7  11
ENDBRANCH   6   7
ENDBRANCH   3   6
ENDBRANCH   1   2
BRANCH   1  14
HETATM   14  C8  UNL     1      12.906 -13.429  20.375  1.00  0.00     0.060 C 
BRANCH  14  15
HETATM   15  C9  UNL     1      13.657 -12.602  21.384  1.00  0.00     0.283 C 
BRANCH  15  16
HETATM   16  N2  UNL     1      12.845 -12.034  22.392  1.00  0.00     0.165 N 
HETATM   17  C10 UNL     1      11.647 -12.731  22.699  1.00  0.00     0.306 C 
HETATM   18  C11 UNL     1      11.010 -12.097  23.918  1.00  0.00     0.198 C 
HETATM   19  O4  UNL     1      10.932 -10.728  23.854  1.00  0.00    -0.381 OA
HETATM   20  C12 UNL     1      12.211 -10.150  23.686  1.00  0.00     0.282 C 
HETATM   21  C13 UNL     1      12.657 -10.611  22.291  1.00  0.00     0.459 C 
HETATM   22  F1  UNL     1      11.583 -10.286  21.452  1.00  0.00    -0.170 F 
HETATM   23  F2  UNL     1      13.790  -9.978  21.876  1.00  0.00    -0.170 F 
ENDBRANCH  15  16
ENDBRANCH  14  15
ENDBRANCH   1  14
BRANCH   1  24
HETATM   24  C14 UNL     1      13.375 -15.833  20.425  1.00  0.00    -0.018 C 
HETATM   25  C15 UNL     1      13.615 -17.030  19.911  1.00  0.00     0.019 C 
HETATM   26 BR1  UNL     1      14.575 -17.510  18.335  1.00  0.00    -0.053 Br
HETATM   27  C16 UNL     1      12.964 -18.039  20.828  1.00  0.00     0.214 C 
HETATM   28  O5  UNL     1      13.057 -17.342  22.049  1.00  0.00    -0.382 OA
HETATM   29  C17 UNL     1      12.584 -16.070  21.655  1.00  0.00     0.205 C 
ENDBRANCH   1  24
TORSDOF 10
ENDMDL
MODEL 2
REMARK VINA RESULT: -7.457424932      2.533      3.380
REMARK  10 active torsions:
REMARK  status: ('A' for Active; 'I' for Inactive)
REMARK    1  A    between atoms: C2_2  and  C4_4 
REMARK    2  A    between atoms: C4_4  and  C5_5 
REMARK    3  A    between atoms: C4_4  and  O2_8 
REMARK    4  A    between atoms: C5_5  and  O1_6 
REMARK    5  A    between atoms: O2_8  and  C6_9 
REMARK       I    between atoms: C6_9  and  N1_11 
REMARK    6  A    between atoms: N1_11  and  C7_13 
REMARK    7  A    between atoms: C7_13  and  C8_14 
REMARK    8  A    between atoms: C7_13  and  C14_24 
REMARK    9  A    between atoms: C8_14  and  C9_15 
REMARK   10  A    between atoms: C9_15  and  N2_16 
ROOT
HETATM    1  C7  UNL     1      15.445 -14.196  21.391  1.00  0.00     0.120 C 
ENDROOT
BRANCH   1   2
HETATM    2  N1  UNL     1      16.257 -14.867  22.386  1.00  0.00    -0.328 N 
HETATM    3  C6  UNL     1      17.576 -14.436  22.596  1.00  0.00     0.361 C 
HETATM    4  O3  UNL     1      18.059 -13.486  21.935  1.00  0.00    -0.238 OA
ATOM      5  H1  UNL     1      15.874 -15.642  22.927  1.00  0.00     0.165 HD
BRANCH   3   6
HETATM    6  O2  UNL     1      18.455 -14.980  23.506  1.00  0.00    -0.296 OA
BRANCH   6   7
HETATM    7  C4  UNL     1      19.581 -14.349  23.955  1.00  0.00     0.160 C 
BRANCH   7   8
HETATM    8  C2  UNL     1      19.628 -14.486  25.483  1.00  0.00     0.009 C 
HETATM    9  C1  UNL     1      20.765 -13.728  26.078  1.00  0.00     0.012 C 
HETATM   10  C3  UNL     1      19.604 -15.941  25.891  1.00  0.00     0.012 C 
ENDBRANCH   7   8
BRANCH   7  11
HETATM   11  C5  UNL     1      20.884 -14.708  23.340  1.00  0.00     0.197 C 
BRANCH  11  12
HETATM   12  O1  UNL     1      21.068 -14.283  22.051  1.00  0.00    -0.398 OA
ATOM     13  H1  UNL     1      21.520 -13.453  21.952  1.00  0.00     0.209 HD
ENDBRANCH  11  12
ENDBRANCH   7  11
ENDBRANCH   6   7
ENDBRANCH   3   6
ENDBRANCH   1   2
BRANCH   1  14
HETATM   14  C8  UNL     1      14.032 -13.944  21.946  1.00  0.00     0.060 C 
BRANCH  14  15
HETATM   15  C9  UNL     1      13.638 -12.519  21.663  1.00  0.00     0.283 C 
BRANCH  15  16
HETATM   16  N2  UNL     1      12.792 -11.944  22.639  1.00  0.00     0.165 N 
HETATM   17  C10 UNL     1      11.590 -12.646  22.919  1.00  0.00     0.306 C 
HETATM   18  C11 UNL     1      10.913 -12.001  24.110  1.00  0.00     0.198 C 
HETATM   19  O4  UNL     1      10.826 -10.633  24.025  1.00  0.00    -0.381 OA
HETATM   20  C12 UNL     1      12.106 -10.049  23.888  1.00  0.00     0.282 C 
HETATM   21  C13 UNL     1      12.597 -10.523  22.514  1.00  0.00     0.459 C 
HETATM   22  F1  UNL     1      11.546 -10.218  21.639  1.00  0.00    -0.170 F 
HETATM   23  F2  UNL     1      13.737  -9.887  22.125  1.00  0.00    -0.170 F 
ENDBRANCH  15  16
ENDBRANCH  14  15
ENDBRANCH   1  14
BRANCH   1  24
HETATM   24  C14 UNL     1      15.334 -14.971  20.143  1.00  0.00    -0.018 C 
HETATM   25  C15 UNL     1      15.790 -14.593  18.958  1.00  0.00     0.019 C 
HETATM   26 BR1  UNL     1      16.705 -12.997  18.455  1.00  0.00    -0.053 Br
HETATM   27  C16 UNL     1      15.450 -15.698  17.985  1.00  0.00     0.214 C 
HETATM   28  O5  UNL     1      15.483 -16.801  18.860  1.00  0.00    -0.382 OA
HETATM   29  C17 UNL     1      14.714 -16.300  19.935  1.00  0.00     0.205 C 
ENDBRANCH   1  24
TORSDOF 10
ENDMDL
MODEL 3
REMARK VINA RESULT: -7.424924510      2.711      6.032
REMARK  10 active torsions:
REMARK  status: ('A' for Active; 'I' for Inactive)
REMARK    1  A    between atoms: C2_2  and  C4_4 
REMARK    2  A    between atoms: C4_4  and  C5_5 
REMARK    3  A    between atoms: C4_4  and  O2_8 
REMARK    4  A    between atoms: C5_5  and  O1_6 
REMARK    5  A    between atoms: O2_8  and  C6_9 
REMARK       I    between atoms: C6_9  and  N1_11 
REMARK    6  A    between atoms: N1_11  and  C7_13 
REMARK    7  A    between atoms: C7_13  and  C8_14 
REMARK    8  A    between atoms: C7_13  and  C14_24 
REMARK    9  A    between atoms: C8_14  and  C9_15 
REMARK   10  A    between atoms: C9_15  and  N2_16 
ROOT
HETATM    1  C7  UNL     1      16.985 -13.938  20.918  1.00  0.00     0.120 C 
ENDROOT
BRANCH   1   2
HETATM    2  N1  UNL     1      15.962 -13.282  21.705  1.00  0.00    -0.328 N 
HETATM    3  C6  UNL     1      15.401 -12.084  21.234  1.00  0.00     0.361 C 
HETATM    4  O3  UNL     1      15.774 -11.577  20.150  1.00  0.00    -0.238 OA
ATOM      5  H1  UNL     1      15.653 -13.685  22.590  1.00  0.00     0.165 HD
BRANCH   3   6
HETATM    6  O2  UNL     1      14.424 -11.358  21.877  1.00  0.00    -0.296 OA
BRANCH   6   7
HETATM    7  C4  UNL     1      13.089 -11.453  21.598  1.00  0.00     0.160 C 
BRANCH   7   8
HETATM    8  C2  UNL     1      12.339 -11.677  22.917  1.00  0.00     0.009 C 
HETATM    9  C1  UNL     1      11.156 -12.566  22.744  1.00  0.00     0.012 C 
HETATM   10  C3  UNL     1      12.001 -10.357  23.572  1.00  0.00     0.012 C 
ENDBRANCH   7   8
BRANCH   7  11
HETATM   11  C5  UNL     1      12.458 -10.376  20.793  1.00  0.00     0.197 C 
BRANCH  11  12
HETATM   12  O1  UNL     1      12.719 -10.409  19.449  1.00  0.00    -0.398 OA
ATOM     13  H1  UNL     1      12.014 -10.111  18.886  1.00  0.00     0.209 HD
ENDBRANCH  11  12
ENDBRANCH   7  11
ENDBRANCH   6   7
ENDBRANCH   3   6
ENDBRANCH   1   2
BRANCH   1  14
HETATM   14  C8  UNL     1      16.433 -15.245  20.320  1.00  0.00     0.060 C 
BRANCH  14  15
HETATM   15  C9  UNL     1      15.417 -15.829  21.265  1.00  0.00     0.283 C 
BRANCH  15  16
HETATM   16  N2  UNL     1      14.214 -16.238  20.647  1.00  0.00     0.165 N 
HETATM   17  C10 UNL     1      14.281 -16.490  19.251  1.00  0.00     0.306 C 
HETATM   18  C11 UNL     1      12.969 -17.099  18.800  1.00  0.00     0.198 C 
HETATM   19  O4  UNL     1      11.861 -16.429  19.257  1.00  0.00    -0.381 OA
HETATM   20  C12 UNL     1      11.846 -16.370  20.669  1.00  0.00     0.282 C 
HETATM   21  C13 UNL     1      13.048 -15.485  21.027  1.00  0.00     0.459 C 
HETATM   22  F1  UNL     1      12.889 -14.339  20.236  1.00  0.00    -0.170 F 
HETATM   23  F2  UNL     1      13.069 -15.150  22.347  1.00  0.00    -0.170 F 
ENDBRANCH  15  16
ENDBRANCH  14  15
ENDBRANCH   1  14
BRANCH   1  24
HETATM   24  C14 UNL     1      18.188 -14.249  21.709  1.00  0.00    -0.018 C 
HETATM   25  C15 UNL     1      19.439 -14.039  21.327  1.00  0.00     0.019 C 
HETATM   26 BR1  UNL     1      20.108 -13.298  19.702  1.00  0.00    -0.053 Br
HETATM   27  C16 UNL     1      20.327 -14.510  22.454  1.00  0.00     0.214 C 
HETATM   28  O5  UNL     1      19.471 -14.270  23.546  1.00  0.00    -0.382 OA
HETATM   29  C17 UNL     1      18.273 -14.844  23.064  1.00  0.00     0.205 C 
ENDBRANCH   1  24
TORSDOF 10
ENDMDL
MODEL 4
REMARK VINA RESULT: -7.331899963      3.190      6.939
REMARK  10 active torsions:
REMARK  status: ('A' for Active; 'I' for Inactive)
REMARK    1  A    between atoms: C2_2  and  C4_4 
REMARK    2  A    between atoms: C4_4  and  C5_5 
REMARK    3  A    between atoms: C4_4  and  O2_8 
REMARK    4  A    between atoms: C5_5  and  O1_6 
REMARK    5  A    between atoms: O2_8  and  C6_9 
REMARK       I    between atoms: C6_9  and  N1_11 
REMARK    6  A    between atoms: N1_11  and  C7_13 
REMARK    7  A    between atoms: C7_13  and  C8_14 
REMARK    8  A    between atoms: C7_13  and  C14_24 
REMARK    9  A    between atoms: C8_14  and  C9_15 
REMARK   10  A    between atoms: C9_15  and  N2_16 
ROOT
HETATM    1  C7  UNL     1      15.409 -14.541  20.975  1.00  0.00     0.120 C 
ENDROOT
BRANCH   1   2
HETATM    2  N1  UNL     1      14.789 -13.686  21.966  1.00  0.00    -0.328 N 
HETATM    3  C6  UNL     1      13.449 -13.302  21.796  1.00  0.00     0.361 C 
HETATM    4  O3  UNL     1      12.788 -13.685  20.801  1.00  0.00    -0.238 OA
ATOM      5  H1  UNL     1      15.319 -13.367  22.777  1.00  0.00     0.165 HD
BRANCH   3   6
HETATM    6  O2  UNL     1      12.738 -12.496  22.657  1.00  0.00    -0.296 OA
BRANCH   6   7
HETATM    7  C4  UNL     1      12.070 -11.367  22.274  1.00  0.00     0.160 C 
BRANCH   7   8
HETATM    8  C2  UNL     1      11.293 -10.836  23.486  1.00  0.00     0.009 C 
HETATM    9  C1  UNL     1      12.014  -9.727  24.171  1.00  0.00     0.012 C 
HETATM   10  C3  UNL     1      10.918 -11.967  24.418  1.00  0.00     0.012 C 
ENDBRANCH   7   8
BRANCH   7  11
HETATM   11  C5  UNL     1      12.838 -10.284  21.608  1.00  0.00     0.197 C 
BRANCH  11  12
HETATM   12  O1  UNL     1      12.544 -10.075  20.287  1.00  0.00    -0.398 OA
ATOM     13  H1  UNL     1      12.526  -9.167  20.008  1.00  0.00     0.209 HD
ENDBRANCH  11  12
ENDBRANCH   7  11
ENDBRANCH   6   7
ENDBRANCH   3   6
ENDBRANCH   1   2
BRANCH   1  14
HETATM   14  C8  UNL     1      16.515 -15.389  21.628  1.00  0.00     0.060 C 
BRANCH  14  15
HETATM   15  C9  UNL     1      17.015 -14.683  22.860  1.00  0.00     0.283 C 
BRANCH  15  16
HETATM   16  N2  UNL     1      18.415 -14.492  22.894  1.00  0.00     0.165 N 
HETATM   17  C10 UNL     1      19.105 -14.692  21.669  1.00  0.00     0.306 C 
HETATM   18  C11 UNL     1      20.546 -14.259  21.842  1.00  0.00     0.198 C 
HETATM   19  O4  UNL     1      21.141 -14.755  22.976  1.00  0.00    -0.381 OA
HETATM   20  C12 UNL     1      20.431 -14.366  24.136  1.00  0.00     0.282 C 
HETATM   21  C13 UNL     1      19.084 -15.091  24.019  1.00  0.00     0.459 C 
HETATM   22  F1  UNL     1      19.423 -16.428  23.771  1.00  0.00    -0.170 F 
HETATM   23  F2  UNL     1      18.344 -14.994  25.159  1.00  0.00    -0.170 F 
ENDBRANCH  15  16
ENDBRANCH  14  15
ENDBRANCH   1  14
BRANCH   1  24
HETATM   24  C14 UNL     1      15.993 -13.775  19.860  1.00  0.00    -0.018 C 
HETATM   25  C15 UNL     1      16.011 -14.153  18.591  1.00  0.00     0.019 C 
HETATM   26 BR1  UNL     1      15.327 -15.739  17.781  1.00  0.00    -0.053 Br
HETATM   27  C16 UNL     1      16.709 -13.059  17.817  1.00  0.00     0.214 C 
HETATM   28  O5  UNL     1      16.366 -11.951  18.616  1.00  0.00    -0.382 OA
HETATM   29  C17 UNL     1      16.667 -12.456  19.901  1.00  0.00     0.205 C 
ENDBRANCH   1  24
TORSDOF 10
ENDMDL
MODEL 5
REMARK VINA RESULT: -7.258273402      2.923      6.071
REMARK  10 active torsions:
REMARK  status: ('A' for Active; 'I' for Inactive)
REMARK    1  A    between atoms: C2_2  and  C4_4 
REMARK    2  A    between atoms: C4_4  and  C5_5 
REMARK    3  A    between atoms: C4_4  and  O2_8 
REMARK    4  A    between atoms: C5_5  and  O1_6 
REMARK    5  A    between atoms: O2_8  and  C6_9 
REMARK       I    between atoms: C6_9  and  N1_11 
REMARK    6  A    between atoms: N1_11  and  C7_13 
REMARK    7  A    between atoms: C7_13  and  C8_14 
REMARK    8  A    between atoms: C7_13  and  C14_24 
REMARK    9  A    between atoms: C8_14  and  C9_15 
REMARK   10  A    between atoms: C9_15  and  N2_16 
ROOT
HETATM    1  C7  UNL     1      16.944 -14.215  20.828  1.00  0.00     0.120 C 
ENDROOT
BRANCH   1   2
HETATM    2  N1  UNL     1      15.921 -13.397  21.446  1.00  0.00    -0.328 N 
HETATM    3  C6  UNL     1      15.622 -12.143  20.890  1.00  0.00     0.361 C 
HETATM    4  O3  UNL     1      16.226 -11.724  19.875  1.00  0.00    -0.238 OA
ATOM      5  H1  UNL     1      15.425 -13.727  22.273  1.00  0.00     0.165 HD
BRANCH   3   6
HETATM    6  O2  UNL     1      14.676 -11.265  21.373  1.00  0.00    -0.296 OA
BRANCH   6   7
HETATM    7  C4  UNL     1      13.327 -11.460  21.270  1.00  0.00     0.160 C 
BRANCH   7   8
HETATM    8  C2  UNL     1      12.833 -12.086  22.580  1.00  0.00     0.009 C 
HETATM    9  C1  UNL     1      12.420 -13.506  22.401  1.00  0.00     0.012 C 
HETATM   10  C3  UNL     1      11.759 -11.229  23.211  1.00  0.00     0.012 C 
ENDBRANCH   7   8
BRANCH   7  11
HETATM   11  C5  UNL     1      12.477 -10.311  20.865  1.00  0.00     0.197 C 
BRANCH  11  12
HETATM   12  O1  UNL     1      12.535  -9.968  19.540  1.00  0.00    -0.398 OA
ATOM     13  H1  UNL     1      12.392  -9.048  19.347  1.00  0.00     0.209 HD
ENDBRANCH  11  12
ENDBRANCH   7  11
ENDBRANCH   6   7
ENDBRANCH   3   6
ENDBRANCH   1   2
BRANCH   1  14
HETATM   14  C8  UNL     1      16.359 -15.585  20.438  1.00  0.00     0.060 C 
BRANCH  14  15
HETATM   15  C9  UNL     1      14.945 -15.398  19.955  1.00  0.00     0.283 C 
BRANCH  15  16
HETATM   16  N2  UNL     1      14.008 -16.278  20.542  1.00  0.00     0.165 N 
HETATM   17  C10 UNL     1      14.495 -17.563  20.902  1.00  0.00     0.306 C 
HETATM   18  C11 UNL     1      13.422 -18.291  21.684  1.00  0.00     0.198 C 
HETATM   19  O4  UNL     1      12.179 -18.240  21.101  1.00  0.00    -0.381 OA
HETATM   20  C12 UNL     1      11.753 -16.903  20.926  1.00  0.00     0.282 C 
HETATM   21  C13 UNL     1      12.726 -16.325  19.889  1.00  0.00     0.459 C 
HETATM   22  F1  UNL     1      12.712 -17.252  18.838  1.00  0.00    -0.170 F 
HETATM   23  F2  UNL     1      12.338 -15.098  19.445  1.00  0.00    -0.170 F 
ENDBRANCH  15  16
ENDBRANCH  14  15
ENDBRANCH   1  14
BRANCH   1  24
HETATM   24  C14 UNL     1      18.102 -14.428  21.712  1.00  0.00    -0.018 C 
HETATM   25  C15 UNL     1      19.357 -14.111  21.430  1.00  0.00     0.019 C 
HETATM   26 BR1  UNL     1      20.088 -13.310  19.861  1.00  0.00    -0.053 Br
HETATM   27  C16 UNL     1      20.190 -14.511  22.624  1.00  0.00     0.214 C 
HETATM   28  O5  UNL     1      19.233 -14.349  23.645  1.00  0.00    -0.382 OA
HETATM   29  C17 UNL     1      18.129 -15.020  23.071  1.00  0.00     0.205 C 
ENDBRANCH   1  24
TORSDOF 10
ENDMDL
