MODEL 1
REMARK VINA RESULT: -5.823784634      0.000      0.000
REMARK  3 active torsions:
REMARK  status: ('A' for Active; 'I' for Inactive)
REMARK    1  A    between atoms: C2_3  and  N2_4 
REMARK    2  A    between atoms: C5_7  and  C6_8 
REMARK    3  A    between atoms: C6_8  and  N3_9 
ROOT
HETATM    1  N1  UNL     1      84.560  76.793  98.889  1.00  0.00    -0.195 NA
HETATM    2  C1  UNL     1      83.457  77.123  98.895  1.00  0.00     0.081 C 
HETATM    3  C2  UNL     1      82.077  77.538  98.898  1.00  0.00     0.279 C 
ENDROOT
BRANCH   3   4
HETATM    4  N2  UNL     1      81.276  76.367  98.522  1.00  0.00    -0.251 N 
HETATM    5  C3  UNL     1      81.615  75.562  97.503  1.00  0.00     0.121 A 
HETATM    6  C4  UNL     1      80.641  74.585  97.450  1.00  0.00     0.056 A 
HETATM    7  C5  UNL     1      79.740  74.858  98.468  1.00  0.00     0.096 A 
HETATM    8  O1  UNL     1      80.193  75.939  99.058  1.00  0.00    -0.238 OA
BRANCH   7   9
HETATM    9  C6  UNL     1      78.529  74.053  98.773  1.00  0.00     0.196 C 
BRANCH   9  10
HETATM   10  N3  UNL     1      77.738  73.803  97.582  1.00  0.00    -0.345 N 
HETATM   11  C7  UNL     1      77.045  74.691  96.849  1.00  0.00     0.109 A 
HETATM   12  C8  UNL     1      76.419  74.056  95.784  1.00  0.00     0.106 A 
HETATM   13  N4  UNL     1      76.755  72.764  95.899  1.00  0.00    -0.361 N 
HETATM   14  C9  UNL     1      77.550  72.610  96.982  1.00  0.00     0.182 A 
ATOM     15  H4  UNL     1      76.459  72.017  95.270  1.00  0.00     0.166 HD
ENDBRANCH   9  10
ENDBRANCH   7   9
ENDBRANCH   3   4
TORSDOF 3
ENDMDL
MODEL 2
REMARK VINA RESULT: -5.734459603      1.440      1.948
REMARK  3 active torsions:
REMARK  status: ('A' for Active; 'I' for Inactive)
REMARK    1  A    between atoms: C2_3  and  N2_4 
REMARK    2  A    between atoms: C5_7  and  C6_8 
REMARK    3  A    between atoms: C6_8  and  N3_9 
ROOT
HETATM    1  N1  UNL     1      85.302  76.866  99.139  1.00  0.00    -0.195 NA
HETATM    2  C1  UNL     1      84.436  77.165  98.442  1.00  0.00     0.081 C 
HETATM    3  C2  UNL     1      83.354  77.536  97.565  1.00  0.00     0.279 C 
ENDROOT
BRANCH   3   4
HETATM    4  N2  UNL     1      82.242  76.618  97.843  1.00  0.00    -0.251 N 
HETATM    5  C3  UNL     1      81.489  76.718  98.949  1.00  0.00     0.121 A 
HETATM    6  C4  UNL     1      80.559  75.701  98.868  1.00  0.00     0.056 A 
HETATM    7  C5  UNL     1      80.806  75.022  97.684  1.00  0.00     0.096 A 
HETATM    8  O1  UNL     1      81.828  75.634  97.134  1.00  0.00    -0.238 OA
BRANCH   7   9
HETATM    9  C6  UNL     1      80.035  73.849  97.197  1.00  0.00     0.196 C 
BRANCH   9  10
HETATM   10  N3  UNL     1      78.650  73.902  97.628  1.00  0.00    -0.345 N 
HETATM   11  C7  UNL     1      78.072  73.230  98.638  1.00  0.00     0.109 A 
HETATM   12  C8  UNL     1      76.724  73.556  98.729  1.00  0.00     0.106 A 
HETATM   13  N4  UNL     1      76.511  74.442  97.746  1.00  0.00    -0.361 N 
HETATM   14  C9  UNL     1      77.670  74.652  97.082  1.00  0.00     0.182 A 
ATOM     15  H4  UNL     1      75.618  74.886  97.533  1.00  0.00     0.166 HD
ENDBRANCH   9  10
ENDBRANCH   7   9
ENDBRANCH   3   4
TORSDOF 3
ENDMDL
MODEL 3
REMARK VINA RESULT: -5.575092785      0.982      1.041
REMARK  3 active torsions:
REMARK  status: ('A' for Active; 'I' for Inactive)
REMARK    1  A    between atoms: C2_3  and  N2_4 
REMARK    2  A    between atoms: C5_7  and  C6_8 
REMARK    3  A    between atoms: C6_8  and  N3_9 
ROOT
HETATM    1  N1  UNL     1      84.678  76.919  99.027  1.00  0.00    -0.195 NA
HETATM    2  C1  UNL     1      83.749  76.764  98.366  1.00  0.00     0.081 C 
HETATM    3  C2  UNL     1      82.587  76.567  97.535  1.00  0.00     0.279 C 
ENDROOT
BRANCH   3   4
HETATM    4  N2  UNL     1      81.751  75.559  98.199  1.00  0.00    -0.251 N 
HETATM    5  C3  UNL     1      82.274  74.549  98.910  1.00  0.00     0.121 A 
HETATM    6  C4  UNL     1      81.200  73.817  99.376  1.00  0.00     0.056 A 
HETATM    7  C5  UNL     1      80.053  74.441  98.908  1.00  0.00     0.096 A 
HETATM    8  O1  UNL     1      80.473  75.472  98.213  1.00  0.00    -0.238 OA
BRANCH   7   9
HETATM    9  C6  UNL     1      78.665  73.983  99.174  1.00  0.00     0.196 C 
BRANCH   9  10
HETATM   10  N3  UNL     1      77.916  73.799  97.944  1.00  0.00    -0.345 N 
HETATM   11  C7  UNL     1      77.137  74.691  97.310  1.00  0.00     0.109 A 
HETATM   12  C8  UNL     1      76.593  74.129  96.161  1.00  0.00     0.106 A 
HETATM   13  N4  UNL     1      77.069  72.877  96.125  1.00  0.00    -0.361 N 
HETATM   14  C9  UNL     1      77.866  72.676  97.198  1.00  0.00     0.182 A 
ATOM     15  H4  UNL     1      76.862  72.186  95.404  1.00  0.00     0.166 HD
ENDBRANCH   9  10
ENDBRANCH   7   9
ENDBRANCH   3   4
TORSDOF 3
ENDMDL
MODEL 4
REMARK VINA RESULT: -5.544768445      1.457      1.733
REMARK  3 active torsions:
REMARK  status: ('A' for Active; 'I' for Inactive)
REMARK    1  A    between atoms: C2_3  and  N2_4 
REMARK    2  A    between atoms: C5_7  and  C6_8 
REMARK    3  A    between atoms: C6_8  and  N3_9 
ROOT
HETATM    1  N1  UNL     1      85.010  77.182  99.054  1.00  0.00    -0.195 NA
HETATM    2  C1  UNL     1      84.080  77.021  98.395  1.00  0.00     0.081 C 
HETATM    3  C2  UNL     1      82.918  76.815  97.568  1.00  0.00     0.279 C 
ENDROOT
BRANCH   3   4
HETATM    4  N2  UNL     1      82.063  75.845  98.263  1.00  0.00    -0.251 N 
HETATM    5  C3  UNL     1      82.556  74.740  98.844  1.00  0.00     0.121 A 
HETATM    6  C4  UNL     1      81.472  74.081  99.388  1.00  0.00     0.056 A 
HETATM    7  C5  UNL     1      80.350  74.843  99.098  1.00  0.00     0.096 A 
HETATM    8  O1  UNL     1      80.792  75.878  98.423  1.00  0.00    -0.238 OA
BRANCH   7   9
HETATM    9  C6  UNL     1      78.961  74.500  99.498  1.00  0.00     0.196 C 
BRANCH   9  10
HETATM   10  N3  UNL     1      78.390  73.481  98.636  1.00  0.00    -0.345 N 
HETATM   11  C7  UNL     1      77.677  72.400  98.994  1.00  0.00     0.109 A 
HETATM   12  C8  UNL     1      77.310  71.669  97.871  1.00  0.00     0.106 A 
HETATM   13  N4  UNL     1      77.822  72.341  96.832  1.00  0.00    -0.361 N 
HETATM   14  C9  UNL     1      78.473  73.434  97.291  1.00  0.00     0.182 A 
ATOM     15  H4  UNL     1      77.735  72.072  95.851  1.00  0.00     0.166 HD
ENDBRANCH   9  10
ENDBRANCH   7   9
ENDBRANCH   3   4
TORSDOF 3
ENDMDL
MODEL 5
REMARK VINA RESULT: -5.454361443      1.300      1.813
REMARK  3 active torsions:
REMARK  status: ('A' for Active; 'I' for Inactive)
REMARK    1  A    between atoms: C2_3  and  N2_4 
REMARK    2  A    between atoms: C5_7  and  C6_8 
REMARK    3  A    between atoms: C6_8  and  N3_9 
ROOT
HETATM    1  N1  UNL     1      83.820  77.606  97.186  1.00  0.00    -0.195 NA
HETATM    2  C1  UNL     1      83.080  77.431  98.050  1.00  0.00     0.081 C 
HETATM    3  C2  UNL     1      82.150  77.217  99.131  1.00  0.00     0.279 C 
ENDROOT
BRANCH   3   4
HETATM    4  N2  UNL     1      81.150  76.255  98.652  1.00  0.00    -0.251 N 
HETATM    5  C3  UNL     1      81.461  75.252  97.818  1.00  0.00     0.121 A 
HETATM    6  C4  UNL     1      80.283  74.568  97.591  1.00  0.00     0.056 A 
HETATM    7  C5  UNL     1      79.295  75.213  98.321  1.00  0.00     0.096 A 
HETATM    8  O1  UNL     1      79.898  76.210  98.924  1.00  0.00    -0.238 OA
BRANCH   7   9
HETATM    9  C6  UNL     1      77.866  74.807  98.364  1.00  0.00     0.196 C 
BRANCH   9  10
HETATM   10  N3  UNL     1      77.719  73.363  98.380  1.00  0.00    -0.345 N 
HETATM   11  C7  UNL     1      77.768  72.539  99.439  1.00  0.00     0.109 A 
HETATM   12  C8  UNL     1      77.581  71.222  99.038  1.00  0.00     0.106 A 
HETATM   13  N4  UNL     1      77.419  71.280  97.709  1.00  0.00    -0.361 N 
HETATM   14  C9  UNL     1      77.501  72.570  97.311  1.00  0.00     0.182 A 
ATOM     15  H4  UNL     1      77.259  70.480  97.096  1.00  0.00     0.166 HD
ENDBRANCH   9  10
ENDBRANCH   7   9
ENDBRANCH   3   4
TORSDOF 3
ENDMDL
