MODEL 1
REMARK VINA RESULT: -6.678697420      0.000      0.000
REMARK  5 active torsions:
REMARK  status: ('A' for Active; 'I' for Inactive)
REMARK    1  A    between atoms: C3_3  and  N1_4 
REMARK    2  A    between atoms: C3_3  and  C10_13 
REMARK       I    between atoms: N1_4  and  C4_6 
REMARK    3  A    between atoms: C4_6  and  C5_8 
REMARK    4  A    between atoms: C10_13  and  O2_14 
REMARK    5  A    between atoms: N2_16  and  O3_18 
ROOT
HETATM    1  C1  UNL     1      15.645  17.038  23.144  1.00  0.00     0.015 C 
HETATM    2  C2  UNL     1      16.173  17.216  22.066  1.00  0.00    -0.083 C 
HETATM    3  C3  UNL     1      16.789  17.432  20.745  1.00  0.00     0.240 C 
ENDROOT
BRANCH   3   4
HETATM    4  N1  UNL     1      16.387  16.382  19.815  1.00  0.00    -0.339 N 
HETATM    5  C4  UNL     1      15.524  16.609  18.728  1.00  0.00     0.223 C 
HETATM    6  O1  UNL     1      15.072  17.749  18.532  1.00  0.00    -0.273 OA
ATOM      7  H1  UNL     1      16.748  15.440  19.960  1.00  0.00     0.164 HD
BRANCH   5   8
HETATM    8  C5  UNL     1      15.164  15.503  17.835  1.00  0.00     0.078 C 
HETATM    9  C6  UNL     1      14.914  14.274  18.702  1.00  0.00     0.014 C 
HETATM   10  C7  UNL     1      13.451  14.276  19.027  1.00  0.00     0.001 C 
HETATM   11  C8  UNL     1      12.809  15.323  18.155  1.00  0.00     0.001 C 
HETATM   12  C9  UNL     1      13.850  15.691  17.139  1.00  0.00     0.014 C 
ENDBRANCH   5   8
ENDBRANCH   3   4
BRANCH   3  13
HETATM   13  C10 UNL     1      18.261  17.345  20.867  1.00  0.00     0.171 C 
HETATM   14  N2  UNL     1      19.015  17.044  19.878  1.00  0.00    -0.248 N 
ATOM     15  H2  UNL     1      18.565  16.862  18.981  1.00  0.00     0.196 HD
BRANCH  13  16
HETATM   16  O2  UNL     1      18.835  17.601  22.098  1.00  0.00    -0.346 OA
ATOM     17  H2  UNL     1      19.767  17.788  22.133  1.00  0.00     0.219 HD
ENDBRANCH  13  16
BRANCH  14  18
HETATM   18  O3  UNL     1      20.365  16.950  19.933  1.00  0.00    -0.288 OA
ATOM     19  H3  UNL     1      20.892  16.371  19.396  1.00  0.00     0.244 HD
ENDBRANCH  14  18
ENDBRANCH   3  13
TORSDOF 5
ENDMDL
MODEL 2
REMARK VINA RESULT: -6.427176999      1.082      1.120
REMARK  5 active torsions:
REMARK  status: ('A' for Active; 'I' for Inactive)
REMARK    1  A    between atoms: C3_3  and  N1_4 
REMARK    2  A    between atoms: C3_3  and  C10_13 
REMARK       I    between atoms: N1_4  and  C4_6 
REMARK    3  A    between atoms: C4_6  and  C5_8 
REMARK    4  A    between atoms: C10_13  and  O2_14 
REMARK    5  A    between atoms: N2_16  and  O3_18 
ROOT
HETATM    1  C1  UNL     1      17.056  17.429  22.808  1.00  0.00     0.015 C 
HETATM    2  C2  UNL     1      17.381  17.561  21.646  1.00  0.00    -0.083 C 
HETATM    3  C3  UNL     1      17.751  17.722  20.229  1.00  0.00     0.240 C 
ENDROOT
BRANCH   3   4
HETATM    4  N1  UNL     1      17.164  16.657  19.424  1.00  0.00    -0.339 N 
HETATM    5  C4  UNL     1      16.025  16.841  18.619  1.00  0.00     0.223 C 
HETATM    6  O1  UNL     1      15.478  17.955  18.578  1.00  0.00    -0.273 OA
ATOM      7  H1  UNL     1      17.600  15.735  19.445  1.00  0.00     0.164 HD
BRANCH   5   8
HETATM    8  C5  UNL     1      15.492  15.721  17.836  1.00  0.00     0.078 C 
HETATM    9  C6  UNL     1      15.184  14.587  18.806  1.00  0.00     0.014 C 
HETATM   10  C7  UNL     1      13.756  14.764  19.226  1.00  0.00     0.001 C 
HETATM   11  C8  UNL     1      13.161  15.811  18.321  1.00  0.00     0.001 C 
HETATM   12  C9  UNL     1      14.156  15.999  17.216  1.00  0.00     0.014 C 
ENDBRANCH   5   8
ENDBRANCH   3   4
BRANCH   3  13
HETATM   13  C10 UNL     1      19.218  17.601  20.084  1.00  0.00     0.171 C 
HETATM   14  N2  UNL     1      19.815  16.469  20.077  1.00  0.00    -0.248 N 
ATOM     15  H2  UNL     1      19.241  15.632  20.175  1.00  0.00     0.196 HD
BRANCH  13  16
HETATM   16  O2  UNL     1      19.964  18.756  19.950  1.00  0.00    -0.346 OA
ATOM     17  H2  UNL     1      20.841  18.773  20.315  1.00  0.00     0.219 HD
ENDBRANCH  13  16
BRANCH  14  18
HETATM   18  O3  UNL     1      21.153  16.299  19.948  1.00  0.00    -0.288 OA
ATOM     19  H3  UNL     1      21.714  15.894  20.598  1.00  0.00     0.244 HD
ENDBRANCH  14  18
ENDBRANCH   3  13
TORSDOF 5
ENDMDL
MODEL 3
REMARK VINA RESULT: -6.416149885      2.278      3.107
REMARK  5 active torsions:
REMARK  status: ('A' for Active; 'I' for Inactive)
REMARK    1  A    between atoms: C3_3  and  N1_4 
REMARK    2  A    between atoms: C3_3  and  C10_13 
REMARK       I    between atoms: N1_4  and  C4_6 
REMARK    3  A    between atoms: C4_6  and  C5_8 
REMARK    4  A    between atoms: C10_13  and  O2_14 
REMARK    5  A    between atoms: N2_16  and  O3_18 
ROOT
HETATM    1  C1  UNL     1      13.672  15.693  24.213  1.00  0.00     0.015 C 
HETATM    2  C2  UNL     1      14.277  16.505  23.545  1.00  0.00    -0.083 C 
HETATM    3  C3  UNL     1      14.994  17.488  22.714  1.00  0.00     0.240 C 
ENDROOT
BRANCH   3   4
HETATM    4  N1  UNL     1      15.409  16.885  21.452  1.00  0.00    -0.339 N 
HETATM    5  C4  UNL     1      14.529  16.679  20.374  1.00  0.00     0.223 C 
HETATM    6  O1  UNL     1      13.340  17.019  20.480  1.00  0.00    -0.273 OA
ATOM      7  H1  UNL     1      16.382  16.600  21.347  1.00  0.00     0.164 HD
BRANCH   5   8
HETATM    8  C5  UNL     1      15.020  16.066  19.135  1.00  0.00     0.078 C 
HETATM    9  C6  UNL     1      14.181  16.612  17.987  1.00  0.00     0.014 C 
HETATM   10  C7  UNL     1      14.895  17.827  17.479  1.00  0.00     0.001 C 
HETATM   11  C8  UNL     1      16.254  17.841  18.132  1.00  0.00     0.001 C 
HETATM   12  C9  UNL     1      16.409  16.489  18.762  1.00  0.00     0.014 C 
ENDBRANCH   5   8
ENDBRANCH   3   4
BRANCH   3  13
HETATM   13  C10 UNL     1      16.232  17.911  23.406  1.00  0.00     0.171 C 
HETATM   14  N2  UNL     1      17.391  17.507  23.045  1.00  0.00    -0.248 N 
ATOM     15  H2  UNL     1      17.443  16.871  22.249  1.00  0.00     0.196 HD
BRANCH  13  16
HETATM   16  O2  UNL     1      16.124  18.775  24.479  1.00  0.00    -0.346 OA
ATOM     17  H2  UNL     1      15.325  19.282  24.572  1.00  0.00     0.219 HD
ENDBRANCH  13  16
BRANCH  14  18
HETATM   18  O3  UNL     1      18.555  17.860  23.641  1.00  0.00    -0.288 OA
ATOM     19  H3  UNL     1      19.194  17.251  23.991  1.00  0.00     0.244 HD
ENDBRANCH  14  18
ENDBRANCH   3  13
TORSDOF 5
ENDMDL
MODEL 4
REMARK VINA RESULT: -6.293466516      3.202      4.090
REMARK  5 active torsions:
REMARK  status: ('A' for Active; 'I' for Inactive)
REMARK    1  A    between atoms: C3_3  and  N1_4 
REMARK    2  A    between atoms: C3_3  and  C10_13 
REMARK       I    between atoms: N1_4  and  C4_6 
REMARK    3  A    between atoms: C4_6  and  C5_8 
REMARK    4  A    between atoms: C10_13  and  O2_14 
REMARK    5  A    between atoms: N2_16  and  O3_18 
ROOT
HETATM    1  C1  UNL     1      18.297  17.455  23.627  1.00  0.00     0.015 C 
HETATM    2  C2  UNL     1      17.103  17.277  23.501  1.00  0.00    -0.083 C 
HETATM    3  C3  UNL     1      15.658  17.042  23.331  1.00  0.00     0.240 C 
ENDROOT
BRANCH   3   4
HETATM    4  N1  UNL     1      15.273  17.219  21.935  1.00  0.00    -0.339 N 
HETATM    5  C4  UNL     1      14.154  16.589  21.361  1.00  0.00     0.223 C 
HETATM    6  O1  UNL     1      13.447  15.843  22.058  1.00  0.00    -0.273 OA
ATOM      7  H1  UNL     1      15.842  17.829  21.348  1.00  0.00     0.164 HD
BRANCH   5   8
HETATM    8  C5  UNL     1      13.830  16.817  19.949  1.00  0.00     0.078 C 
HETATM    9  C6  UNL     1      15.101  17.289  19.255  1.00  0.00     0.014 C 
HETATM   10  C7  UNL     1      15.782  16.060  18.735  1.00  0.00     0.001 C 
HETATM   11  C8  UNL     1      14.806  14.923  18.882  1.00  0.00     0.001 C 
HETATM   12  C9  UNL     1      13.488  15.564  19.199  1.00  0.00     0.014 C 
ENDBRANCH   5   8
ENDBRANCH   3   4
BRANCH   3  13
HETATM   13  C10 UNL     1      14.899  18.046  24.109  1.00  0.00     0.171 C 
HETATM   14  N2  UNL     1      15.424  19.139  24.514  1.00  0.00    -0.248 N 
ATOM     15  H2  UNL     1      16.403  19.307  24.282  1.00  0.00     0.196 HD
BRANCH  13  16
HETATM   16  O2  UNL     1      13.574  17.785  24.402  1.00  0.00    -0.346 OA
ATOM     17  H2  UNL     1      12.917  18.413  24.123  1.00  0.00     0.219 HD
ENDBRANCH  13  16
BRANCH  14  18
HETATM   18  O3  UNL     1      14.777  20.092  25.228  1.00  0.00    -0.288 OA
ATOM     19  H3  UNL     1      14.520  20.007  26.139  1.00  0.00     0.244 HD
ENDBRANCH  14  18
ENDBRANCH   3  13
TORSDOF 5
ENDMDL
MODEL 5
REMARK VINA RESULT: -6.153639224      1.625      2.121
REMARK  5 active torsions:
REMARK  status: ('A' for Active; 'I' for Inactive)
REMARK    1  A    between atoms: C3_3  and  N1_4 
REMARK    2  A    between atoms: C3_3  and  C10_13 
REMARK       I    between atoms: N1_4  and  C4_6 
REMARK    3  A    between atoms: C4_6  and  C5_8 
REMARK    4  A    between atoms: C10_13  and  O2_14 
REMARK    5  A    between atoms: N2_16  and  O3_18 
ROOT
HETATM    1  C1  UNL     1      13.596  16.269  23.599  1.00  0.00     0.015 C 
HETATM    2  C2  UNL     1      14.406  16.706  22.808  1.00  0.00    -0.083 C 
HETATM    3  C3  UNL     1      15.371  17.237  21.828  1.00  0.00     0.240 C 
ENDROOT
BRANCH   3   4
HETATM    4  N1  UNL     1      15.503  16.326  20.697  1.00  0.00    -0.339 N 
HETATM    5  C4  UNL     1      14.892  16.555  19.451  1.00  0.00     0.223 C 
HETATM    6  O1  UNL     1      14.202  17.574  19.285  1.00  0.00    -0.273 OA
ATOM      7  H1  UNL     1      16.066  15.484  20.814  1.00  0.00     0.164 HD
BRANCH   5   8
HETATM    8  C5  UNL     1      15.071  15.592  18.359  1.00  0.00     0.078 C 
HETATM    9  C6  UNL     1      14.826  14.200  18.928  1.00  0.00     0.014 C 
HETATM   10  C7  UNL     1      13.370  13.911  18.729  1.00  0.00     0.001 C 
HETATM   11  C8  UNL     1      12.829  14.989  17.826  1.00  0.00     0.001 C 
HETATM   12  C9  UNL     1      14.033  15.699  17.283  1.00  0.00     0.014 C 
ENDBRANCH   5   8
ENDBRANCH   3   4
BRANCH   3  13
HETATM   13  C10 UNL     1      16.709  17.330  22.454  1.00  0.00     0.171 C 
HETATM   14  N2  UNL     1      16.881  17.771  23.642  1.00  0.00    -0.248 N 
ATOM     15  H2  UNL     1      16.053  18.064  24.161  1.00  0.00     0.196 HD
BRANCH  13  16
HETATM   16  O2  UNL     1      17.807  16.921  21.721  1.00  0.00    -0.346 OA
ATOM     17  H2  UNL     1      18.230  16.103  21.958  1.00  0.00     0.219 HD
ENDBRANCH  13  16
BRANCH  14  18
HETATM   18  O3  UNL     1      18.081  17.878  24.263  1.00  0.00    -0.288 OA
ATOM     19  H3  UNL     1      18.230  18.337  25.080  1.00  0.00     0.244 HD
ENDBRANCH  14  18
ENDBRANCH   3  13
TORSDOF 5
ENDMDL
