MODEL 1
REMARK VINA RESULT: -8.633567739      0.000      0.000
REMARK  6 active torsions:
REMARK  status: ('A' for Active; 'I' for Inactive)
REMARK    1  A    between atoms: C1_4  and  O1_5 
REMARK    2  A    between atoms: C1_4  and  C2_7 
REMARK    3  A    between atoms: C2_7  and  C3_8 
REMARK    4  A    between atoms: C6_13  and  C7_14 
REMARK    5  A    between atoms: N4_18  and  C9_19 
REMARK    6  A    between atoms: N5_29  and  O3_30 
ROOT
HETATM    1  C3  UNL     1      19.271   2.240   5.367  1.00  0.00     0.004 C 
HETATM    2  C4  UNL     1      20.592   2.939   5.474  1.00  0.00     0.064 C 
HETATM    3  C5  UNL     1      20.280   4.347   5.139  1.00  0.00     0.035 A 
HETATM    4  N2  UNL     1      21.027   5.381   4.661  1.00  0.00    -0.356 N 
ATOM      5  H2  UNL     1      22.015   5.218   4.469  1.00  0.00     0.166 HD
HETATM    6  C6  UNL     1      20.524   6.604   4.430  1.00  0.00     0.063 A 
HETATM    7  C17 UNL     1      19.185   6.771   4.706  1.00  0.00     0.153 A 
HETATM    8  N5  UNL     1      18.422   5.775   5.176  1.00  0.00    -0.236 N 
HETATM    9  C18 UNL     1      18.953   4.558   5.398  1.00  0.00     0.062 A 
HETATM   10  C19 UNL     1      18.317   3.291   5.910  1.00  0.00     0.067 C 
ENDROOT
BRANCH   6  11
HETATM   11  C7  UNL     1      21.350   7.685   3.920  1.00  0.00     0.026 A 
HETATM   12  C8  UNL     1      22.186   8.515   4.634  1.00  0.00     0.122 A 
HETATM   13  N3  UNL     1      22.753   9.369   3.762  1.00  0.00    -0.307 N 
HETATM   14  N4  UNL     1      22.343   9.145   2.552  1.00  0.00    -0.273 N 
ATOM     15  H3  UNL     1      23.419  10.097   4.019  1.00  0.00     0.186 HD
HETATM   16  C16 UNL     1      21.478   8.117   2.606  1.00  0.00     0.128 A 
BRANCH  14  17
HETATM   17  C9  UNL     1      22.684   9.823   1.274  1.00  0.00     0.243 C 
HETATM   18  C10 UNL     1      21.586  10.822   1.146  1.00  0.00     0.056 C 
HETATM   19  C11 UNL     1      21.595  11.645  -0.183  1.00  0.00     0.004 C 
HETATM   20  C12 UNL     1      22.934  11.576  -0.599  1.00  0.00     0.000 C 
HETATM   21  C13 UNL     1      24.080  11.828  -1.374  1.00  0.00     0.002 C 
HETATM   22  C14 UNL     1      25.172  10.934  -0.700  1.00  0.00     0.026 C 
HETATM   23  C15 UNL     1      24.906  10.606   0.735  1.00  0.00     0.170 C 
HETATM   24  O2  UNL     1      23.953   9.970   1.287  1.00  0.00    -0.365 OA
ENDBRANCH  14  17
ENDBRANCH   6  11
BRANCH   8  25
HETATM   25  O3  UNL     1      17.081   5.970   5.444  1.00  0.00    -0.283 OA
ATOM     26  H3  UNL     1      16.417   5.785   4.791  1.00  0.00     0.245 HD
ENDBRANCH   8  25
BRANCH   1  27
HETATM   27  C2  UNL     1      19.206   1.042   6.299  1.00  0.00     0.088 C 
BRANCH  27  28
HETATM   28  C1  UNL     1      19.421   1.530   7.677  1.00  0.00     0.109 C 
HETATM   29  N1  UNL     1      20.601   1.677   8.146  1.00  0.00    -0.384 N 
ATOM     30  H12 UNL     1      20.750   2.014   9.097  1.00  0.00     0.157 HD
ATOM     31  H11 UNL     1      21.388   1.448   7.540  1.00  0.00     0.157 HD
BRANCH  28  32
HETATM   32  O1  UNL     1      18.339   1.845   8.510  1.00  0.00    -0.350 OA
ATOM     33  H1  UNL     1      17.526   1.369   8.384  1.00  0.00     0.219 HD
ENDBRANCH  28  32
ENDBRANCH  27  28
ENDBRANCH   1  27
TORSDOF 6
ENDMDL
MODEL 2
REMARK VINA RESULT: -8.476618223      1.358      1.873
REMARK  6 active torsions:
REMARK  status: ('A' for Active; 'I' for Inactive)
REMARK    1  A    between atoms: C1_4  and  O1_5 
REMARK    2  A    between atoms: C1_4  and  C2_7 
REMARK    3  A    between atoms: C2_7  and  C3_8 
REMARK    4  A    between atoms: C6_13  and  C7_14 
REMARK    5  A    between atoms: N4_18  and  C9_19 
REMARK    6  A    between atoms: N5_29  and  O3_30 
ROOT
HETATM    1  C3  UNL     1      19.434   2.044   5.619  1.00  0.00     0.004 C 
HETATM    2  C4  UNL     1      20.562   2.917   5.161  1.00  0.00     0.064 C 
HETATM    3  C5  UNL     1      19.895   4.171   4.741  1.00  0.00     0.035 A 
HETATM    4  N2  UNL     1      20.242   5.172   3.885  1.00  0.00    -0.356 N 
ATOM      5  H2  UNL     1      21.134   5.105   3.395  1.00  0.00     0.166 HD
HETATM    6  C6  UNL     1      19.466   6.243   3.657  1.00  0.00     0.063 A 
HETATM    7  C17 UNL     1      18.274   6.286   4.343  1.00  0.00     0.153 A 
HETATM    8  N5  UNL     1      17.901   5.319   5.191  1.00  0.00    -0.236 N 
HETATM    9  C18 UNL     1      18.699   4.255   5.402  1.00  0.00     0.062 A 
HETATM   10  C19 UNL     1      18.511   3.049   6.287  1.00  0.00     0.067 C 
ENDROOT
BRANCH   6  11
HETATM   11  C7  UNL     1      19.868   7.294   2.737  1.00  0.00     0.026 A 
HETATM   12  C8  UNL     1      19.059   8.199   2.086  1.00  0.00     0.122 A 
HETATM   13  N3  UNL     1      19.851   8.988   1.336  1.00  0.00    -0.307 N 
HETATM   14  N4  UNL     1      21.098   8.654   1.461  1.00  0.00    -0.273 N 
ATOM     15  H3  UNL     1      19.514   9.748   0.747  1.00  0.00     0.186 HD
HETATM   16  C16 UNL     1      21.151   7.616   2.314  1.00  0.00     0.128 A 
BRANCH  14  17
HETATM   17  C9  UNL     1      22.319   9.226   0.835  1.00  0.00     0.243 C 
HETATM   18  C10 UNL     1      22.724   8.146  -0.107  1.00  0.00     0.056 C 
HETATM   19  C11 UNL     1      24.071   8.399  -0.860  1.00  0.00     0.004 C 
HETATM   20  C12 UNL     1      24.204   9.796  -0.827  1.00  0.00     0.000 C 
HETATM   21  C13 UNL     1      24.746  11.067  -1.088  1.00  0.00     0.002 C 
HETATM   22  C14 UNL     1      23.814  12.027  -0.278  1.00  0.00     0.026 C 
HETATM   23  C15 UNL     1      22.446  11.486  -0.014  1.00  0.00     0.170 C 
HETATM   24  O2  UNL     1      22.060  10.461   0.633  1.00  0.00    -0.365 OA
ENDBRANCH  14  17
ENDBRANCH   6  11
BRANCH   8  25
HETATM   25  O3  UNL     1      16.698   5.386   5.868  1.00  0.00    -0.283 OA
ATOM     26  H3  UNL     1      16.520   4.820   6.609  1.00  0.00     0.245 HD
ENDBRANCH   8  25
BRANCH   1  27
HETATM   27  C2  UNL     1      19.893   1.068   6.688  1.00  0.00     0.088 C 
BRANCH  27  28
HETATM   28  C1  UNL     1      19.823   1.760   7.991  1.00  0.00     0.109 C 
HETATM   29  N1  UNL     1      20.858   2.309   8.501  1.00  0.00    -0.384 N 
ATOM     30  H12 UNL     1      20.809   2.788   9.401  1.00  0.00     0.157 HD
ATOM     31  H11 UNL     1      21.734   2.255   7.981  1.00  0.00     0.157 HD
BRANCH  28  32
HETATM   32  O1  UNL     1      18.620   1.835   8.706  1.00  0.00    -0.350 OA
ATOM     33  H1  UNL     1      17.901   2.322   8.320  1.00  0.00     0.219 HD
ENDBRANCH  28  32
ENDBRANCH  27  28
ENDBRANCH   1  27
TORSDOF 6
ENDMDL
MODEL 3
REMARK VINA RESULT: -8.448021105      1.752      2.337
REMARK  6 active torsions:
REMARK  status: ('A' for Active; 'I' for Inactive)
REMARK    1  A    between atoms: C1_4  and  O1_5 
REMARK    2  A    between atoms: C1_4  and  C2_7 
REMARK    3  A    between atoms: C2_7  and  C3_8 
REMARK    4  A    between atoms: C6_13  and  C7_14 
REMARK    5  A    between atoms: N4_18  and  C9_19 
REMARK    6  A    between atoms: N5_29  and  O3_30 
ROOT
HETATM    1  C3  UNL     1      18.518   2.569   6.429  1.00  0.00     0.004 C 
HETATM    2  C4  UNL     1      19.787   3.026   5.778  1.00  0.00     0.064 C 
HETATM    3  C5  UNL     1      19.378   4.213   4.992  1.00  0.00     0.035 A 
HETATM    4  N2  UNL     1      19.899   4.832   3.896  1.00  0.00    -0.356 N 
ATOM      5  H2  UNL     1      20.745   4.447   3.477  1.00  0.00     0.166 HD
HETATM    6  C6  UNL     1      19.351   5.925   3.342  1.00  0.00     0.063 A 
HETATM    7  C17 UNL     1      18.211   6.405   3.946  1.00  0.00     0.153 A 
HETATM    8  N5  UNL     1      17.672   5.820   5.024  1.00  0.00    -0.236 N 
HETATM    9  C18 UNL     1      18.243   4.724   5.560  1.00  0.00     0.062 A 
HETATM   10  C19 UNL     1      17.837   3.889   6.747  1.00  0.00     0.067 C 
ENDROOT
BRANCH   6  11
HETATM   11  C7  UNL     1      19.934   6.561   2.173  1.00  0.00     0.026 A 
HETATM   12  C8  UNL     1      19.508   6.473   0.866  1.00  0.00     0.122 A 
HETATM   13  N3  UNL     1      20.339   7.221   0.116  1.00  0.00    -0.307 N 
HETATM   14  N4  UNL     1      21.257   7.776   0.845  1.00  0.00    -0.273 N 
ATOM     15  H3  UNL     1      20.257   7.335  -0.894  1.00  0.00     0.186 HD
HETATM   16  C16 UNL     1      21.043   7.395   2.116  1.00  0.00     0.128 A 
BRANCH  14  17
HETATM   17  C9  UNL     1      22.380   8.673   0.466  1.00  0.00     0.243 C 
HETATM   18  C10 UNL     1      23.067   7.885  -0.595  1.00  0.00     0.056 C 
HETATM   19  C11 UNL     1      24.388   8.522  -1.138  1.00  0.00     0.004 C 
HETATM   20  C12 UNL     1      24.232   9.887  -0.853  1.00  0.00     0.000 C 
HETATM   21  C13 UNL     1      24.522  11.263  -0.831  1.00  0.00     0.002 C 
HETATM   22  C14 UNL     1      23.355  11.862   0.021  1.00  0.00     0.026 C 
HETATM   23  C15 UNL     1      22.109  11.035   0.034  1.00  0.00     0.170 C 
HETATM   24  O2  UNL     1      21.892   9.853   0.450  1.00  0.00    -0.365 OA
ENDBRANCH  14  17
ENDBRANCH   6  11
BRANCH   8  25
HETATM   25  O3  UNL     1      16.527   6.322   5.611  1.00  0.00    -0.283 OA
ATOM     26  H3  UNL     1      16.550   7.115   6.134  1.00  0.00     0.245 HD
ENDBRANCH   8  25
BRANCH   1  27
HETATM   27  C2  UNL     1      18.797   1.872   7.749  1.00  0.00     0.088 C 
BRANCH  27  28
HETATM   28  C1  UNL     1      20.241   1.558   7.797  1.00  0.00     0.109 C 
HETATM   29  N1  UNL     1      20.722   0.574   7.141  1.00  0.00    -0.384 N 
ATOM     30  H12 UNL     1      21.719   0.357   7.174  1.00  0.00     0.157 HD
ATOM     31  H11 UNL     1      20.080   0.011   6.583  1.00  0.00     0.157 HD
BRANCH  28  32
HETATM   32  O1  UNL     1      21.123   2.332   8.564  1.00  0.00    -0.350 OA
ATOM     33  H1  UNL     1      21.113   3.274   8.441  1.00  0.00     0.219 HD
ENDBRANCH  28  32
ENDBRANCH  27  28
ENDBRANCH   1  27
TORSDOF 6
ENDMDL
MODEL 4
REMARK VINA RESULT: -8.365091891      1.682      2.192
REMARK  6 active torsions:
REMARK  status: ('A' for Active; 'I' for Inactive)
REMARK    1  A    between atoms: C1_4  and  O1_5 
REMARK    2  A    between atoms: C1_4  and  C2_7 
REMARK    3  A    between atoms: C2_7  and  C3_8 
REMARK    4  A    between atoms: C6_13  and  C7_14 
REMARK    5  A    between atoms: N4_18  and  C9_19 
REMARK    6  A    between atoms: N5_29  and  O3_30 
ROOT
HETATM    1  C3  UNL     1      19.246   2.499   5.955  1.00  0.00     0.004 C 
HETATM    2  C4  UNL     1      20.405   3.276   5.408  1.00  0.00     0.064 C 
HETATM    3  C5  UNL     1      19.782   4.497   4.845  1.00  0.00     0.035 A 
HETATM    4  N2  UNL     1      20.165   5.382   3.884  1.00  0.00    -0.356 N 
ATOM      5  H2  UNL     1      21.055   5.230   3.409  1.00  0.00     0.166 HD
HETATM    6  C6  UNL     1      19.427   6.446   3.531  1.00  0.00     0.063 A 
HETATM    7  C17 UNL     1      18.235   6.607   4.201  1.00  0.00     0.153 A 
HETATM    8  N5  UNL     1      17.828   5.755   5.151  1.00  0.00    -0.236 N 
HETATM    9  C18 UNL     1      18.589   4.695   5.485  1.00  0.00     0.062 A 
HETATM   10  C19 UNL     1      18.358   3.604   6.499  1.00  0.00     0.067 C 
ENDROOT
BRANCH   6  11
HETATM   11  C7  UNL     1      19.867   7.372   2.500  1.00  0.00     0.026 A 
HETATM   12  C8  UNL     1      19.088   8.049   1.589  1.00  0.00     0.122 A 
HETATM   13  N3  UNL     1      19.909   8.795   0.826  1.00  0.00    -0.307 N 
HETATM   14  N4  UNL     1      21.147   8.644   1.184  1.00  0.00    -0.273 N 
ATOM     15  H3  UNL     1      19.599   9.400   0.067  1.00  0.00     0.186 HD
HETATM   16  C16 UNL     1      21.164   7.776   2.210  1.00  0.00     0.128 A 
BRANCH  14  17
HETATM   17  C9  UNL     1      22.391   9.251   0.642  1.00  0.00     0.243 C 
HETATM   18  C10 UNL     1      22.854   8.212  -0.319  1.00  0.00     0.056 C 
HETATM   19  C11 UNL     1      24.234   8.506  -0.994  1.00  0.00     0.004 C 
HETATM   20  C12 UNL     1      24.350   9.902  -0.902  1.00  0.00     0.000 C 
HETATM   21  C13 UNL     1      24.889  11.187  -1.086  1.00  0.00     0.002 C 
HETATM   22  C14 UNL     1      23.907  12.106  -0.289  1.00  0.00     0.026 C 
HETATM   23  C15 UNL     1      22.534  11.542  -0.114  1.00  0.00     0.170 C 
HETATM   24  O2  UNL     1      22.128  10.490   0.474  1.00  0.00    -0.365 OA
ENDBRANCH  14  17
ENDBRANCH   6  11
BRANCH   8  25
HETATM   25  O3  UNL     1      16.627   5.939   5.808  1.00  0.00    -0.283 OA
ATOM     26  H3  UNL     1      15.922   6.438   5.412  1.00  0.00     0.245 HD
ENDBRANCH   8  25
BRANCH   1  27
HETATM   27  C2  UNL     1      19.670   1.635   7.130  1.00  0.00     0.088 C 
BRANCH  27  28
HETATM   28  C1  UNL     1      19.986   0.289   6.610  1.00  0.00     0.109 C 
HETATM   29  N1  UNL     1      19.536  -0.102   5.480  1.00  0.00    -0.384 N 
ATOM     30  H12 UNL     1      19.754  -1.031   5.120  1.00  0.00     0.157 HD
ATOM     31  H11 UNL     1      18.952   0.544   4.948  1.00  0.00     0.157 HD
BRANCH  28  32
HETATM   32  O1  UNL     1      20.787  -0.599   7.341  1.00  0.00    -0.350 OA
ATOM     33  H1  UNL     1      20.353  -1.240   7.893  1.00  0.00     0.219 HD
ENDBRANCH  28  32
ENDBRANCH  27  28
ENDBRANCH   1  27
TORSDOF 6
ENDMDL
MODEL 5
REMARK VINA RESULT: -7.885463637      1.484      1.692
REMARK  6 active torsions:
REMARK  status: ('A' for Active; 'I' for Inactive)
REMARK    1  A    between atoms: C1_4  and  O1_5 
REMARK    2  A    between atoms: C1_4  and  C2_7 
REMARK    3  A    between atoms: C2_7  and  C3_8 
REMARK    4  A    between atoms: C6_13  and  C7_14 
REMARK    5  A    between atoms: N4_18  and  C9_19 
REMARK    6  A    between atoms: N5_29  and  O3_30 
ROOT
HETATM    1  C3  UNL     1      18.683   2.903   6.139  1.00  0.00     0.004 C 
HETATM    2  C4  UNL     1      20.070   3.297   5.733  1.00  0.00     0.064 C 
HETATM    3  C5  UNL     1      19.862   4.436   4.809  1.00  0.00     0.035 A 
HETATM    4  N2  UNL     1      20.611   4.973   3.806  1.00  0.00    -0.356 N 
ATOM      5  H2  UNL     1      21.514   4.549   3.593  1.00  0.00     0.166 HD
HETATM    6  C6  UNL     1      20.218   6.035   3.085  1.00  0.00     0.063 A 
HETATM    7  C17 UNL     1      18.993   6.570   3.413  1.00  0.00     0.153 A 
HETATM    8  N5  UNL     1      18.230   6.065   4.392  1.00  0.00    -0.236 N 
HETATM    9  C18 UNL     1      18.650   5.000   5.100  1.00  0.00     0.062 A 
HETATM   10  C19 UNL     1      17.989   4.252   6.229  1.00  0.00     0.067 C 
ENDROOT
BRANCH   6  11
HETATM   11  C7  UNL     1      21.043   6.583   2.022  1.00  0.00     0.026 A 
HETATM   12  C8  UNL     1      21.775   5.892   1.082  1.00  0.00     0.122 A 
HETATM   13  N3  UNL     1      22.385   6.797   0.295  1.00  0.00    -0.307 N 
HETATM   14  N4  UNL     1      22.096   8.008   0.661  1.00  0.00    -0.273 N 
ATOM     15  H3  UNL     1      22.994   6.562  -0.488  1.00  0.00     0.186 HD
HETATM   16  C16 UNL     1      21.273   7.919   1.721  1.00  0.00     0.128 A 
BRANCH  14  17
HETATM   17  C9  UNL     1      22.528   9.316   0.103  1.00  0.00     0.243 C 
HETATM   18  C10 UNL     1      21.474  10.238   0.612  1.00  0.00     0.056 C 
HETATM   19  C11 UNL     1      21.582  11.711   0.099  1.00  0.00     0.004 C 
HETATM   20  C12 UNL     1      22.938  11.837  -0.242  1.00  0.00     0.000 C 
HETATM   21  C13 UNL     1      24.132  12.449  -0.663  1.00  0.00     0.002 C 
HETATM   22  C14 UNL     1      25.155  11.266  -0.681  1.00  0.00     0.026 C 
HETATM   23  C15 UNL     1      24.802  10.127   0.221  1.00  0.00     0.170 C 
HETATM   24  O2  UNL     1      23.799   9.345   0.230  1.00  0.00    -0.365 OA
ENDBRANCH  14  17
ENDBRANCH   6  11
BRANCH   8  25
HETATM   25  O3  UNL     1      17.004   6.622   4.701  1.00  0.00    -0.283 OA
ATOM     26  H3  UNL     1      16.200   6.127   4.595  1.00  0.00     0.245 HD
ENDBRANCH   8  25
BRANCH   1  27
HETATM   27  C2  UNL     1      18.669   2.291   7.529  1.00  0.00     0.088 C 
BRANCH  27  28
HETATM   28  C1  UNL     1      20.047   1.858   7.844  1.00  0.00     0.109 C 
HETATM   29  N1  UNL     1      20.555   0.826   7.287  1.00  0.00    -0.384 N 
ATOM     30  H12 UNL     1      21.506   0.527   7.505  1.00  0.00     0.157 HD
ATOM     31  H11 UNL     1      19.982   0.312   6.618  1.00  0.00     0.157 HD
BRANCH  28  32
HETATM   32  O1  UNL     1      20.834   2.564   8.764  1.00  0.00    -0.350 OA
ATOM     33  H1  UNL     1      20.610   3.471   8.939  1.00  0.00     0.219 HD
ENDBRANCH  28  32
ENDBRANCH  27  28
ENDBRANCH   1  27
TORSDOF 6
ENDMDL
