MODEL 1
REMARK VINA RESULT: -10.941213636      0.000      0.000
REMARK  5 active torsions:
REMARK  status: ('A' for Active; 'I' for Inactive)
REMARK    1  A    between atoms: C5_5  and  C6_6 
REMARK    2  A    between atoms: C6_6  and  C7_7 
REMARK    3  A    between atoms: C7_7  and  C8_8 
REMARK    4  A    between atoms: C8_8  and  N1_9 
REMARK    5  A    between atoms: N1_9  and  C9_11 
ROOT
HETATM    1  C8  UNL     1      20.992  31.876   4.669  1.00  0.00     0.120 C 
ENDROOT
BRANCH   1   2
HETATM    2  C7  UNL     1      21.469  33.244   4.297  1.00  0.00     0.024 C 
BRANCH   2   3
HETATM    3  C6  UNL     1      22.964  33.431   4.491  1.00  0.00     0.041 C 
BRANCH   3   4
HETATM    4  C5  UNL     1      23.369  33.424   5.912  1.00  0.00    -0.047 A 
HETATM    5  C4  UNL     1      24.365  32.590   6.424  1.00  0.00    -0.020 A 
HETATM    6  C3  UNL     1      25.039  31.761   5.582  1.00  0.00     0.013 A 
HETATM    7  C22 UNL     1      24.681  32.605   7.787  1.00  0.00    -0.025 A 
HETATM    8  C2  UNL     1      26.037  30.942   6.105  1.00  0.00     0.001 A 
HETATM    9  C1  UNL     1      26.354  30.952   7.456  1.00  0.00     0.001 A 
HETATM   10  C23 UNL     1      25.662  31.796   8.288  1.00  0.00     0.012 A 
HETATM   11  C21 UNL     1      24.023  33.441   8.651  1.00  0.00     0.012 A 
HETATM   12  C20 UNL     1      23.053  34.255   8.147  1.00  0.00     0.001 A 
HETATM   13  C19 UNL     1      22.729  34.251   6.807  1.00  0.00     0.008 A 
ENDBRANCH   3   4
ENDBRANCH   2   3
ENDBRANCH   1   2
BRANCH   1  14
HETATM   14  N1  UNL     1      20.136  31.825   5.831  1.00  0.00    -0.389 N 
ATOM     15  H1  UNL     1      19.764  32.711   6.174  1.00  0.00     0.159 HD
BRANCH  14  16
HETATM   16  C9  UNL     1      19.773  30.669   6.524  1.00  0.00     0.039 A 
HETATM   17  C10 UNL     1      18.443  30.329   6.612  1.00  0.00     0.030 A 
HETATM   18  C11 UNL     1      18.059  29.158   7.283  1.00  0.00     0.003 A 
HETATM   19  C12 UNL     1      18.984  28.330   7.858  1.00  0.00     0.012 A 
HETATM   20  C13 UNL     1      20.313  28.671   7.768  1.00  0.00    -0.024 A 
HETATM   21  C14 UNL     1      21.220  27.826   8.355  1.00  0.00     0.012 A 
HETATM   22  C18 UNL     1      20.692  29.829   7.107  1.00  0.00     0.001 A 
HETATM   23  C15 UNL     1      22.563  28.113   8.302  1.00  0.00     0.001 A 
HETATM   24  C16 UNL     1      22.990  29.242   7.663  1.00  0.00     0.001 A 
HETATM   25  C17 UNL     1      22.045  30.084   7.075  1.00  0.00     0.014 A 
ENDBRANCH  14  16
ENDBRANCH   1  14
TORSDOF 5
ENDMDL
MODEL 2
REMARK VINA RESULT: -10.846496719      1.000      5.218
REMARK  5 active torsions:
REMARK  status: ('A' for Active; 'I' for Inactive)
REMARK    1  A    between atoms: C5_5  and  C6_6 
REMARK    2  A    between atoms: C6_6  and  C7_7 
REMARK    3  A    between atoms: C7_7  and  C8_8 
REMARK    4  A    between atoms: C8_8  and  N1_9 
REMARK    5  A    between atoms: N1_9  and  C9_11 
ROOT
HETATM    1  C8  UNL     1      21.398  33.848   5.055  1.00  0.00     0.120 C 
ENDROOT
BRANCH   1   2
HETATM    2  C7  UNL     1      20.700  32.851   5.926  1.00  0.00     0.024 C 
BRANCH   2   3
HETATM    3  C6  UNL     1      20.461  31.518   5.238  1.00  0.00     0.041 C 
BRANCH   3   4
HETATM    4  C5  UNL     1      19.966  30.472   6.157  1.00  0.00    -0.047 A 
HETATM    5  C4  UNL     1      20.807  29.607   6.861  1.00  0.00    -0.020 A 
HETATM    6  C3  UNL     1      22.155  29.742   6.743  1.00  0.00     0.013 A 
HETATM    7  C22 UNL     1      20.278  28.613   7.692  1.00  0.00    -0.025 A 
HETATM    8  C2  UNL     1      22.980  28.879   7.460  1.00  0.00     0.001 A 
HETATM    9  C1  UNL     1      22.461  27.891   8.284  1.00  0.00     0.001 A 
HETATM   10  C23 UNL     1      21.098  27.772   8.390  1.00  0.00     0.012 A 
HETATM   11  C21 UNL     1      18.922  28.467   7.836  1.00  0.00     0.012 A 
HETATM   12  C20 UNL     1      18.106  29.314   7.149  1.00  0.00     0.001 A 
HETATM   13  C19 UNL     1      18.612  30.298   6.325  1.00  0.00     0.008 A 
ENDBRANCH   3   4
ENDBRANCH   2   3
ENDBRANCH   1   2
BRANCH   1  14
HETATM   14  N1  UNL     1      22.671  34.306   5.557  1.00  0.00    -0.389 N 
ATOM     15  H1  UNL     1      23.026  35.189   5.189  1.00  0.00     0.159 HD
BRANCH  14  16
HETATM   16  C9  UNL     1      23.459  33.646   6.502  1.00  0.00     0.039 A 
HETATM   17  C10 UNL     1      23.372  34.017   7.824  1.00  0.00     0.030 A 
HETATM   18  C11 UNL     1      24.136  33.348   8.793  1.00  0.00     0.003 A 
HETATM   19  C12 UNL     1      24.976  32.323   8.456  1.00  0.00     0.012 A 
HETATM   20  C13 UNL     1      25.061  31.954   7.133  1.00  0.00    -0.024 A 
HETATM   21  C14 UNL     1      25.913  30.925   6.821  1.00  0.00     0.012 A 
HETATM   22  C18 UNL     1      24.308  32.615   6.176  1.00  0.00     0.001 A 
HETATM   23  C15 UNL     1      26.044  30.511   5.517  1.00  0.00     0.001 A 
HETATM   24  C16 UNL     1      25.323  31.129   4.535  1.00  0.00     0.001 A 
HETATM   25  C17 UNL     1      24.465  32.174   4.881  1.00  0.00     0.014 A 
ENDBRANCH  14  16
ENDBRANCH   1  14
TORSDOF 5
ENDMDL
MODEL 3
REMARK VINA RESULT: -10.718911725      0.766      2.107
REMARK  5 active torsions:
REMARK  status: ('A' for Active; 'I' for Inactive)
REMARK    1  A    between atoms: C5_5  and  C6_6 
REMARK    2  A    between atoms: C6_6  and  C7_7 
REMARK    3  A    between atoms: C7_7  and  C8_8 
REMARK    4  A    between atoms: C8_8  and  N1_9 
REMARK    5  A    between atoms: N1_9  and  C9_11 
ROOT
HETATM    1  C8  UNL     1      20.785  31.835   3.874  1.00  0.00     0.120 C 
ENDROOT
BRANCH   1   2
HETATM    2  C7  UNL     1      22.074  32.318   3.287  1.00  0.00     0.024 C 
BRANCH   2   3
HETATM    3  C6  UNL     1      22.860  33.217   4.225  1.00  0.00     0.041 C 
BRANCH   3   4
HETATM    4  C5  UNL     1      23.878  32.487   5.010  1.00  0.00    -0.047 A 
HETATM    5  C4  UNL     1      24.103  32.707   6.370  1.00  0.00    -0.020 A 
HETATM    6  C3  UNL     1      23.329  33.605   7.039  1.00  0.00     0.013 A 
HETATM    7  C22 UNL     1      25.105  32.009   7.052  1.00  0.00    -0.025 A 
HETATM    8  C2  UNL     1      23.559  33.806   8.398  1.00  0.00     0.001 A 
HETATM    9  C1  UNL     1      24.552  33.117   9.079  1.00  0.00     0.001 A 
HETATM   10  C23 UNL     1      25.320  32.215   8.386  1.00  0.00     0.012 A 
HETATM   11  C21 UNL     1      25.887  31.090   6.402  1.00  0.00     0.012 A 
HETATM   12  C20 UNL     1      25.663  30.877   5.075  1.00  0.00     0.001 A 
HETATM   13  C19 UNL     1      24.680  31.559   4.388  1.00  0.00     0.008 A 
ENDBRANCH   3   4
ENDBRANCH   2   3
ENDBRANCH   1   2
BRANCH   1  14
HETATM   14  N1  UNL     1      20.755  31.785   5.316  1.00  0.00    -0.389 N 
ATOM     15  H1  UNL     1      21.215  32.544   5.818  1.00  0.00     0.159 HD
BRANCH  14  16
HETATM   16  C9  UNL     1      20.149  30.788   6.084  1.00  0.00     0.039 A 
HETATM   17  C10 UNL     1      18.777  30.696   6.103  1.00  0.00     0.030 A 
HETATM   18  C11 UNL     1      18.150  29.685   6.847  1.00  0.00     0.003 A 
HETATM   19  C12 UNL     1      18.875  28.773   7.563  1.00  0.00     0.012 A 
HETATM   20  C13 UNL     1      20.247  28.866   7.543  1.00  0.00    -0.024 A 
HETATM   21  C14 UNL     1      20.951  27.942   8.271  1.00  0.00     0.012 A 
HETATM   22  C18 UNL     1      20.866  29.866   6.809  1.00  0.00     0.001 A 
HETATM   23  C15 UNL     1      22.325  27.983   8.293  1.00  0.00     0.001 A 
HETATM   24  C16 UNL     1      22.985  28.949   7.586  1.00  0.00     0.001 A 
HETATM   25  C17 UNL     1      22.243  29.877   6.854  1.00  0.00     0.014 A 
ENDBRANCH  14  16
ENDBRANCH   1  14
TORSDOF 5
ENDMDL
MODEL 4
REMARK VINA RESULT: -10.691422874      0.966      5.300
REMARK  5 active torsions:
REMARK  status: ('A' for Active; 'I' for Inactive)
REMARK    1  A    between atoms: C5_5  and  C6_6 
REMARK    2  A    between atoms: C6_6  and  C7_7 
REMARK    3  A    between atoms: C7_7  and  C8_8 
REMARK    4  A    between atoms: C8_8  and  N1_9 
REMARK    5  A    between atoms: N1_9  and  C9_11 
ROOT
HETATM    1  C8  UNL     1      21.495  32.911   3.802  1.00  0.00     0.120 C 
ENDROOT
BRANCH   1   2
HETATM    2  C7  UNL     1      21.016  31.682   4.509  1.00  0.00     0.024 C 
BRANCH   2   3
HETATM    3  C6  UNL     1      20.363  31.978   5.848  1.00  0.00     0.041 C 
BRANCH   3   4
HETATM    4  C5  UNL     1      19.869  30.765   6.532  1.00  0.00    -0.047 A 
HETATM    5  C4  UNL     1      20.709  29.830   7.142  1.00  0.00    -0.020 A 
HETATM    6  C3  UNL     1      22.052  30.049   7.157  1.00  0.00     0.013 A 
HETATM    7  C22 UNL     1      20.185  28.682   7.746  1.00  0.00    -0.025 A 
HETATM    8  C2  UNL     1      22.876  29.113   7.778  1.00  0.00     0.001 A 
HETATM    9  C1  UNL     1      22.361  27.972   8.377  1.00  0.00     0.001 A 
HETATM   10  C23 UNL     1      21.004  27.772   8.352  1.00  0.00     0.012 A 
HETATM   11  C21 UNL     1      18.834  28.449   7.754  1.00  0.00     0.012 A 
HETATM   12  C20 UNL     1      18.018  29.363   7.159  1.00  0.00     0.001 A 
HETATM   13  C19 UNL     1      18.520  30.499   6.559  1.00  0.00     0.008 A 
ENDBRANCH   3   4
ENDBRANCH   2   3
ENDBRANCH   1   2
BRANCH   1  14
HETATM   14  N1  UNL     1      22.802  33.373   4.205  1.00  0.00    -0.389 N 
ATOM     15  H1  UNL     1      23.064  34.322   3.938  1.00  0.00     0.159 HD
BRANCH  14  16
HETATM   16  C9  UNL     1      23.739  32.633   4.929  1.00  0.00     0.039 A 
HETATM   17  C10 UNL     1      24.499  31.690   4.277  1.00  0.00     0.030 A 
HETATM   18  C11 UNL     1      25.463  30.954   4.982  1.00  0.00     0.003 A 
HETATM   19  C12 UNL     1      25.675  31.151   6.318  1.00  0.00     0.012 A 
HETATM   20  C13 UNL     1      24.914  32.095   6.969  1.00  0.00    -0.024 A 
HETATM   21  C14 UNL     1      25.143  32.272   8.309  1.00  0.00     0.012 A 
HETATM   22  C18 UNL     1      23.960  32.821   6.273  1.00  0.00     0.001 A 
HETATM   23  C15 UNL     1      24.415  33.198   9.017  1.00  0.00     0.001 A 
HETATM   24  C16 UNL     1      23.461  33.940   8.378  1.00  0.00     0.001 A 
HETATM   25  C17 UNL     1      23.249  33.739   7.013  1.00  0.00     0.014 A 
ENDBRANCH  14  16
ENDBRANCH   1  14
TORSDOF 5
ENDMDL
MODEL 5
REMARK VINA RESULT: -10.558589849      0.689      2.178
REMARK  5 active torsions:
REMARK  status: ('A' for Active; 'I' for Inactive)
REMARK    1  A    between atoms: C5_5  and  C6_6 
REMARK    2  A    between atoms: C6_6  and  C7_7 
REMARK    3  A    between atoms: C7_7  and  C8_8 
REMARK    4  A    between atoms: C8_8  and  N1_9 
REMARK    5  A    between atoms: N1_9  and  C9_11 
ROOT
HETATM    1  C8  UNL     1      21.433  32.258   4.042  1.00  0.00     0.120 C 
ENDROOT
BRANCH   1   2
HETATM    2  C7  UNL     1      21.600  33.678   4.485  1.00  0.00     0.024 C 
BRANCH   2   3
HETATM    3  C6  UNL     1      23.043  34.047   4.782  1.00  0.00     0.041 C 
BRANCH   3   4
HETATM    4  C5  UNL     1      23.453  33.718   6.163  1.00  0.00    -0.047 A 
HETATM    5  C4  UNL     1      24.384  32.724   6.473  1.00  0.00    -0.020 A 
HETATM    6  C3  UNL     1      24.990  32.039   5.465  1.00  0.00     0.013 A 
HETATM    7  C22 UNL     1      24.708  32.436   7.803  1.00  0.00    -0.025 A 
HETATM    8  C2  UNL     1      25.924  31.058   5.790  1.00  0.00     0.001 A 
HETATM    9  C1  UNL     1      26.247  30.767   7.107  1.00  0.00     0.001 A 
HETATM   10  C23 UNL     1      25.626  31.471   8.108  1.00  0.00     0.012 A 
HETATM   11  C21 UNL     1      24.119  33.122   8.833  1.00  0.00     0.012 A 
HETATM   12  C20 UNL     1      23.213  34.092   8.527  1.00  0.00     0.001 A 
HETATM   13  C19 UNL     1      22.883  34.388   7.221  1.00  0.00     0.008 A 
ENDBRANCH   3   4
ENDBRANCH   2   3
ENDBRANCH   1   2
BRANCH   1  14
HETATM   14  N1  UNL     1      20.522  31.474   4.843  1.00  0.00    -0.389 N 
ATOM     15  H1  UNL     1      19.524  31.638   4.707  1.00  0.00     0.159 HD
BRANCH  14  16
HETATM   16  C9  UNL     1      20.889  30.512   5.786  1.00  0.00     0.039 A 
HETATM   17  C10 UNL     1      22.224  30.263   6.006  1.00  0.00     0.030 A 
HETATM   18  C11 UNL     1      22.613  29.319   6.968  1.00  0.00     0.003 A 
HETATM   19  C12 UNL     1      21.691  28.629   7.705  1.00  0.00     0.012 A 
HETATM   20  C13 UNL     1      20.356  28.880   7.484  1.00  0.00    -0.024 A 
HETATM   21  C14 UNL     1      19.451  28.174   8.233  1.00  0.00     0.012 A 
HETATM   22  C18 UNL     1      19.971  29.812   6.532  1.00  0.00     0.001 A 
HETATM   23  C15 UNL     1      18.103  28.377   8.058  1.00  0.00     0.001 A 
HETATM   24  C16 UNL     1      17.670  29.285   7.132  1.00  0.00     0.001 A 
HETATM   25  C17 UNL     1      18.613  29.989   6.383  1.00  0.00     0.014 A 
ENDBRANCH  14  16
ENDBRANCH   1  14
TORSDOF 5
ENDMDL
