MODEL 1
REMARK VINA RESULT: -6.811051195      0.000      0.000
REMARK  15 active torsions:
REMARK  status: ('A' for Active; 'I' for Inactive)
REMARK    1  A    between atoms: N1_1  and  N2_4 
REMARK    2  A    between atoms: N2_4  and  C1_5 
REMARK    3  A    between atoms: C2_9  and  S1_10 
REMARK    4  A    between atoms: S1_10  and  S2_11 
REMARK    5  A    between atoms: S2_11  and  C3_12 
REMARK    6  A    between atoms: C4_13  and  C5_14 
REMARK    7  A    between atoms: C5_14  and  O1_15 
REMARK    8  A    between atoms: C5_14  and  O2_17 
REMARK    9  A    between atoms: C6_20  and  O4_21 
REMARK   10  A    between atoms: C6_20  and  C7_23 
REMARK   11  A    between atoms: C7_23  and  O5_24 
REMARK   12  A    between atoms: C8_26  and  O6_27 
REMARK   13  A    between atoms: C9_30  and  C10_31 
REMARK       I    between atoms: C10_31  and  N4_33 
REMARK   14  A    between atoms: N4_33  and  N5_34 
REMARK   15  A    between atoms: N4_33  and  O9_37 
ROOT
HETATM    1  C1  UNL     1      23.085  -0.313  12.713  1.00  0.00     0.502 C 
HETATM    2  N3  UNL     1      23.604  -1.102  11.574  1.00  0.00     0.006 N 
ATOM      3  H31 UNL     1      24.621  -1.180  11.573  1.00  0.00     0.285 HD
ATOM      4  H32 UNL     1      23.507  -0.622  10.679  1.00  0.00     0.285 HD
HETATM    5  C2  UNL     1      22.945  -2.373  11.601  1.00  0.00     0.403 C 
HETATM    6  O7  UNL     1      23.198  -3.045  12.786  1.00  0.00    -0.310 OA
HETATM    7  C9  UNL     1      22.607  -2.233  13.896  1.00  0.00     0.419 C 
HETATM    8  N6  UNL     1      23.462  -1.096  13.868  1.00  0.00     0.005 N 
ATOM      9  H61 UNL     1      23.446  -0.561  14.737  1.00  0.00     0.285 HD
ATOM     10  H62 UNL     1      24.452  -1.338  13.882  1.00  0.00     0.285 HD
ENDROOT
BRANCH   5  11
HETATM   11  S1  UNL     1      23.124  -3.404  10.170  1.00  0.00    -0.032 SA
BRANCH  11  12
HETATM   12  S2  UNL     1      24.825  -3.101   9.077  1.00  0.00    -0.052 SA
BRANCH  12  13
HETATM   13  C3  UNL     1      24.929  -1.519   8.260  1.00  0.00     0.058 C 
HETATM   14  C4  UNL     1      25.761  -0.575   8.643  1.00  0.00     0.121 C 
HETATM   15  O3  UNL     1      25.693   0.545   7.872  1.00  0.00    -0.307 OA
HETATM   16  C6  UNL     1      24.557   0.443   7.035  1.00  0.00     0.220 C 
HETATM   17  C8  UNL     1      24.054  -0.931   7.211  1.00  0.00     0.226 C 
BRANCH  14  18
HETATM   18  C5  UNL     1      26.725  -0.681   9.801  1.00  0.00     0.313 C 
BRANCH  18  19
HETATM   19  O1  UNL     1      27.955  -0.091   9.428  1.00  0.00    -0.365 OA
ATOM     20  H1  UNL     1      27.884   0.851   9.520  1.00  0.00     0.213 HD
ENDBRANCH  18  19
BRANCH  18  21
HETATM   21  O2  UNL     1      26.137  -0.073  10.883  1.00  0.00    -0.365 OA
ATOM     22  H2  UNL     1      26.271   0.863  10.792  1.00  0.00     0.213 HD
ENDBRANCH  18  21
ENDBRANCH  14  18
BRANCH  16  23
HETATM   23  O4  UNL     1      23.688   1.440   7.592  1.00  0.00    -0.361 OA
ATOM     24  H4  UNL     1      24.017   1.513   8.480  1.00  0.00     0.213 HD
ENDBRANCH  16  23
BRANCH  16  25
HETATM   25  C7  UNL     1      24.802   0.874   5.617  1.00  0.00     0.236 C 
BRANCH  25  26
HETATM   26  O5  UNL     1      24.924   2.277   5.510  1.00  0.00    -0.395 OA
ATOM     27  H5  UNL     1      24.090   2.713   5.634  1.00  0.00     0.209 HD
ENDBRANCH  25  26
ENDBRANCH  16  25
BRANCH  17  28
HETATM   28  O6  UNL     1      22.717  -0.919   7.680  1.00  0.00    -0.385 OA
ATOM     29  H6  UNL     1      22.647  -0.307   8.402  1.00  0.00     0.210 HD
ENDBRANCH  17  28
ENDBRANCH  12  13
ENDBRANCH  11  12
ENDBRANCH   5  11
BRANCH   1  30
HETATM   30  N2  UNL     1      23.690   0.988  12.713  1.00  0.00    -0.087 NA
BRANCH  30  31
HETATM   31  N1  UNL     1      23.418   1.646  13.906  1.00  0.00    -0.345 N 
ATOM     32  H12 UNL     1      23.046   1.188  14.739  1.00  0.00     0.172 HD
ATOM     33  H11 UNL     1      23.642   2.637  13.822  1.00  0.00     0.172 HD
ENDBRANCH  30  31
ENDBRANCH   1  30
BRANCH   7  34
HETATM   34  C10 UNL     1      22.840  -3.137  15.054  1.00  0.00     0.298 C 
HETATM   35  O8  UNL     1      23.612  -2.785  15.930  1.00  0.00    -0.271 OA
HETATM   36  N4  UNL     1      22.208  -4.396  15.253  1.00  0.00    -0.037 NA
BRANCH  36  37
HETATM   37  N5  UNL     1      21.356  -4.333  16.395  1.00  0.00    -0.333 NA
ATOM     38  H52 UNL     1      21.694  -5.023  17.065  1.00  0.00     0.173 HD
ATOM     39  H51 UNL     1      20.393  -4.522  16.118  1.00  0.00     0.173 HD
ENDBRANCH  36  37
BRANCH  36  40
HETATM   40  O9  UNL     1      21.436  -4.739  14.188  1.00  0.00    -0.287 OA
ATOM     41  H9  UNL     1      20.572  -5.023  14.462  1.00  0.00     0.239 HD
ENDBRANCH  36  40
ENDBRANCH   7  34
TORSDOF 15
ENDMDL
MODEL 2
REMARK VINA RESULT: -6.803584147      0.810      1.084
REMARK  15 active torsions:
REMARK  status: ('A' for Active; 'I' for Inactive)
REMARK    1  A    between atoms: N1_1  and  N2_4 
REMARK    2  A    between atoms: N2_4  and  C1_5 
REMARK    3  A    between atoms: C2_9  and  S1_10 
REMARK    4  A    between atoms: S1_10  and  S2_11 
REMARK    5  A    between atoms: S2_11  and  C3_12 
REMARK    6  A    between atoms: C4_13  and  C5_14 
REMARK    7  A    between atoms: C5_14  and  O1_15 
REMARK    8  A    between atoms: C5_14  and  O2_17 
REMARK    9  A    between atoms: C6_20  and  O4_21 
REMARK   10  A    between atoms: C6_20  and  C7_23 
REMARK   11  A    between atoms: C7_23  and  O5_24 
REMARK   12  A    between atoms: C8_26  and  O6_27 
REMARK   13  A    between atoms: C9_30  and  C10_31 
REMARK       I    between atoms: C10_31  and  N4_33 
REMARK   14  A    between atoms: N4_33  and  N5_34 
REMARK   15  A    between atoms: N4_33  and  O9_37 
ROOT
HETATM    1  C1  UNL     1      23.118  -0.230  12.600  1.00  0.00     0.502 C 
HETATM    2  N3  UNL     1      23.590  -1.023  11.444  1.00  0.00     0.006 N 
ATOM      3  H31 UNL     1      24.581  -1.259  11.499  1.00  0.00     0.285 HD
ATOM      4  H32 UNL     1      23.630  -0.483  10.579  1.00  0.00     0.285 HD
HETATM    5  C2  UNL     1      22.745  -2.175  11.345  1.00  0.00     0.403 C 
HETATM    6  O7  UNL     1      22.809  -2.945  12.495  1.00  0.00    -0.310 OA
HETATM    7  C9  UNL     1      22.272  -2.116  13.619  1.00  0.00     0.419 C 
HETATM    8  N6  UNL     1      23.289  -1.126  13.720  1.00  0.00     0.005 N 
ATOM      9  H61 UNL     1      23.293  -0.646  14.620  1.00  0.00     0.285 HD
ATOM     10  H62 UNL     1      24.228  -1.520  13.778  1.00  0.00     0.285 HD
ENDROOT
BRANCH   5  11
HETATM   11  S1  UNL     1      22.866  -3.137   9.861  1.00  0.00    -0.032 SA
BRANCH  11  12
HETATM   12  S2  UNL     1      24.634  -2.972   8.849  1.00  0.00    -0.052 SA
BRANCH  12  13
HETATM   13  C3  UNL     1      24.901  -1.405   8.040  1.00  0.00     0.058 C 
HETATM   14  C4  UNL     1      25.823  -0.551   8.432  1.00  0.00     0.121 C 
HETATM   15  O3  UNL     1      25.872   0.573   7.666  1.00  0.00    -0.307 OA
HETATM   16  C6  UNL     1      24.734   0.591   6.824  1.00  0.00     0.220 C 
HETATM   17  C8  UNL     1      24.094  -0.726   6.992  1.00  0.00     0.226 C 
BRANCH  14  18
HETATM   18  C5  UNL     1      26.767  -0.760   9.592  1.00  0.00     0.313 C 
BRANCH  18  19
HETATM   19  O1  UNL     1      28.014  -0.173   9.279  1.00  0.00    -0.365 OA
ATOM     20  H1  UNL     1      28.582  -0.234  10.037  1.00  0.00     0.213 HD
ENDBRANCH  18  19
BRANCH  18  21
HETATM   21  O2  UNL     1      26.176  -0.216  10.706  1.00  0.00    -0.365 OA
ATOM     22  H2  UNL     1      26.562   0.640  10.845  1.00  0.00     0.213 HD
ENDBRANCH  18  21
ENDBRANCH  14  18
BRANCH  16  23
HETATM   23  O4  UNL     1      23.968   1.668   7.384  1.00  0.00    -0.361 OA
ATOM     24  H4  UNL     1      23.081   1.334   7.315  1.00  0.00     0.213 HD
ENDBRANCH  16  23
BRANCH  16  25
HETATM   25  C7  UNL     1      25.027   1.001   5.410  1.00  0.00     0.236 C 
BRANCH  25  26
HETATM   26  O5  UNL     1      25.017   2.406   5.259  1.00  0.00    -0.395 OA
ATOM     27  H5  UNL     1      24.312   2.694   4.693  1.00  0.00     0.209 HD
ENDBRANCH  25  26
ENDBRANCH  16  25
BRANCH  17  28
HETATM   28  O6  UNL     1      22.764  -0.582   7.456  1.00  0.00    -0.385 OA
ATOM     29  H6  UNL     1      22.202  -0.359   6.723  1.00  0.00     0.210 HD
ENDBRANCH  17  28
ENDBRANCH  12  13
ENDBRANCH  11  12
ENDBRANCH   5  11
BRANCH   1  30
HETATM   30  N2  UNL     1      23.911   0.959  12.724  1.00  0.00    -0.087 NA
BRANCH  30  31
HETATM   31  N1  UNL     1      23.537   1.671  13.857  1.00  0.00    -0.345 N 
ATOM     32  H12 UNL     1      22.570   1.868  14.115  1.00  0.00     0.172 HD
ATOM     33  H11 UNL     1      24.363   1.962  14.381  1.00  0.00     0.172 HD
ENDBRANCH  30  31
ENDBRANCH   1  30
BRANCH   7  34
HETATM   34  C10 UNL     1      22.283  -3.110  14.725  1.00  0.00     0.298 C 
HETATM   35  O8  UNL     1      22.523  -4.278  14.465  1.00  0.00    -0.271 OA
HETATM   36  N4  UNL     1      22.060  -2.813  16.099  1.00  0.00    -0.037 NA
BRANCH  36  37
HETATM   37  N5  UNL     1      23.254  -3.046  16.842  1.00  0.00    -0.333 NA
ATOM     38  H52 UNL     1      23.040  -3.746  17.552  1.00  0.00     0.173 HD
ATOM     39  H51 UNL     1      23.575  -2.173  17.263  1.00  0.00     0.173 HD
ENDBRANCH  36  37
BRANCH  36  40
HETATM   40  O9  UNL     1      21.718  -1.510  16.277  1.00  0.00    -0.287 OA
ATOM     41  H9  UNL     1      20.781  -1.410  16.399  1.00  0.00     0.239 HD
ENDBRANCH  36  40
ENDBRANCH   7  34
TORSDOF 15
ENDMDL
MODEL 3
REMARK VINA RESULT: -6.661482897      1.796      2.207
REMARK  15 active torsions:
REMARK  status: ('A' for Active; 'I' for Inactive)
REMARK    1  A    between atoms: N1_1  and  N2_4 
REMARK    2  A    between atoms: N2_4  and  C1_5 
REMARK    3  A    between atoms: C2_9  and  S1_10 
REMARK    4  A    between atoms: S1_10  and  S2_11 
REMARK    5  A    between atoms: S2_11  and  C3_12 
REMARK    6  A    between atoms: C4_13  and  C5_14 
REMARK    7  A    between atoms: C5_14  and  O1_15 
REMARK    8  A    between atoms: C5_14  and  O2_17 
REMARK    9  A    between atoms: C6_20  and  O4_21 
REMARK   10  A    between atoms: C6_20  and  C7_23 
REMARK   11  A    between atoms: C7_23  and  O5_24 
REMARK   12  A    between atoms: C8_26  and  O6_27 
REMARK   13  A    between atoms: C9_30  and  C10_31 
REMARK       I    between atoms: C10_31  and  N4_33 
REMARK   14  A    between atoms: N4_33  and  N5_34 
REMARK   15  A    between atoms: N4_33  and  O9_37 
ROOT
HETATM    1  C1  UNL     1      24.111   1.436  12.563  1.00  0.00     0.502 C 
HETATM    2  N3  UNL     1      24.067   0.153  11.828  1.00  0.00     0.006 N 
ATOM      3  H31 UNL     1      24.832  -0.476  12.075  1.00  0.00     0.285 HD
ATOM      4  H32 UNL     1      24.293   0.252  10.838  1.00  0.00     0.285 HD
HETATM    5  C2  UNL     1      22.775  -0.421  12.051  1.00  0.00     0.403 C 
HETATM    6  O7  UNL     1      22.554  -0.650  13.400  1.00  0.00    -0.310 OA
HETATM    7  C9  UNL     1      22.555   0.680  14.085  1.00  0.00     0.419 C 
HETATM    8  N6  UNL     1      23.923   1.045  13.941  1.00  0.00     0.005 N 
ATOM      9  H61 UNL     1      24.219   1.761  14.605  1.00  0.00     0.285 HD
ATOM     10  H62 UNL     1      24.566   0.314  14.241  1.00  0.00     0.285 HD
ENDROOT
BRANCH   5  11
HETATM   11  S1  UNL     1      22.318  -1.799  11.033  1.00  0.00    -0.032 SA
BRANCH  11  12
HETATM   12  S2  UNL     1      23.715  -2.374   9.656  1.00  0.00    -0.052 SA
BRANCH  12  13
HETATM   13  C3  UNL     1      24.284  -1.080   8.567  1.00  0.00     0.058 C 
HETATM   14  C4  UNL     1      25.490  -0.561   8.650  1.00  0.00     0.121 C 
HETATM   15  O3  UNL     1      25.726   0.399   7.713  1.00  0.00    -0.307 OA
HETATM   16  C6  UNL     1      24.499   0.724   7.087  1.00  0.00     0.220 C 
HETATM   17  C8  UNL     1      23.526  -0.270   7.576  1.00  0.00     0.226 C 
BRANCH  14  18
HETATM   18  C5  UNL     1      26.546  -0.966   9.650  1.00  0.00     0.313 C 
BRANCH  18  19
HETATM   19  O1  UNL     1      27.766  -1.178   8.967  1.00  0.00    -0.365 OA
ATOM     20  H1  UNL     1      28.473  -1.204   9.600  1.00  0.00     0.213 HD
ENDBRANCH  18  19
BRANCH  18  21
HETATM   21  O2  UNL     1      26.619   0.025  10.597  1.00  0.00    -0.365 OA
ATOM     22  H2  UNL     1      26.095   0.754  10.287  1.00  0.00     0.213 HD
ENDBRANCH  18  21
ENDBRANCH  14  18
BRANCH  16  23
HETATM   23  O4  UNL     1      24.253   2.047   7.585  1.00  0.00    -0.361 OA
ATOM     24  H4  UNL     1      23.413   2.252   7.193  1.00  0.00     0.213 HD
ENDBRANCH  16  23
BRANCH  16  25
HETATM   25  C7  UNL     1      24.593   0.869   5.595  1.00  0.00     0.236 C 
BRANCH  25  26
HETATM   26  O5  UNL     1      24.888   2.198   5.217  1.00  0.00    -0.395 OA
ATOM     27  H5  UNL     1      24.386   2.467   4.456  1.00  0.00     0.209 HD
ENDBRANCH  25  26
ENDBRANCH  16  25
BRANCH  17  28
HETATM   28  O6  UNL     1      22.444   0.367   8.231  1.00  0.00    -0.385 OA
ATOM     29  H6  UNL     1      21.736   0.490   7.610  1.00  0.00     0.210 HD
ENDBRANCH  17  28
ENDBRANCH  12  13
ENDBRANCH  11  12
ENDBRANCH   5  11
BRANCH   1  30
HETATM   30  N2  UNL     1      25.377   2.073  12.343  1.00  0.00    -0.087 NA
BRANCH  30  31
HETATM   31  N1  UNL     1      25.598   3.050  13.306  1.00  0.00    -0.345 N 
ATOM     32  H12 UNL     1      25.044   3.150  14.157  1.00  0.00     0.172 HD
ATOM     33  H11 UNL     1      26.385   3.641  13.037  1.00  0.00     0.172 HD
ENDBRANCH  30  31
ENDBRANCH   1  30
BRANCH   7  34
HETATM   34  C10 UNL     1      22.178   0.279  15.468  1.00  0.00     0.298 C 
HETATM   35  O8  UNL     1      21.133   0.699  15.939  1.00  0.00    -0.271 OA
HETATM   36  N4  UNL     1      22.930  -0.593  16.303  1.00  0.00    -0.037 NA
BRANCH  36  37
HETATM   37  N5  UNL     1      22.198  -1.796  16.527  1.00  0.00    -0.333 NA
ATOM     38  H52 UNL     1      22.022  -1.864  17.529  1.00  0.00     0.173 HD
ATOM     39  H51 UNL     1      22.735  -2.594  16.187  1.00  0.00     0.173 HD
ENDBRANCH  36  37
BRANCH  36  40
HETATM   40  O9  UNL     1      24.112  -0.936  15.728  1.00  0.00    -0.287 OA
ATOM     41  H9  UNL     1      24.689  -1.365  16.348  1.00  0.00     0.239 HD
ENDBRANCH  36  40
ENDBRANCH   7  34
TORSDOF 15
ENDMDL
MODEL 4
REMARK VINA RESULT: -6.639819778      1.511      1.776
REMARK  15 active torsions:
REMARK  status: ('A' for Active; 'I' for Inactive)
REMARK    1  A    between atoms: N1_1  and  N2_4 
REMARK    2  A    between atoms: N2_4  and  C1_5 
REMARK    3  A    between atoms: C2_9  and  S1_10 
REMARK    4  A    between atoms: S1_10  and  S2_11 
REMARK    5  A    between atoms: S2_11  and  C3_12 
REMARK    6  A    between atoms: C4_13  and  C5_14 
REMARK    7  A    between atoms: C5_14  and  O1_15 
REMARK    8  A    between atoms: C5_14  and  O2_17 
REMARK    9  A    between atoms: C6_20  and  O4_21 
REMARK   10  A    between atoms: C6_20  and  C7_23 
REMARK   11  A    between atoms: C7_23  and  O5_24 
REMARK   12  A    between atoms: C8_26  and  O6_27 
REMARK   13  A    between atoms: C9_30  and  C10_31 
REMARK       I    between atoms: C10_31  and  N4_33 
REMARK   14  A    between atoms: N4_33  and  N5_34 
REMARK   15  A    between atoms: N4_33  and  O9_37 
ROOT
HETATM    1  C1  UNL     1      22.835  -0.777  13.853  1.00  0.00     0.502 C 
HETATM    2  N3  UNL     1      23.622  -1.810  13.143  1.00  0.00     0.006 N 
ATOM      3  H31 UNL     1      24.306  -2.272  13.743  1.00  0.00     0.285 HD
ATOM      4  H32 UNL     1      24.280  -1.417  12.470  1.00  0.00     0.285 HD
HETATM    5  C2  UNL     1      22.691  -2.721  12.549  1.00  0.00     0.403 C 
HETATM    6  O7  UNL     1      21.894  -3.322  13.510  1.00  0.00    -0.310 OA
HETATM    7  C9  UNL     1      21.082  -2.243  14.156  1.00  0.00     0.419 C 
HETATM    8  N6  UNL     1      22.103  -1.530  14.845  1.00  0.00     0.005 N 
ATOM      9  H61 UNL     1      21.744  -0.950  15.604  1.00  0.00     0.285 HD
ATOM     10  H62 UNL     1      22.700  -2.132  15.412  1.00  0.00     0.285 HD
ENDROOT
BRANCH   5  11
HETATM   11  S1  UNL     1      23.336  -3.873  11.366  1.00  0.00    -0.032 SA
BRANCH  11  12
HETATM   12  S2  UNL     1      24.891  -3.188  10.230  1.00  0.00    -0.052 SA
BRANCH  12  13
HETATM   13  C3  UNL     1      24.548  -1.712   9.288  1.00  0.00     0.058 C 
HETATM   14  C4  UNL     1      24.828  -0.505   9.731  1.00  0.00     0.121 C 
HETATM   15  O3  UNL     1      24.503   0.479   8.848  1.00  0.00    -0.307 OA
HETATM   16  C6  UNL     1      23.726  -0.090   7.811  1.00  0.00     0.220 C 
HETATM   17  C8  UNL     1      23.779  -1.547   8.026  1.00  0.00     0.226 C 
BRANCH  14  18
HETATM   18  C5  UNL     1      25.460  -0.192  11.067  1.00  0.00     0.313 C 
BRANCH  18  19
HETATM   19  O1  UNL     1      26.856  -0.053  10.890  1.00  0.00    -0.365 OA
ATOM     20  H1  UNL     1      27.041   0.829  10.589  1.00  0.00     0.213 HD
ENDBRANCH  18  19
BRANCH  18  21
HETATM   21  O2  UNL     1      24.857   0.942  11.552  1.00  0.00    -0.365 OA
ATOM     22  H2  UNL     1      25.369   1.241  12.294  1.00  0.00     0.213 HD
ENDBRANCH  18  21
ENDBRANCH  14  18
BRANCH  16  23
HETATM   23  O4  UNL     1      22.431   0.473   8.069  1.00  0.00    -0.361 OA
ATOM     24  H4  UNL     1      21.871  -0.293   8.026  1.00  0.00     0.213 HD
ENDBRANCH  16  23
BRANCH  16  25
HETATM   25  C7  UNL     1      24.100   0.384   6.436  1.00  0.00     0.236 C 
BRANCH  25  26
HETATM   26  O5  UNL     1      24.515   1.734   6.442  1.00  0.00    -0.395 OA
ATOM     27  H5  UNL     1      24.336   2.154   7.275  1.00  0.00     0.209 HD
ENDBRANCH  25  26
ENDBRANCH  16  25
BRANCH  17  28
HETATM   28  O6  UNL     1      22.477  -2.075   8.207  1.00  0.00    -0.385 OA
ATOM     29  H6  UNL     1      22.512  -3.020   8.120  1.00  0.00     0.210 HD
ENDBRANCH  17  28
ENDBRANCH  12  13
ENDBRANCH  11  12
ENDBRANCH   5  11
BRANCH   1  30
HETATM   30  N2  UNL     1      23.721   0.185  14.440  1.00  0.00    -0.087 NA
BRANCH  30  31
HETATM   31  N1  UNL     1      23.414   1.462  13.987  1.00  0.00    -0.345 N 
ATOM     32  H12 UNL     1      23.745   1.850  13.102  1.00  0.00     0.172 HD
ATOM     33  H11 UNL     1      22.819   1.944  14.661  1.00  0.00     0.172 HD
ENDBRANCH  30  31
ENDBRANCH   1  30
BRANCH   7  34
HETATM   34  C10 UNL     1      20.205  -3.053  15.044  1.00  0.00     0.298 C 
HETATM   35  O8  UNL     1      18.994  -2.931  14.945  1.00  0.00    -0.271 OA
HETATM   36  N4  UNL     1      20.657  -4.000  16.004  1.00  0.00    -0.037 NA
BRANCH  36  37
HETATM   37  N5  UNL     1      20.256  -5.311  15.614  1.00  0.00    -0.333 NA
ATOM     38  H52 UNL     1      21.094  -5.810  15.314  1.00  0.00     0.173 HD
ATOM     39  H51 UNL     1      19.568  -5.252  14.863  1.00  0.00     0.173 HD
ENDBRANCH  36  37
BRANCH  36  40
HETATM   40  O9  UNL     1      22.013  -4.001  16.101  1.00  0.00    -0.287 OA
ATOM     41  H9  UNL     1      22.300  -3.741  16.968  1.00  0.00     0.239 HD
ENDBRANCH  36  40
ENDBRANCH   7  34
TORSDOF 15
ENDMDL
MODEL 5
REMARK VINA RESULT: -6.553722819      2.818      7.433
REMARK  15 active torsions:
REMARK  status: ('A' for Active; 'I' for Inactive)
REMARK    1  A    between atoms: N1_1  and  N2_4 
REMARK    2  A    between atoms: N2_4  and  C1_5 
REMARK    3  A    between atoms: C2_9  and  S1_10 
REMARK    4  A    between atoms: S1_10  and  S2_11 
REMARK    5  A    between atoms: S2_11  and  C3_12 
REMARK    6  A    between atoms: C4_13  and  C5_14 
REMARK    7  A    between atoms: C5_14  and  O1_15 
REMARK    8  A    between atoms: C5_14  and  O2_17 
REMARK    9  A    between atoms: C6_20  and  O4_21 
REMARK   10  A    between atoms: C6_20  and  C7_23 
REMARK   11  A    between atoms: C7_23  and  O5_24 
REMARK   12  A    between atoms: C8_26  and  O6_27 
REMARK   13  A    between atoms: C9_30  and  C10_31 
REMARK       I    between atoms: C10_31  and  N4_33 
REMARK   14  A    between atoms: N4_33  and  N5_34 
REMARK   15  A    between atoms: N4_33  and  O9_37 
ROOT
HETATM    1  C1  UNL     1      23.839   0.179  12.024  1.00  0.00     0.502 C 
HETATM    2  N3  UNL     1      23.034  -0.962  12.513  1.00  0.00     0.006 N 
ATOM      3  H31 UNL     1      22.039  -0.867  12.306  1.00  0.00     0.285 HD
ATOM      4  H32 UNL     1      22.957  -0.989  13.529  1.00  0.00     0.285 HD
HETATM    5  C2  UNL     1      23.608  -2.153  11.964  1.00  0.00     0.403 C 
HETATM    6  O7  UNL     1      23.587  -2.129  10.578  1.00  0.00    -0.310 OA
HETATM    7  C9  UNL     1      24.457  -0.993  10.138  1.00  0.00     0.419 C 
HETATM    8  N6  UNL     1      23.684   0.114  10.589  1.00  0.00     0.005 N 
ATOM      9  H61 UNL     1      23.924   0.987  10.119  1.00  0.00     0.285 HD
ATOM     10  H62 UNL     1      22.710   0.070  10.292  1.00  0.00     0.285 HD
ENDROOT
BRANCH   5  11
HETATM   11  S1  UNL     1      23.055  -3.698  12.636  1.00  0.00    -0.032 SA
BRANCH  11  12
HETATM   12  S2  UNL     1      22.723  -3.709  14.653  1.00  0.00    -0.052 SA
BRANCH  12  13
HETATM   13  C3  UNL     1      22.066  -2.191  15.321  1.00  0.00     0.058 C 
HETATM   14  C4  UNL     1      20.839  -1.781  15.081  1.00  0.00     0.121 C 
HETATM   15  O3  UNL     1      20.534  -0.609  15.703  1.00  0.00    -0.307 OA
HETATM   16  C6  UNL     1      21.728  -0.055  16.224  1.00  0.00     0.220 C 
HETATM   17  C8  UNL     1      22.759  -1.094  16.050  1.00  0.00     0.226 C 
BRANCH  14  18
HETATM   18  C5  UNL     1      19.829  -2.509  14.226  1.00  0.00     0.313 C 
BRANCH  18  19
HETATM   19  O1  UNL     1      18.541  -2.314  14.774  1.00  0.00    -0.365 OA
ATOM     20  H1  UNL     1      18.376  -2.991  15.420  1.00  0.00     0.213 HD
ENDBRANCH  18  19
BRANCH  18  21
HETATM   21  O2  UNL     1      19.953  -2.030  12.945  1.00  0.00    -0.365 OA
ATOM     22  H2  UNL     1      20.374  -1.181  12.998  1.00  0.00     0.213 HD
ENDBRANCH  18  21
ENDBRANCH  14  18
BRANCH  16  23
HETATM   23  O4  UNL     1      21.923   1.084  15.372  1.00  0.00    -0.361 OA
ATOM     24  H4  UNL     1      21.270   1.689  15.702  1.00  0.00     0.213 HD
ENDBRANCH  16  23
BRANCH  16  25
HETATM   25  C7  UNL     1      21.588   0.503  17.611  1.00  0.00     0.236 C 
BRANCH  25  26
HETATM   26  O5  UNL     1      22.536  -0.056  18.498  1.00  0.00    -0.395 OA
ATOM     27  H5  UNL     1      22.505   0.358  19.353  1.00  0.00     0.209 HD
ENDBRANCH  25  26
ENDBRANCH  16  25
BRANCH  17  28
HETATM   28  O6  UNL     1      23.826  -0.614  15.253  1.00  0.00    -0.385 OA
ATOM     29  H6  UNL     1      23.951   0.312  15.427  1.00  0.00     0.210 HD
ENDBRANCH  17  28
ENDBRANCH  12  13
ENDBRANCH  11  12
ENDBRANCH   5  11
BRANCH   1  30
HETATM   30  N2  UNL     1      23.326   1.401  12.574  1.00  0.00    -0.087 NA
BRANCH  30  31
HETATM   31  N1  UNL     1      24.122   1.824  13.631  1.00  0.00    -0.345 N 
ATOM     32  H12 UNL     1      24.514   2.763  13.712  1.00  0.00     0.172 HD
ATOM     33  H11 UNL     1      24.252   1.066  14.302  1.00  0.00     0.172 HD
ENDBRANCH  30  31
ENDBRANCH   1  30
BRANCH   7  34
HETATM   34  C10 UNL     1      24.436  -1.185   8.663  1.00  0.00     0.298 C 
HETATM   35  O8  UNL     1      25.419  -1.657   8.116  1.00  0.00    -0.271 OA
HETATM   36  N4  UNL     1      23.335  -0.887   7.812  1.00  0.00    -0.037 NA
BRANCH  36  37
HETATM   37  N5  UNL     1      22.818  -2.093   7.253  1.00  0.00    -0.333 NA
ATOM     38  H52 UNL     1      23.228  -2.199   6.325  1.00  0.00     0.173 HD
ATOM     39  H51 UNL     1      21.800  -2.043   7.207  1.00  0.00     0.173 HD
ENDBRANCH  36  37
BRANCH  36  40
HETATM   40  O9  UNL     1      22.324  -0.290   8.496  1.00  0.00    -0.287 OA
ATOM     41  H9  UNL     1      21.969   0.449   8.017  1.00  0.00     0.239 HD
ENDBRANCH  36  40
ENDBRANCH   7  34
TORSDOF 15
ENDMDL
