MODEL 1
REMARK VINA RESULT: -5.467380636      0.000      0.000
REMARK  13 active torsions:
REMARK  status: ('A' for Active; 'I' for Inactive)
REMARK    1  A    between atoms: S1_2  and  C2_3 
REMARK    2  A    between atoms: C2_3  and  C3_4 
REMARK    3  A    between atoms: C4_8  and  C5_9 
REMARK    4  A    between atoms: C5_9  and  O1_10 
REMARK    5  A    between atoms: C6_12  and  N2_13 
REMARK    6  A    between atoms: N2_13  and  C7_15 
REMARK    7  A    between atoms: C8_18  and  N4_19 
REMARK    8  A    between atoms: N7_25  and  N8_26 
REMARK    9  A    between atoms: N9_28  and  N10_30 
REMARK   10  A    between atoms: C9_31  and  O2_32 
REMARK   11  A    between atoms: C10_34  and  O3_35 
REMARK   12  A    between atoms: C11_38  and  N11_39 
REMARK   13  A    between atoms: C12_42  and  O5_43 
ROOT
HETATM    1  C7  UNL     1      23.047  -5.726  11.457  1.00  0.00     0.713 C 
HETATM    2  N3  UNL     1      22.568  -6.686  10.719  1.00  0.00    -0.179 N 
ATOM      3  H3  UNL     1      23.133  -7.137   9.999  1.00  0.00     0.181 HD
HETATM    4  C8  UNL     1      21.202  -7.083  10.967  1.00  0.00     0.409 C 
HETATM    5  N5  UNL     1      20.458  -5.837  11.150  1.00  0.00    -0.069 NA
HETATM    6  N6  UNL     1      20.849  -5.301  12.366  1.00  0.00     0.013 NA
HETATM    7  N7  UNL     1      22.232  -5.124  12.452  1.00  0.00     0.007 N 
ENDROOT
BRANCH   1   8
HETATM    8  N2  UNL     1      24.372  -5.259  11.301  1.00  0.00    -0.214 N 
ATOM      9  H2  UNL     1      25.114  -5.625  11.897  1.00  0.00     0.178 HD
BRANCH   8  10
HETATM   10  C6  UNL     1      24.672  -4.285  10.320  1.00  0.00     0.163 C 
HETATM   11  C4  UNL     1      26.081  -4.197   9.853  1.00  0.00     0.235 C 
HETATM   12  N1  UNL     1      26.344  -2.777   9.576  1.00  0.00    -0.059 N 
HETATM   13  C3  UNL     1      25.032  -2.128   9.612  1.00  0.00     0.226 C 
ATOM     14  H12 UNL     1      26.859  -2.614   8.711  1.00  0.00     0.278 HD
ATOM     15  H11 UNL     1      27.028  -2.355  10.203  1.00  0.00     0.278 HD
HETATM   16  C12 UNL     1      24.420  -2.856  10.792  1.00  0.00     0.174 C 
BRANCH  11  17
HETATM   17  C5  UNL     1      27.116  -4.622  10.851  1.00  0.00     0.199 C 
BRANCH  17  18
HETATM   18  O1  UNL     1      28.004  -3.529  10.999  1.00  0.00    -0.399 OA
ATOM     19  H1  UNL     1      28.186  -3.453  11.929  1.00  0.00     0.209 HD
ENDBRANCH  17  18
ENDBRANCH  11  17
BRANCH  13  20
HETATM   20  C2  UNL     1      25.144  -0.656   9.764  1.00  0.00     0.109 C 
BRANCH  20  21
HETATM   21  S1  UNL     1      23.591   0.203   9.597  1.00  0.00    -0.171 SA
HETATM   22  C1  UNL     1      23.276   0.815   7.947  1.00  0.00     0.089 C 
ENDBRANCH  20  21
ENDBRANCH  13  20
BRANCH  16  23
HETATM   23  O5  UNL     1      25.146  -2.586  11.950  1.00  0.00    -0.391 OA
ATOM     24  H5  UNL     1      25.122  -3.336  12.533  1.00  0.00     0.210 HD
ENDBRANCH  16  23
ENDBRANCH   8  10
ENDBRANCH   1   8
BRANCH   7  25
HETATM   25  N8  UNL     1      22.808  -4.360  13.501  1.00  0.00    -0.193 N 
HETATM   26  N9  UNL     1      22.363  -3.207  13.647  1.00  0.00    -0.214 N 
ATOM     27  H9  UNL     1      21.628  -2.916  13.004  1.00  0.00     0.210 HD
ATOM     28  H8  UNL     1      23.544  -4.735  14.099  1.00  0.00     0.212 HD
BRANCH  26  29
HETATM   29  N10 UNL     1      22.765  -2.271  14.602  1.00  0.00    -0.176 N 
HETATM   30  C9  UNL     1      22.830  -2.436  15.950  1.00  0.00     0.226 A 
HETATM   31  C10 UNL     1      23.278  -1.272  16.540  1.00  0.00     0.240 A 
HETATM   32  O4  UNL     1      23.476  -0.429  15.550  1.00  0.00    -0.251 OA
HETATM   33  C11 UNL     1      23.178  -1.004  14.400  1.00  0.00     0.249 A 
BRANCH  30  34
HETATM   34  O2  UNL     1      22.481  -3.629  16.576  1.00  0.00    -0.341 OA
ATOM     35  H2  UNL     1      22.312  -3.685  17.509  1.00  0.00     0.219 HD
ENDBRANCH  30  34
BRANCH  31  36
HETATM   36  O3  UNL     1      23.477  -1.050  17.916  1.00  0.00    -0.337 OA
ATOM     37  H3  UNL     1      22.979  -0.464  18.474  1.00  0.00     0.220 HD
ENDBRANCH  31  36
BRANCH  33  38
HETATM   38  N11 UNL     1      23.285  -0.390  13.275  1.00  0.00    -0.363 N 
ATOM     39 2H11 UNL     1      23.055  -0.835  12.387  1.00  0.00     0.159 HD
ATOM     40 1H11 UNL     1      23.598   0.569  13.122  1.00  0.00     0.159 HD
ENDBRANCH  33  38
ENDBRANCH  26  29
ENDBRANCH   7  25
BRANCH   4  41
HETATM   41  N4  UNL     1      20.653  -7.858   9.871  1.00  0.00    -0.042 N 
ATOM     42  H43 UNL     1      19.647  -7.988   9.978  1.00  0.00     0.278 HD
ATOM     43  H42 UNL     1      20.655  -7.323   9.002  1.00  0.00     0.278 HD
ATOM     44  H41 UNL     1      21.132  -8.751   9.757  1.00  0.00     0.278 HD
ENDBRANCH   4  41
TORSDOF 13
ENDMDL
MODEL 2
REMARK VINA RESULT: -5.362756978      3.026      5.578
REMARK  13 active torsions:
REMARK  status: ('A' for Active; 'I' for Inactive)
REMARK    1  A    between atoms: S1_2  and  C2_3 
REMARK    2  A    between atoms: C2_3  and  C3_4 
REMARK    3  A    between atoms: C4_8  and  C5_9 
REMARK    4  A    between atoms: C5_9  and  O1_10 
REMARK    5  A    between atoms: C6_12  and  N2_13 
REMARK    6  A    between atoms: N2_13  and  C7_15 
REMARK    7  A    between atoms: C8_18  and  N4_19 
REMARK    8  A    between atoms: N7_25  and  N8_26 
REMARK    9  A    between atoms: N9_28  and  N10_30 
REMARK   10  A    between atoms: C9_31  and  O2_32 
REMARK   11  A    between atoms: C10_34  and  O3_35 
REMARK   12  A    between atoms: C11_38  and  N11_39 
REMARK   13  A    between atoms: C12_42  and  O5_43 
ROOT
HETATM    1  C7  UNL     1      23.564  -1.101  10.140  1.00  0.00     0.713 C 
HETATM    2  N3  UNL     1      24.203  -1.103   9.005  1.00  0.00    -0.179 N 
ATOM      3  H3  UNL     1      23.863  -1.633   8.202  1.00  0.00     0.181 HD
HETATM    4  C8  UNL     1      25.414  -0.319   8.935  1.00  0.00     0.409 C 
HETATM    5  N5  UNL     1      26.119  -0.572  10.192  1.00  0.00    -0.069 NA
HETATM    6  N6  UNL     1      25.402   0.058  11.197  1.00  0.00     0.013 NA
HETATM    7  N7  UNL     1      24.065  -0.349  11.234  1.00  0.00     0.007 N 
ENDROOT
BRANCH   1   8
HETATM    8  N2  UNL     1      22.368  -1.833  10.320  1.00  0.00    -0.214 N 
ATOM      9  H2  UNL     1      21.489  -1.468   9.953  1.00  0.00     0.178 HD
BRANCH   8  10
HETATM   10  C6  UNL     1      22.386  -3.068  11.007  1.00  0.00     0.163 C 
HETATM   11  C4  UNL     1      22.465  -4.306  10.187  1.00  0.00     0.235 C 
HETATM   12  N1  UNL     1      21.676  -5.328  10.892  1.00  0.00    -0.059 N 
HETATM   13  C3  UNL     1      21.404  -4.761  12.214  1.00  0.00     0.226 C 
ATOM     14  H12 UNL     1      22.123  -6.245  10.922  1.00  0.00     0.278 HD
ATOM     15  H11 UNL     1      20.839  -5.620  10.390  1.00  0.00     0.278 HD
HETATM   16  C12 UNL     1      21.121  -3.324  11.821  1.00  0.00     0.174 C 
BRANCH  11  17
HETATM   17  C5  UNL     1      21.874  -4.204   8.812  1.00  0.00     0.199 C 
BRANCH  17  18
HETATM   18  O1  UNL     1      22.895  -3.695   7.973  1.00  0.00    -0.399 OA
ATOM     19  H1  UNL     1      22.657  -2.797   7.773  1.00  0.00     0.209 HD
ENDBRANCH  17  18
ENDBRANCH  11  17
BRANCH  13  20
HETATM   20  C2  UNL     1      20.290  -5.461  12.900  1.00  0.00     0.109 C 
BRANCH  20  21
HETATM   21  S1  UNL     1      19.762  -4.665  14.406  1.00  0.00    -0.171 SA
HETATM   22  C1  UNL     1      19.154  -5.799  15.649  1.00  0.00     0.089 C 
ENDBRANCH  20  21
ENDBRANCH  13  20
BRANCH  16  23
HETATM   23  O5  UNL     1      19.992  -3.264  11.006  1.00  0.00    -0.391 OA
ATOM     24  H5  UNL     1      20.145  -2.671  10.279  1.00  0.00     0.210 HD
ENDBRANCH  16  23
ENDBRANCH   8  10
ENDBRANCH   1   8
BRANCH   7  25
HETATM   25  N8  UNL     1      23.232  -0.022  12.336  1.00  0.00    -0.193 N 
HETATM   26  N9  UNL     1      23.418  -0.677  13.377  1.00  0.00    -0.214 N 
ATOM     27  H9  UNL     1      24.149  -1.388  13.345  1.00  0.00     0.210 HD
ATOM     28  H8  UNL     1      22.522   0.708  12.278  1.00  0.00     0.212 HD
BRANCH  26  29
HETATM   29  N10 UNL     1      22.731  -0.542  14.585  1.00  0.00    -0.176 N 
HETATM   30  C9  UNL     1      22.197   0.592  15.114  1.00  0.00     0.226 A 
HETATM   31  C10 UNL     1      21.598   0.304  16.323  1.00  0.00     0.240 A 
HETATM   32  O4  UNL     1      21.776  -0.987  16.506  1.00  0.00    -0.251 OA
HETATM   33  C11 UNL     1      22.442  -1.500  15.488  1.00  0.00     0.249 A 
BRANCH  30  34
HETATM   34  O2  UNL     1      22.281   1.825  14.476  1.00  0.00    -0.341 OA
ATOM     35  H2  UNL     1      22.728   2.570  14.862  1.00  0.00     0.219 HD
ENDBRANCH  30  34
BRANCH  31  36
HETATM   36  O3  UNL     1      20.938   1.213  17.171  1.00  0.00    -0.337 OA
ATOM     37  H3  UNL     1      20.151   1.048  17.676  1.00  0.00     0.220 HD
ENDBRANCH  31  36
BRANCH  33  38
HETATM   38  N11 UNL     1      22.746  -2.748  15.424  1.00  0.00    -0.363 N 
ATOM     39 2H11 UNL     1      22.157  -3.428  14.943  1.00  0.00     0.159 HD
ATOM     40 1H11 UNL     1      23.567  -3.206  15.820  1.00  0.00     0.159 HD
ENDBRANCH  33  38
ENDBRANCH  26  29
ENDBRANCH   7  25
BRANCH   4  41
HETATM   41  N4  UNL     1      26.235  -0.686   7.798  1.00  0.00    -0.042 N 
ATOM     42  H43 UNL     1      25.849  -1.494   7.309  1.00  0.00     0.278 HD
ATOM     43  H42 UNL     1      26.162   0.005   7.051  1.00  0.00     0.278 HD
ATOM     44  H41 UNL     1      27.207  -0.844   8.063  1.00  0.00     0.278 HD
ENDBRANCH   4  41
TORSDOF 13
ENDMDL
MODEL 3
REMARK VINA RESULT: -5.342721603      2.321      2.715
REMARK  13 active torsions:
REMARK  status: ('A' for Active; 'I' for Inactive)
REMARK    1  A    between atoms: S1_2  and  C2_3 
REMARK    2  A    between atoms: C2_3  and  C3_4 
REMARK    3  A    between atoms: C4_8  and  C5_9 
REMARK    4  A    between atoms: C5_9  and  O1_10 
REMARK    5  A    between atoms: C6_12  and  N2_13 
REMARK    6  A    between atoms: N2_13  and  C7_15 
REMARK    7  A    between atoms: C8_18  and  N4_19 
REMARK    8  A    between atoms: N7_25  and  N8_26 
REMARK    9  A    between atoms: N9_28  and  N10_30 
REMARK   10  A    between atoms: C9_31  and  O2_32 
REMARK   11  A    between atoms: C10_34  and  O3_35 
REMARK   12  A    between atoms: C11_38  and  N11_39 
REMARK   13  A    between atoms: C12_42  and  O5_43 
ROOT
HETATM    1  C7  UNL     1      20.165  -3.896  11.040  1.00  0.00     0.713 C 
HETATM    2  N3  UNL     1      19.196  -4.275  10.257  1.00  0.00    -0.179 N 
ATOM      3  H3  UNL     1      19.356  -4.924   9.486  1.00  0.00     0.181 HD
HETATM    4  C8  UNL     1      17.884  -3.736  10.531  1.00  0.00     0.409 C 
HETATM    5  N5  UNL     1      18.096  -2.320  10.828  1.00  0.00    -0.069 NA
HETATM    6  N6  UNL     1      18.722  -2.250  12.063  1.00  0.00     0.013 NA
HETATM    7  N7  UNL     1      19.904  -2.994  12.105  1.00  0.00     0.007 N 
ENDROOT
BRANCH   1   8
HETATM    8  N2  UNL     1      21.488  -4.361  10.864  1.00  0.00    -0.214 N 
ATOM      9  H2  UNL     1      21.853  -5.097  11.469  1.00  0.00     0.178 HD
BRANCH   8  10
HETATM   10  C6  UNL     1      22.308  -3.809   9.852  1.00  0.00     0.163 C 
HETATM   11  C4  UNL     1      23.627  -4.454   9.614  1.00  0.00     0.235 C 
HETATM   12  N1  UNL     1      24.558  -3.378   9.242  1.00  0.00    -0.059 N 
HETATM   13  C3  UNL     1      23.716  -2.205   8.998  1.00  0.00     0.226 C 
ATOM     14  H12 UNL     1      25.170  -3.615   8.461  1.00  0.00     0.278 HD
ATOM     15  H11 UNL     1      25.297  -3.218   9.926  1.00  0.00     0.278 HD
HETATM   16  C12 UNL     1      22.721  -2.368  10.130  1.00  0.00     0.174 C 
BRANCH  11  17
HETATM   17  C5  UNL     1      24.234  -5.133  10.805  1.00  0.00     0.199 C 
BRANCH  17  18
HETATM   18  O1  UNL     1      23.731  -6.456  10.814  1.00  0.00    -0.399 OA
ATOM     19  H1  UNL     1      23.605  -6.692  11.725  1.00  0.00     0.209 HD
ENDBRANCH  17  18
ENDBRANCH  11  17
BRANCH  13  20
HETATM   20  C2  UNL     1      24.499  -0.946   9.018  1.00  0.00     0.109 C 
BRANCH  20  21
HETATM   21  S1  UNL     1      23.645   0.442   8.293  1.00  0.00    -0.171 SA
HETATM   22  C1  UNL     1      24.390   1.042   6.783  1.00  0.00     0.089 C 
ENDBRANCH  20  21
ENDBRANCH  13  20
BRANCH  16  23
HETATM   23  O5  UNL     1      23.373  -2.271  11.358  1.00  0.00    -0.391 OA
ATOM     24  H5  UNL     1      22.752  -2.390  12.068  1.00  0.00     0.210 HD
ENDBRANCH  16  23
ENDBRANCH   8  10
ENDBRANCH   1   8
BRANCH   7  25
HETATM   25  N8  UNL     1      20.819  -2.852  13.180  1.00  0.00    -0.193 N 
HETATM   26  N9  UNL     1      21.269  -1.707  13.369  1.00  0.00    -0.214 N 
ATOM     27  H9  UNL     1      20.940  -0.977  12.737  1.00  0.00     0.210 HD
ATOM     28  H8  UNL     1      21.093  -3.642  13.764  1.00  0.00     0.212 HD
BRANCH  26  29
HETATM   29  N10 UNL     1      22.175  -1.317  14.357  1.00  0.00    -0.176 N 
HETATM   30  C9  UNL     1      22.283  -1.801  15.623  1.00  0.00     0.226 A 
HETATM   31  C10 UNL     1      23.307  -1.153  16.283  1.00  0.00     0.240 A 
HETATM   32  O4  UNL     1      23.799  -0.297  15.416  1.00  0.00    -0.251 OA
HETATM   33  C11 UNL     1      23.142  -0.382  14.274  1.00  0.00     0.249 A 
BRANCH  30  34
HETATM   34  O2  UNL     1      21.449  -2.800  16.115  1.00  0.00    -0.341 OA
ATOM     35  H2  UNL     1      21.734  -3.702  16.209  1.00  0.00     0.219 HD
ENDBRANCH  30  34
BRANCH  31  36
HETATM   36  O3  UNL     1      23.725  -1.376  17.610  1.00  0.00    -0.337 OA
ATOM     37  H3  UNL     1      24.011  -0.718  18.232  1.00  0.00     0.220 HD
ENDBRANCH  31  36
BRANCH  33  38
HETATM   38  N11 UNL     1      23.430   0.353  13.258  1.00  0.00    -0.363 N 
ATOM     39 2H11 UNL     1      22.884   0.331  12.397  1.00  0.00     0.159 HD
ATOM     40 1H11 UNL     1      24.198   1.020  13.175  1.00  0.00     0.159 HD
ENDBRANCH  33  38
ENDBRANCH  26  29
ENDBRANCH   7  25
BRANCH   4  41
HETATM   41  N4  UNL     1      16.983  -3.901   9.408  1.00  0.00    -0.042 N 
ATOM     42  H43 UNL     1      16.879  -4.884   9.157  1.00  0.00     0.278 HD
ATOM     43  H42 UNL     1      16.019  -3.700   9.674  1.00  0.00     0.278 HD
ATOM     44  H41 UNL     1      17.268  -3.342   8.604  1.00  0.00     0.278 HD
ENDBRANCH   4  41
TORSDOF 13
ENDMDL
MODEL 4
REMARK VINA RESULT: -5.334273820      2.836      4.991
REMARK  13 active torsions:
REMARK  status: ('A' for Active; 'I' for Inactive)
REMARK    1  A    between atoms: S1_2  and  C2_3 
REMARK    2  A    between atoms: C2_3  and  C3_4 
REMARK    3  A    between atoms: C4_8  and  C5_9 
REMARK    4  A    between atoms: C5_9  and  O1_10 
REMARK    5  A    between atoms: C6_12  and  N2_13 
REMARK    6  A    between atoms: N2_13  and  C7_15 
REMARK    7  A    between atoms: C8_18  and  N4_19 
REMARK    8  A    between atoms: N7_25  and  N8_26 
REMARK    9  A    between atoms: N9_28  and  N10_30 
REMARK   10  A    between atoms: C9_31  and  O2_32 
REMARK   11  A    between atoms: C10_34  and  O3_35 
REMARK   12  A    between atoms: C11_38  and  N11_39 
REMARK   13  A    between atoms: C12_42  and  O5_43 
ROOT
HETATM    1  C7  UNL     1      23.425  -1.600   8.815  1.00  0.00     0.713 C 
HETATM    2  N3  UNL     1      23.618  -1.315   7.559  1.00  0.00    -0.179 N 
ATOM      3  H3  UNL     1      23.615  -2.040   6.841  1.00  0.00     0.181 HD
HETATM    4  C8  UNL     1      23.836   0.074   7.231  1.00  0.00     0.409 C 
HETATM    5  N5  UNL     1      24.739   0.585   8.262  1.00  0.00    -0.069 NA
HETATM    6  N6  UNL     1      24.014   0.657   9.441  1.00  0.00     0.013 NA
HETATM    7  N7  UNL     1      23.433  -0.566   9.787  1.00  0.00     0.007 N 
ENDROOT
BRANCH   1   8
HETATM    8  N2  UNL     1      23.201  -2.927   9.250  1.00  0.00    -0.214 N 
ATOM      9  H2  UNL     1      22.264  -3.220   9.528  1.00  0.00     0.178 HD
BRANCH   8  10
HETATM   10  C6  UNL     1      24.272  -3.850   9.300  1.00  0.00     0.163 C 
HETATM   11  C4  UNL     1      24.004  -5.174   9.921  1.00  0.00     0.235 C 
HETATM   12  N1  UNL     1      25.244  -5.578  10.601  1.00  0.00    -0.059 N 
HETATM   13  C3  UNL     1      26.265  -4.639  10.131  1.00  0.00     0.226 C 
ATOM     14  H12 UNL     1      25.491  -6.557  10.462  1.00  0.00     0.278 HD
ATOM     15  H11 UNL     1      25.161  -5.620  11.617  1.00  0.00     0.278 HD
HETATM   16  C12 UNL     1      25.452  -3.359  10.132  1.00  0.00     0.174 C 
BRANCH  11  17
HETATM   17  C5  UNL     1      22.933  -5.187  10.971  1.00  0.00     0.199 C 
BRANCH  17  18
HETATM   18  O1  UNL     1      23.595  -5.275  12.219  1.00  0.00    -0.399 OA
ATOM     19  H1  UNL     1      22.989  -4.942  12.870  1.00  0.00     0.209 HD
ENDBRANCH  17  18
ENDBRANCH  11  17
BRANCH  13  20
HETATM   20  C2  UNL     1      27.459  -4.632  11.011  1.00  0.00     0.109 C 
BRANCH  20  21
HETATM   21  S1  UNL     1      28.500  -6.067  10.817  1.00  0.00    -0.171 SA
HETATM   22  C1  UNL     1      29.940  -6.066  11.878  1.00  0.00     0.089 C 
ENDBRANCH  20  21
ENDBRANCH  13  20
BRANCH  16  23
HETATM   23  O5  UNL     1      25.046  -3.051  11.429  1.00  0.00    -0.391 OA
ATOM     24  H5  UNL     1      24.143  -2.753  11.426  1.00  0.00     0.210 HD
ENDBRANCH  16  23
ENDBRANCH   8  10
ENDBRANCH   1   8
BRANCH   7  25
HETATM   25  N8  UNL     1      22.870  -0.770  11.074  1.00  0.00    -0.193 N 
HETATM   26  N9  UNL     1      23.552  -0.377  12.038  1.00  0.00    -0.214 N 
ATOM     27  H9  UNL     1      24.449   0.053  11.818  1.00  0.00     0.210 HD
ATOM     28  H8  UNL     1      21.960  -1.212  11.201  1.00  0.00     0.212 HD
BRANCH  26  29
HETATM   29  N10 UNL     1      23.215  -0.465  13.391  1.00  0.00    -0.176 N 
HETATM   30  C9  UNL     1      22.946  -1.588  14.108  1.00  0.00     0.226 A 
HETATM   31  C10 UNL     1      22.658  -1.249  15.414  1.00  0.00     0.240 A 
HETATM   32  O4  UNL     1      22.757   0.062  15.467  1.00  0.00    -0.251 OA
HETATM   33  C11 UNL     1      23.086   0.539  14.281  1.00  0.00     0.249 A 
BRANCH  30  34
HETATM   34  O2  UNL     1      22.972  -2.860  13.543  1.00  0.00    -0.341 OA
ATOM     35  H2  UNL     1      22.750  -3.641  14.036  1.00  0.00     0.219 HD
ENDBRANCH  30  34
BRANCH  31  36
HETATM   36  O3  UNL     1      22.329  -2.133  16.459  1.00  0.00    -0.337 OA
ATOM     37  H3  UNL     1      21.481  -2.228  16.875  1.00  0.00     0.220 HD
ENDBRANCH  31  36
BRANCH  33  38
HETATM   38  N11 UNL     1      23.246   1.797  14.065  1.00  0.00    -0.363 N 
ATOM     39 2H11 UNL     1      23.504   2.164  13.150  1.00  0.00     0.159 HD
ATOM     40 1H11 UNL     1      23.145   2.557  14.738  1.00  0.00     0.159 HD
ENDBRANCH  33  38
ENDBRANCH  26  29
ENDBRANCH   7  25
BRANCH   4  41
HETATM   41  N4  UNL     1      24.413   0.237   5.911  1.00  0.00    -0.042 N 
ATOM     42  H43 UNL     1      25.151   0.940   5.913  1.00  0.00     0.278 HD
ATOM     43  H42 UNL     1      24.967  -0.578   5.646  1.00  0.00     0.278 HD
ATOM     44  H41 UNL     1      23.705   0.446   5.207  1.00  0.00     0.278 HD
ENDBRANCH   4  41
TORSDOF 13
ENDMDL
MODEL 5
REMARK VINA RESULT: -5.329541974      2.892      5.551
REMARK  13 active torsions:
REMARK  status: ('A' for Active; 'I' for Inactive)
REMARK    1  A    between atoms: S1_2  and  C2_3 
REMARK    2  A    between atoms: C2_3  and  C3_4 
REMARK    3  A    between atoms: C4_8  and  C5_9 
REMARK    4  A    between atoms: C5_9  and  O1_10 
REMARK    5  A    between atoms: C6_12  and  N2_13 
REMARK    6  A    between atoms: N2_13  and  C7_15 
REMARK    7  A    between atoms: C8_18  and  N4_19 
REMARK    8  A    between atoms: N7_25  and  N8_26 
REMARK    9  A    between atoms: N9_28  and  N10_30 
REMARK   10  A    between atoms: C9_31  and  O2_32 
REMARK   11  A    between atoms: C10_34  and  O3_35 
REMARK   12  A    between atoms: C11_38  and  N11_39 
REMARK   13  A    between atoms: C12_42  and  O5_43 
ROOT
HETATM    1  C7  UNL     1      24.331  -1.976  10.936  1.00  0.00     0.713 C 
HETATM    2  N3  UNL     1      25.001  -2.131   9.830  1.00  0.00    -0.179 N 
ATOM      3  H3  UNL     1      25.066  -3.038   9.368  1.00  0.00     0.181 HD
HETATM    4  C8  UNL     1      25.647  -0.958   9.289  1.00  0.00     0.409 C 
HETATM    5  N5  UNL     1      26.243  -0.272  10.435  1.00  0.00    -0.069 NA
HETATM    6  N6  UNL     1      25.202   0.264  11.177  1.00  0.00     0.013 NA
HETATM    7  N7  UNL     1      24.261  -0.699  11.551  1.00  0.00     0.007 N 
ENDROOT
BRANCH   1   8
HETATM    8  N2  UNL     1      23.660  -3.056  11.554  1.00  0.00    -0.214 N 
ATOM      9  H2  UNL     1      23.697  -3.165  12.568  1.00  0.00     0.178 HD
BRANCH   8  10
HETATM   10  C6  UNL     1      22.937  -3.987  10.772  1.00  0.00     0.163 C 
HETATM   11  C4  UNL     1      21.509  -3.681  10.492  1.00  0.00     0.235 C 
HETATM   12  N1  UNL     1      20.802  -4.970  10.463  1.00  0.00    -0.059 N 
HETATM   13  C3  UNL     1      21.855  -5.988  10.441  1.00  0.00     0.226 C 
ATOM     14  H12 UNL     1      20.132  -5.056   9.699  1.00  0.00     0.278 HD
ATOM     15  H11 UNL     1      20.132  -5.089  11.222  1.00  0.00     0.278 HD
HETATM   16  C12 UNL     1      22.831  -5.364  11.419  1.00  0.00     0.174 C 
BRANCH  11  17
HETATM   17  C5  UNL     1      20.814  -2.851  11.530  1.00  0.00     0.199 C 
BRANCH  17  18
HETATM   18  O1  UNL     1      20.912  -1.505  11.101  1.00  0.00    -0.399 OA
ATOM     19  H1  UNL     1      21.287  -1.527  10.228  1.00  0.00     0.209 HD
ENDBRANCH  17  18
ENDBRANCH  11  17
BRANCH  13  20
HETATM   20  C2  UNL     1      21.341  -7.326  10.824  1.00  0.00     0.109 C 
BRANCH  20  21
HETATM   21  S1  UNL     1      19.592  -7.351  11.170  1.00  0.00    -0.171 SA
HETATM   22  C1  UNL     1      19.194  -7.160  12.903  1.00  0.00     0.089 C 
ENDBRANCH  20  21
ENDBRANCH  13  20
BRANCH  16  23
HETATM   23  O5  UNL     1      22.249  -5.270  12.682  1.00  0.00    -0.391 OA
ATOM     24  H5  UNL     1      22.369  -4.395  13.033  1.00  0.00     0.210 HD
ENDBRANCH  16  23
ENDBRANCH   8  10
ENDBRANCH   1   8
BRANCH   7  25
HETATM   25  N8  UNL     1      23.264  -0.409  12.518  1.00  0.00    -0.193 N 
HETATM   26  N9  UNL     1      23.539  -0.707  13.695  1.00  0.00    -0.214 N 
ATOM     27  H9  UNL     1      24.452  -1.131  13.857  1.00  0.00     0.210 HD
ATOM     28  H8  UNL     1      22.373   0.018  12.265  1.00  0.00     0.212 HD
BRANCH  26  29
HETATM   29  N10 UNL     1      22.728  -0.522  14.816  1.00  0.00    -0.176 N 
HETATM   30  C9  UNL     1      22.137   0.630  15.232  1.00  0.00     0.226 A 
HETATM   31  C10 UNL     1      21.417   0.393  16.385  1.00  0.00     0.240 A 
HETATM   32  O4  UNL     1      21.579  -0.886  16.646  1.00  0.00    -0.251 OA
HETATM   33  C11 UNL     1      22.351  -1.440  15.728  1.00  0.00     0.249 A 
BRANCH  30  34
HETATM   34  O2  UNL     1      22.283   1.833  14.550  1.00  0.00    -0.341 OA
ATOM     35  H2  UNL     1      22.954   2.468  14.772  1.00  0.00     0.219 HD
ENDBRANCH  30  34
BRANCH  31  36
HETATM   36  O3  UNL     1      20.668   1.335  17.116  1.00  0.00    -0.337 OA
ATOM     37  H3  UNL     1      19.851   1.177  17.573  1.00  0.00     0.220 HD
ENDBRANCH  31  36
BRANCH  33  38
HETATM   38  N11 UNL     1      22.665  -2.687  15.755  1.00  0.00    -0.363 N 
ATOM     39 2H11 UNL     1      23.538  -3.038  15.361  1.00  0.00     0.159 HD
ATOM     40 1H11 UNL     1      22.119  -3.454  16.149  1.00  0.00     0.159 HD
ENDBRANCH  33  38
ENDBRANCH  26  29
ENDBRANCH   7  25
BRANCH   4  41
HETATM   41  N4  UNL     1      26.658  -1.298   8.307  1.00  0.00    -0.042 N 
ATOM     42  H43 UNL     1      26.673  -2.302   8.124  1.00  0.00     0.278 HD
ATOM     43  H42 UNL     1      26.397  -0.969   7.377  1.00  0.00     0.278 HD
ATOM     44  H41 UNL     1      27.581  -0.957   8.574  1.00  0.00     0.278 HD
ENDBRANCH   4  41
TORSDOF 13
ENDMDL
