MODEL 1
REMARK VINA RESULT: -5.552330403      0.000      0.000
REMARK  8 active torsions:
REMARK  status: ('A' for Active; 'I' for Inactive)
REMARK    1  A    between atoms: N1_1  and  C1_4 
REMARK    2  A    between atoms: C2_8  and  N3_9 
REMARK    3  A    between atoms: N3_9  and  S2_11 
REMARK    4  A    between atoms: C3_15  and  C4_16 
REMARK    5  A    between atoms: C4_16  and  O4_17 
REMARK    6  A    between atoms: C4_16  and  O5_19 
REMARK    7  A    between atoms: C5_21  and  N4_22 
REMARK    8  A    between atoms: N4_22  and  O6_24 
ROOT
HETATM    1  C1  UNL     1      56.210  36.832  22.106  1.00  0.00     0.135 A 
HETATM    2  N2  UNL     1      56.988  36.085  22.945  1.00  0.00    -0.309 N 
ATOM      3  H2  UNL     1      56.668  35.187  23.308  1.00  0.00     0.176 HD
HETATM    4  S1  UNL     1      58.480  36.702  23.349  1.00  0.00     0.007 SA
HETATM    5  C2  UNL     1      58.814  38.202  22.638  1.00  0.00     0.116 A 
HETATM    6  C3  UNL     1      57.819  38.687  21.842  1.00  0.00     0.064 A 
HETATM    7  C5  UNL     1      56.633  38.072  21.595  1.00  0.00     0.112 A 
ENDROOT
BRANCH   5   8
HETATM    8  N3  UNL     1      59.936  38.864  22.794  1.00  0.00    -0.258 N 
ATOM      9  H3  UNL     1      59.982  39.574  23.525  1.00  0.00     0.182 HD
BRANCH   8  10
HETATM   10  S2  UNL     1      61.324  38.595  21.836  1.00  0.00     0.209 S 
HETATM   11  O1  UNL     1      62.352  37.731  22.516  1.00  0.00    -0.578 OA
HETATM   12  O2  UNL     1      61.983  39.879  21.397  1.00  0.00    -0.578 OA
HETATM   13  O3  UNL     1      60.841  37.747  20.447  1.00  0.00    -0.578 OA
ENDBRANCH   8  10
ENDBRANCH   5   8
BRANCH   6  14
HETATM   14  C4  UNL     1      58.041  40.043  21.158  1.00  0.00     0.293 C 
BRANCH  14  15
HETATM   15  O4  UNL     1      58.246  40.947  22.211  1.00  0.00    -0.367 OA
ATOM     16  H4  UNL     1      58.072  41.802  21.835  1.00  0.00     0.213 HD
ENDBRANCH  14  15
BRANCH  14  17
HETATM   17  O5  UNL     1      59.147  40.016  20.370  1.00  0.00    -0.367 OA
ATOM     18  H5  UNL     1      59.088  40.665  19.678  1.00  0.00     0.213 HD
ENDBRANCH  14  17
ENDBRANCH   6  14
BRANCH   7  19
HETATM   19  N4  UNL     1      55.663  38.689  20.711  1.00  0.00    -0.265 N 
ATOM     20  H4  UNL     1      55.656  38.563  19.698  1.00  0.00     0.194 HD
BRANCH  19  21
HETATM   21  O6  UNL     1      54.826  39.403  21.340  1.00  0.00    -0.289 OA
ATOM     22  H6  UNL     1      54.020  38.934  21.525  1.00  0.00     0.244 HD
ENDBRANCH  19  21
ENDBRANCH   7  19
BRANCH   1  23
HETATM   23  N1  UNL     1      55.107  36.359  21.795  1.00  0.00    -0.383 N 
ATOM     24  H12 UNL     1      54.420  36.119  22.510  1.00  0.00     0.157 HD
ATOM     25  H11 UNL     1      54.921  36.238  20.799  1.00  0.00     0.157 HD
ENDBRANCH   1  23
TORSDOF 8
ENDMDL
MODEL 2
REMARK VINA RESULT: -4.575737610      3.117      5.842
REMARK  8 active torsions:
REMARK  status: ('A' for Active; 'I' for Inactive)
REMARK    1  A    between atoms: N1_1  and  C1_4 
REMARK    2  A    between atoms: C2_8  and  N3_9 
REMARK    3  A    between atoms: N3_9  and  S2_11 
REMARK    4  A    between atoms: C3_15  and  C4_16 
REMARK    5  A    between atoms: C4_16  and  O4_17 
REMARK    6  A    between atoms: C4_16  and  O5_19 
REMARK    7  A    between atoms: C5_21  and  N4_22 
REMARK    8  A    between atoms: N4_22  and  O6_24 
ROOT
HETATM    1  C1  UNL     1      58.689  38.862  21.137  1.00  0.00     0.135 A 
HETATM    2  N2  UNL     1      58.391  39.967  20.390  1.00  0.00    -0.309 N 
ATOM      3  H2  UNL     1      59.125  40.556  19.997  1.00  0.00     0.176 HD
HETATM    4  S1  UNL     1      56.780  40.310  20.148  1.00  0.00     0.007 SA
HETATM    5  C2  UNL     1      55.729  39.206  20.885  1.00  0.00     0.116 A 
HETATM    6  C3  UNL     1      56.348  38.200  21.567  1.00  0.00     0.064 A 
HETATM    7  C5  UNL     1      57.691  38.037  21.687  1.00  0.00     0.112 A 
ENDROOT
BRANCH   5   8
HETATM    8  N3  UNL     1      54.420  39.263  20.808  1.00  0.00    -0.258 N 
ATOM      9  H3  UNL     1      53.874  38.603  21.362  1.00  0.00     0.182 HD
BRANCH   8  10
HETATM   10  S2  UNL     1      53.587  40.387  19.828  1.00  0.00     0.209 S 
HETATM   11  O1  UNL     1      52.203  39.927  19.451  1.00  0.00    -0.578 OA
HETATM   12  O2  UNL     1      54.343  40.731  18.570  1.00  0.00    -0.578 OA
HETATM   13  O3  UNL     1      53.381  41.810  20.728  1.00  0.00    -0.578 OA
ENDBRANCH   8  10
ENDBRANCH   5   8
BRANCH   6  14
HETATM   14  C4  UNL     1      55.467  37.155  22.265  1.00  0.00     0.293 C 
BRANCH  14  15
HETATM   15  O4  UNL     1      55.637  35.983  21.514  1.00  0.00    -0.367 OA
ATOM     16  H4  UNL     1      55.303  36.196  20.651  1.00  0.00     0.213 HD
ENDBRANCH  14  15
BRANCH  14  17
HETATM   17  O5  UNL     1      55.888  36.935  23.538  1.00  0.00    -0.367 OA
ATOM     18  H5  UNL     1      56.740  36.516  23.547  1.00  0.00     0.213 HD
ENDBRANCH  14  17
ENDBRANCH   6  14
BRANCH   7  19
HETATM   19  N4  UNL     1      58.224  36.910  22.429  1.00  0.00    -0.265 N 
ATOM     20  H4  UNL     1      58.161  35.942  22.113  1.00  0.00     0.194 HD
BRANCH  19  21
HETATM   21  O6  UNL     1      58.776  37.266  23.513  1.00  0.00    -0.289 OA
ATOM     22  H6  UNL     1      58.822  36.557  24.143  1.00  0.00     0.244 HD
ENDBRANCH  19  21
ENDBRANCH   7  19
BRANCH   1  23
HETATM   23  N1  UNL     1      59.890  38.602  21.299  1.00  0.00    -0.383 N 
ATOM     24  H12 UNL     1      60.405  38.059  20.606  1.00  0.00     0.157 HD
ATOM     25  H11 UNL     1      60.331  38.966  22.143  1.00  0.00     0.157 HD
ENDBRANCH   1  23
TORSDOF 8
ENDMDL
MODEL 3
REMARK VINA RESULT: -4.535909771      3.071      5.784
REMARK  8 active torsions:
REMARK  status: ('A' for Active; 'I' for Inactive)
REMARK    1  A    between atoms: N1_1  and  C1_4 
REMARK    2  A    between atoms: C2_8  and  N3_9 
REMARK    3  A    between atoms: N3_9  and  S2_11 
REMARK    4  A    between atoms: C3_15  and  C4_16 
REMARK    5  A    between atoms: C4_16  and  O4_17 
REMARK    6  A    between atoms: C4_16  and  O5_19 
REMARK    7  A    between atoms: C5_21  and  N4_22 
REMARK    8  A    between atoms: N4_22  and  O6_24 
ROOT
HETATM    1  C1  UNL     1      58.785  38.931  21.219  1.00  0.00     0.135 A 
HETATM    2  N2  UNL     1      58.474  39.953  20.367  1.00  0.00    -0.309 N 
ATOM      3  H2  UNL     1      59.199  40.532  19.945  1.00  0.00     0.176 HD
HETATM    4  S1  UNL     1      56.861  40.211  20.046  1.00  0.00     0.007 SA
HETATM    5  C2  UNL     1      55.825  39.138  20.846  1.00  0.00     0.116 A 
HETATM    6  C3  UNL     1      56.456  38.221  21.635  1.00  0.00     0.064 A 
HETATM    7  C5  UNL     1      57.799  38.120  21.810  1.00  0.00     0.112 A 
ENDROOT
BRANCH   5   8
HETATM    8  N3  UNL     1      54.519  39.138  20.725  1.00  0.00    -0.258 N 
ATOM      9  H3  UNL     1      53.994  38.368  21.140  1.00  0.00     0.182 HD
BRANCH   8  10
HETATM   10  S2  UNL     1      53.653  40.362  19.907  1.00  0.00     0.209 S 
HETATM   11  O1  UNL     1      53.604  41.659  20.671  1.00  0.00    -0.578 OA
HETATM   12  O2  UNL     1      52.245  39.947  19.566  1.00  0.00    -0.578 OA
HETATM   13  O3  UNL     1      54.471  40.699  18.459  1.00  0.00    -0.578 OA
ENDBRANCH   8  10
ENDBRANCH   5   8
BRANCH   6  14
HETATM   14  C4  UNL     1      55.589  37.209  22.398  1.00  0.00     0.293 C 
BRANCH  14  15
HETATM   15  O4  UNL     1      55.609  36.052  21.606  1.00  0.00    -0.367 OA
ATOM     16  H4  UNL     1      55.712  36.367  20.716  1.00  0.00     0.213 HD
ENDBRANCH  14  15
BRANCH  14  17
HETATM   17  O5  UNL     1      56.125  36.928  23.614  1.00  0.00    -0.367 OA
ATOM     18  H5  UNL     1      56.885  37.471  23.785  1.00  0.00     0.213 HD
ENDBRANCH  14  17
ENDBRANCH   6  14
BRANCH   7  19
HETATM   19  N4  UNL     1      58.346  37.085  22.667  1.00  0.00    -0.265 N 
ATOM     20  H4  UNL     1      58.317  36.090  22.444  1.00  0.00     0.194 HD
BRANCH  19  21
HETATM   21  O6  UNL     1      58.862  37.559  23.723  1.00  0.00    -0.289 OA
ATOM     22  H6  UNL     1      58.979  38.500  23.676  1.00  0.00     0.244 HD
ENDBRANCH  19  21
ENDBRANCH   7  19
BRANCH   1  23
HETATM   23  N1  UNL     1      59.989  38.732  21.441  1.00  0.00    -0.383 N 
ATOM     24  H12 UNL     1      60.465  37.920  21.048  1.00  0.00     0.157 HD
ATOM     25  H11 UNL     1      60.472  39.421  22.017  1.00  0.00     0.157 HD
ENDBRANCH   1  23
TORSDOF 8
ENDMDL
MODEL 4
REMARK VINA RESULT: -4.500466948      3.107      5.783
REMARK  8 active torsions:
REMARK  status: ('A' for Active; 'I' for Inactive)
REMARK    1  A    between atoms: N1_1  and  C1_4 
REMARK    2  A    between atoms: C2_8  and  N3_9 
REMARK    3  A    between atoms: N3_9  and  S2_11 
REMARK    4  A    between atoms: C3_15  and  C4_16 
REMARK    5  A    between atoms: C4_16  and  O4_17 
REMARK    6  A    between atoms: C4_16  and  O5_19 
REMARK    7  A    between atoms: C5_21  and  N4_22 
REMARK    8  A    between atoms: N4_22  and  O6_24 
ROOT
HETATM    1  C1  UNL     1      58.738  38.827  21.144  1.00  0.00     0.135 A 
HETATM    2  N2  UNL     1      58.462  39.922  20.374  1.00  0.00    -0.309 N 
ATOM      3  H2  UNL     1      59.208  40.495  19.979  1.00  0.00     0.176 HD
HETATM    4  S1  UNL     1      56.859  40.280  20.108  1.00  0.00     0.007 SA
HETATM    5  C2  UNL     1      55.786  39.204  20.852  1.00  0.00     0.116 A 
HETATM    6  C3  UNL     1      56.385  38.202  21.559  1.00  0.00     0.064 A 
HETATM    7  C5  UNL     1      57.724  38.024  21.697  1.00  0.00     0.112 A 
ENDROOT
BRANCH   5   8
HETATM    8  N3  UNL     1      54.479  39.275  20.760  1.00  0.00    -0.258 N 
ATOM      9  H3  UNL     1      53.919  38.584  21.260  1.00  0.00     0.182 HD
BRANCH   8  10
HETATM   10  S2  UNL     1      53.668  40.468  19.845  1.00  0.00     0.209 S 
HETATM   11  O1  UNL     1      54.375  40.807  18.559  1.00  0.00    -0.578 OA
HETATM   12  O2  UNL     1      53.441  41.740  20.623  1.00  0.00    -0.578 OA
HETATM   13  O3  UNL     1      52.155  39.843  19.400  1.00  0.00    -0.578 OA
ENDBRANCH   8  10
ENDBRANCH   5   8
BRANCH   6  14
HETATM   14  C4  UNL     1      55.483  37.181  22.266  1.00  0.00     0.293 C 
BRANCH  14  15
HETATM   15  O4  UNL     1      55.638  35.996  21.532  1.00  0.00    -0.367 OA
ATOM     16  H4  UNL     1      56.139  35.422  22.099  1.00  0.00     0.213 HD
ENDBRANCH  14  15
BRANCH  14  17
HETATM   17  O5  UNL     1      55.893  36.972  23.544  1.00  0.00    -0.367 OA
ATOM     18  H5  UNL     1      56.469  36.218  23.597  1.00  0.00     0.213 HD
ENDBRANCH  14  17
ENDBRANCH   6  14
BRANCH   7  19
HETATM   19  N4  UNL     1      58.234  36.904  22.465  1.00  0.00    -0.265 N 
ATOM     20  H4  UNL     1      58.153  35.931  22.172  1.00  0.00     0.194 HD
BRANCH  19  21
HETATM   21  O6  UNL     1      58.792  37.274  23.541  1.00  0.00    -0.289 OA
ATOM     22  H6  UNL     1      58.168  37.389  24.249  1.00  0.00     0.244 HD
ENDBRANCH  19  21
ENDBRANCH   7  19
BRANCH   1  23
HETATM   23  N1  UNL     1      59.934  38.555  21.324  1.00  0.00    -0.383 N 
ATOM     24  H12 UNL     1      60.663  39.237  21.115  1.00  0.00     0.157 HD
ATOM     25  H11 UNL     1      60.145  37.631  21.701  1.00  0.00     0.157 HD
ENDBRANCH   1  23
TORSDOF 8
ENDMDL
MODEL 5
REMARK VINA RESULT: -4.303045632      3.785      6.412
REMARK  8 active torsions:
REMARK  status: ('A' for Active; 'I' for Inactive)
REMARK    1  A    between atoms: N1_1  and  C1_4 
REMARK    2  A    between atoms: C2_8  and  N3_9 
REMARK    3  A    between atoms: N3_9  and  S2_11 
REMARK    4  A    between atoms: C3_15  and  C4_16 
REMARK    5  A    between atoms: C4_16  and  O4_17 
REMARK    6  A    between atoms: C4_16  and  O5_19 
REMARK    7  A    between atoms: C5_21  and  N4_22 
REMARK    8  A    between atoms: N4_22  and  O6_24 
ROOT
HETATM    1  C1  UNL     1      64.121  38.356  21.480  1.00  0.00     0.135 A 
HETATM    2  N2  UNL     1      63.410  39.161  22.324  1.00  0.00    -0.309 N 
ATOM      3  H2  UNL     1      63.878  39.802  22.965  1.00  0.00     0.176 HD
HETATM    4  S1  UNL     1      61.751  39.053  22.261  1.00  0.00     0.007 SA
HETATM    5  C2  UNL     1      61.181  37.931  21.130  1.00  0.00     0.116 A 
HETATM    6  C3  UNL     1      62.158  37.279  20.435  1.00  0.00     0.064 A 
HETATM    7  C5  UNL     1      63.495  37.466  20.588  1.00  0.00     0.112 A 
ENDROOT
BRANCH   5   8
HETATM    8  N3  UNL     1      59.913  37.695  20.891  1.00  0.00    -0.258 N 
ATOM      9  H3  UNL     1      59.673  36.941  20.247  1.00  0.00     0.182 HD
BRANCH   8  10
HETATM   10  S2  UNL     1      58.644  38.588  21.604  1.00  0.00     0.209 S 
HETATM   11  O1  UNL     1      58.827  40.077  21.478  1.00  0.00    -0.578 OA
HETATM   12  O2  UNL     1      58.441  38.246  23.059  1.00  0.00    -0.578 OA
HETATM   13  O3  UNL     1      57.213  38.217  20.770  1.00  0.00    -0.578 OA
ENDBRANCH   8  10
ENDBRANCH   5   8
BRANCH   6  14
HETATM   14  C4  UNL     1      61.728  36.243  19.388  1.00  0.00     0.293 C 
BRANCH  14  15
HETATM   15  O4  UNL     1      62.204  36.746  18.168  1.00  0.00    -0.367 OA
ATOM     16  H4  UNL     1      62.614  36.002  17.742  1.00  0.00     0.213 HD
ENDBRANCH  14  15
BRANCH  14  17
HETATM   17  O5  UNL     1      62.305  35.037  19.629  1.00  0.00    -0.367 OA
ATOM     18  H5  UNL     1      61.662  34.339  19.595  1.00  0.00     0.213 HD
ENDBRANCH  14  17
ENDBRANCH   6  14
BRANCH   7  19
HETATM   19  N4  UNL     1      64.432  36.718  19.771  1.00  0.00    -0.265 N 
ATOM     20  H4  UNL     1      64.689  36.978  18.819  1.00  0.00     0.194 HD
BRANCH  19  21
HETATM   21  O6  UNL     1      64.895  35.705  20.376  1.00  0.00    -0.289 OA
ATOM     22  H6  UNL     1      64.805  34.909  19.866  1.00  0.00     0.244 HD
ENDBRANCH  19  21
ENDBRANCH   7  19
BRANCH   1  23
HETATM   23  N1  UNL     1      65.356  38.453  21.518  1.00  0.00    -0.383 N 
ATOM     24  H12 UNL     1      65.902  37.916  22.192  1.00  0.00     0.157 HD
ATOM     25  H11 UNL     1      65.791  39.079  20.841  1.00  0.00     0.157 HD
ENDBRANCH   1  23
TORSDOF 8
ENDMDL
