MODEL 1
REMARK VINA RESULT: -4.704057301      0.000      0.000
REMARK  6 active torsions:
REMARK  status: ('A' for Active; 'I' for Inactive)
REMARK    1  A    between atoms: C2_2  and  O1_3 
REMARK    2  A    between atoms: C2_2  and  C3_5 
REMARK       I    between atoms: C3_5  and  N1_7 
REMARK    3  A    between atoms: N1_7  and  C4_8 
REMARK    4  A    between atoms: C5_9  and  N2_10 
REMARK    5  A    between atoms: C6_13  and  N3_14 
REMARK    6  A    between atoms: C8_18  and  O3_19 
ROOT
HETATM    1  C4  UNL     1      56.434  38.433  22.601  1.00  0.00     0.330 A 
HETATM    2  C5  UNL     1      55.914  39.181  21.363  1.00  0.00     0.088 A 
HETATM    3  C6  UNL     1      57.084  39.606  20.635  1.00  0.00     0.085 A 
HETATM    4  C7  UNL     1      58.266  39.109  21.333  1.00  0.00     0.121 A 
HETATM    5  C8  UNL     1      59.646  39.026  21.332  1.00  0.00     0.176 A 
HETATM    6  N4  UNL     1      60.079  38.311  22.390  1.00  0.00    -0.282 N 
HETATM    7  C9  UNL     1      61.471  38.003  22.733  1.00  0.00     0.163 C 
HETATM    8  C10 UNL     1      58.971  37.945  23.052  1.00  0.00     0.334 A 
HETATM    9  O4  UNL     1      59.004  37.257  24.096  1.00  0.00    -0.246 OA
HETATM   10  N5  UNL     1      57.859  38.438  22.404  1.00  0.00    -0.254 N 
ENDROOT
BRANCH   1  11
HETATM   11  N1  UNL     1      55.832  37.202  22.710  1.00  0.00    -0.379 NA
HETATM   12  C3  UNL     1      55.251  36.017  22.815  1.00  0.00     0.317 C 
HETATM   13  O2  UNL     1      54.033  35.800  23.185  1.00  0.00    -0.255 OA
BRANCH  12  14
HETATM   14  C2  UNL     1      55.979  34.732  22.512  1.00  0.00     0.220 C 
HETATM   15  C1  UNL     1      55.486  33.664  23.418  1.00  0.00     0.050 C 
BRANCH  14  16
HETATM   16  O1  UNL     1      57.333  34.973  22.598  1.00  0.00    -0.385 OA
ATOM     17  H1  UNL     1      57.719  35.332  21.808  1.00  0.00     0.210 HD
ENDBRANCH  14  16
ENDBRANCH  12  14
ENDBRANCH   1  11
BRANCH   2  18
HETATM   18  N2  UNL     1      54.683  39.339  21.136  1.00  0.00    -0.396 N 
ATOM     19  H22 UNL     1      53.856  38.953  21.590  1.00  0.00     0.156 HD
ATOM     20  H21 UNL     1      54.338  39.934  20.382  1.00  0.00     0.156 HD
ENDBRANCH   2  18
BRANCH   3  21
HETATM   21  N3  UNL     1      57.075  40.312  19.537  1.00  0.00    -0.395 N 
ATOM     22  H32 UNL     1      56.964  39.953  18.589  1.00  0.00     0.156 HD
ATOM     23  H31 UNL     1      57.176  41.325  19.487  1.00  0.00     0.156 HD
ENDBRANCH   3  21
BRANCH   5  24
HETATM   24  O3  UNL     1      60.457  39.607  20.369  1.00  0.00    -0.344 OA
ATOM     25  H3  UNL     1      60.322  40.479  20.016  1.00  0.00     0.219 HD
ENDBRANCH   5  24
TORSDOF 6
ENDMDL
MODEL 2
REMARK VINA RESULT: -4.538924938      0.766      1.042
REMARK  6 active torsions:
REMARK  status: ('A' for Active; 'I' for Inactive)
REMARK    1  A    between atoms: C2_2  and  O1_3 
REMARK    2  A    between atoms: C2_2  and  C3_5 
REMARK       I    between atoms: C3_5  and  N1_7 
REMARK    3  A    between atoms: N1_7  and  C4_8 
REMARK    4  A    between atoms: C5_9  and  N2_10 
REMARK    5  A    between atoms: C6_13  and  N3_14 
REMARK    6  A    between atoms: C8_18  and  O3_19 
ROOT
HETATM    1  C4  UNL     1      56.679  38.185  22.632  1.00  0.00     0.330 A 
HETATM    2  C5  UNL     1      56.086  38.945  21.435  1.00  0.00     0.088 A 
HETATM    3  C6  UNL     1      57.210  39.489  20.714  1.00  0.00     0.085 A 
HETATM    4  C7  UNL     1      58.436  39.053  21.375  1.00  0.00     0.121 A 
HETATM    5  C8  UNL     1      59.818  39.076  21.355  1.00  0.00     0.176 A 
HETATM    6  N4  UNL     1      60.319  38.349  22.374  1.00  0.00    -0.282 N 
HETATM    7  C9  UNL     1      61.736  38.134  22.687  1.00  0.00     0.163 C 
HETATM    8  C10 UNL     1      59.252  37.871  23.032  1.00  0.00     0.334 A 
HETATM    9  O4  UNL     1      59.351  37.142  24.044  1.00  0.00    -0.246 OA
HETATM   10  N5  UNL     1      58.096  38.306  22.419  1.00  0.00    -0.254 N 
ENDROOT
BRANCH   1  11
HETATM   11  N1  UNL     1      56.173  36.908  22.692  1.00  0.00    -0.379 NA
HETATM   12  C3  UNL     1      55.686  35.678  22.749  1.00  0.00     0.317 C 
HETATM   13  O2  UNL     1      55.221  35.000  21.753  1.00  0.00    -0.255 OA
BRANCH  12  14
HETATM   14  C2  UNL     1      55.609  34.900  24.038  1.00  0.00     0.220 C 
HETATM   15  C1  UNL     1      55.310  33.478  23.734  1.00  0.00     0.050 C 
BRANCH  14  16
HETATM   16  O1  UNL     1      54.685  35.514  24.856  1.00  0.00    -0.385 OA
ATOM     17  H1  UNL     1      55.004  36.297  25.290  1.00  0.00     0.210 HD
ENDBRANCH  14  16
ENDBRANCH  12  14
ENDBRANCH   1  11
BRANCH   2  18
HETATM   18  N2  UNL     1      54.843  39.019  21.229  1.00  0.00    -0.396 N 
ATOM     19  H22 UNL     1      54.262  38.675  20.465  1.00  0.00     0.156 HD
ATOM     20  H21 UNL     1      54.209  39.491  21.874  1.00  0.00     0.156 HD
ENDBRANCH   2  18
BRANCH   3  21
HETATM   21  N3  UNL     1      57.131  40.240  19.649  1.00  0.00    -0.395 N 
ATOM     22  H32 UNL     1      57.431  39.987  18.708  1.00  0.00     0.156 HD
ATOM     23  H31 UNL     1      56.753  41.186  19.622  1.00  0.00     0.156 HD
ENDBRANCH   3  21
BRANCH   5  24
HETATM   24  O3  UNL     1      60.569  39.759  20.410  1.00  0.00    -0.344 OA
ATOM     25  H3  UNL     1      61.262  40.371  20.624  1.00  0.00     0.219 HD
ENDBRANCH   5  24
TORSDOF 6
ENDMDL
MODEL 3
REMARK VINA RESULT: -4.435363033      2.705      5.120
REMARK  6 active torsions:
REMARK  status: ('A' for Active; 'I' for Inactive)
REMARK    1  A    between atoms: C2_2  and  O1_3 
REMARK    2  A    between atoms: C2_2  and  C3_5 
REMARK       I    between atoms: C3_5  and  N1_7 
REMARK    3  A    between atoms: N1_7  and  C4_8 
REMARK    4  A    between atoms: C5_9  and  N2_10 
REMARK    5  A    between atoms: C6_13  and  N3_14 
REMARK    6  A    between atoms: C8_18  and  O3_19 
ROOT
HETATM    1  C4  UNL     1      56.326  39.287  21.511  1.00  0.00     0.330 A 
HETATM    2  C5  UNL     1      57.786  39.311  21.033  1.00  0.00     0.088 A 
HETATM    3  C6  UNL     1      58.340  38.027  21.384  1.00  0.00     0.085 A 
HETATM    4  C7  UNL     1      57.285  37.221  21.991  1.00  0.00     0.121 A 
HETATM    5  C8  UNL     1      56.952  35.996  22.538  1.00  0.00     0.176 A 
HETATM    6  N4  UNL     1      55.651  35.973  22.891  1.00  0.00    -0.282 N 
HETATM    7  C9  UNL     1      54.925  34.854  23.502  1.00  0.00     0.163 C 
HETATM    8  C10 UNL     1      55.170  37.183  22.566  1.00  0.00     0.334 A 
HETATM    9  O4  UNL     1      53.977  37.510  22.756  1.00  0.00    -0.246 OA
HETATM   10  N5  UNL     1      56.175  37.949  22.016  1.00  0.00    -0.254 N 
ENDROOT
BRANCH   1  11
HETATM   11  N1  UNL     1      55.478  39.661  20.496  1.00  0.00    -0.379 NA
HETATM   12  C3  UNL     1      54.661  40.020  19.518  1.00  0.00     0.317 C 
HETATM   13  O2  UNL     1      54.938  40.003  18.256  1.00  0.00    -0.255 OA
BRANCH  12  14
HETATM   14  C2  UNL     1      53.262  40.517  19.776  1.00  0.00     0.220 C 
HETATM   15  C1  UNL     1      52.506  40.537  18.498  1.00  0.00     0.050 C 
BRANCH  14  16
HETATM   16  O1  UNL     1      53.350  41.741  20.406  1.00  0.00    -0.385 OA
ATOM     17  H1  UNL     1      53.535  42.469  19.825  1.00  0.00     0.210 HD
ENDBRANCH  14  16
ENDBRANCH  12  14
ENDBRANCH   1  11
BRANCH   2  18
HETATM   18  N2  UNL     1      58.295  40.315  20.463  1.00  0.00    -0.396 N 
ATOM     19  H22 UNL     1      58.220  41.314  20.657  1.00  0.00     0.156 HD
ATOM     20  H21 UNL     1      58.903  40.232  19.648  1.00  0.00     0.156 HD
ENDBRANCH   2  18
BRANCH   3  21
HETATM   21  N3  UNL     1      59.576  37.658  21.184  1.00  0.00    -0.395 N 
ATOM     22  H32 UNL     1      60.380  37.904  21.761  1.00  0.00     0.156 HD
ATOM     23  H31 UNL     1      59.899  37.067  20.418  1.00  0.00     0.156 HD
ENDBRANCH   3  21
BRANCH   5  24
HETATM   24  O3  UNL     1      57.845  34.947  22.694  1.00  0.00    -0.344 OA
ATOM     25  H3  UNL     1      57.596  34.073  22.972  1.00  0.00     0.219 HD
ENDBRANCH   5  24
TORSDOF 6
ENDMDL
MODEL 4
REMARK VINA RESULT: -4.280042875      2.388      5.514
REMARK  6 active torsions:
REMARK  status: ('A' for Active; 'I' for Inactive)
REMARK    1  A    between atoms: C2_2  and  O1_3 
REMARK    2  A    between atoms: C2_2  and  C3_5 
REMARK       I    between atoms: C3_5  and  N1_7 
REMARK    3  A    between atoms: N1_7  and  C4_8 
REMARK    4  A    between atoms: C5_9  and  N2_10 
REMARK    5  A    between atoms: C6_13  and  N3_14 
REMARK    6  A    between atoms: C8_18  and  O3_19 
ROOT
HETATM    1  C4  UNL     1      59.140  38.731  22.214  1.00  0.00     0.330 A 
HETATM    2  C5  UNL     1      58.707  37.773  23.334  1.00  0.00     0.088 A 
HETATM    3  C6  UNL     1      57.275  37.648  23.219  1.00  0.00     0.085 A 
HETATM    4  C7  UNL     1      56.837  38.429  22.067  1.00  0.00     0.121 A 
HETATM    5  C8  UNL     1      55.762  38.814  21.286  1.00  0.00     0.176 A 
HETATM    6  N4  UNL     1      56.172  39.601  20.272  1.00  0.00    -0.282 N 
HETATM    7  C9  UNL     1      55.330  40.207  19.234  1.00  0.00     0.163 C 
HETATM    8  C10 UNL     1      57.501  39.709  20.415  1.00  0.00     0.334 A 
HETATM    9  O4  UNL     1      58.215  40.374  19.632  1.00  0.00    -0.246 OA
HETATM   10  N5  UNL     1      57.908  38.991  21.519  1.00  0.00    -0.254 N 
ENDROOT
BRANCH   1  11
HETATM   11  N1  UNL     1      60.160  38.182  21.474  1.00  0.00    -0.379 NA
HETATM   12  C3  UNL     1      61.140  37.652  20.759  1.00  0.00     0.317 C 
HETATM   13  O2  UNL     1      60.999  36.863  19.746  1.00  0.00    -0.255 OA
BRANCH  12  14
HETATM   14  C2  UNL     1      62.593  37.912  21.065  1.00  0.00     0.220 C 
HETATM   15  C1  UNL     1      63.421  36.838  20.461  1.00  0.00     0.050 C 
BRANCH  14  16
HETATM   16  O1  UNL     1      62.730  38.037  22.432  1.00  0.00    -0.385 OA
ATOM     17  H1  UNL     1      63.629  38.051  22.736  1.00  0.00     0.210 HD
ENDBRANCH  14  16
ENDBRANCH  12  14
ENDBRANCH   1  11
BRANCH   2  18
HETATM   18  N2  UNL     1      59.530  37.261  24.143  1.00  0.00    -0.396 N 
ATOM     19  H22 UNL     1      60.501  37.489  24.355  1.00  0.00     0.156 HD
ATOM     20  H21 UNL     1      59.291  36.468  24.737  1.00  0.00     0.156 HD
ENDBRANCH   2  18
BRANCH   3  21
HETATM   21  N3  UNL     1      56.512  36.950  24.015  1.00  0.00    -0.395 N 
ATOM     22  H32 UNL     1      56.644  36.821  25.018  1.00  0.00     0.156 HD
ATOM     23  H31 UNL     1      55.674  36.442  23.733  1.00  0.00     0.156 HD
ENDBRANCH   3  21
BRANCH   5  24
HETATM   24  O3  UNL     1      54.451  38.435  21.531  1.00  0.00    -0.344 OA
ATOM     25  H3  UNL     1      53.938  38.739  22.271  1.00  0.00     0.219 HD
ENDBRANCH   5  24
TORSDOF 6
ENDMDL
MODEL 5
REMARK VINA RESULT: -3.987700303      2.414      4.296
REMARK  6 active torsions:
REMARK  status: ('A' for Active; 'I' for Inactive)
REMARK    1  A    between atoms: C2_2  and  O1_3 
REMARK    2  A    between atoms: C2_2  and  C3_5 
REMARK       I    between atoms: C3_5  and  N1_7 
REMARK    3  A    between atoms: N1_7  and  C4_8 
REMARK    4  A    between atoms: C5_9  and  N2_10 
REMARK    5  A    between atoms: C6_13  and  N3_14 
REMARK    6  A    between atoms: C8_18  and  O3_19 
ROOT
HETATM    1  C4  UNL     1      56.452  37.836  20.878  1.00  0.00     0.330 A 
HETATM    2  C5  UNL     1      55.827  36.819  21.846  1.00  0.00     0.088 A 
HETATM    3  C6  UNL     1      56.807  36.601  22.881  1.00  0.00     0.085 A 
HETATM    4  C7  UNL     1      57.953  37.466  22.619  1.00  0.00     0.121 A 
HETATM    5  C8  UNL     1      59.195  37.885  23.059  1.00  0.00     0.176 A 
HETATM    6  N4  UNL     1      59.698  38.824  22.233  1.00  0.00    -0.282 N 
HETATM    7  C9  UNL     1      60.988  39.510  22.363  1.00  0.00     0.163 C 
HETATM    8  C10 UNL     1      58.772  38.993  21.276  1.00  0.00     0.334 A 
HETATM    9  O4  UNL     1      58.912  39.805  20.335  1.00  0.00    -0.246 OA
HETATM   10  N5  UNL     1      57.703  38.156  21.513  1.00  0.00    -0.254 N 
ENDROOT
BRANCH   1  11
HETATM   11  N1  UNL     1      55.591  38.883  20.653  1.00  0.00    -0.379 NA
HETATM   12  C3  UNL     1      54.761  39.892  20.437  1.00  0.00     0.317 C 
HETATM   13  O2  UNL     1      54.080  40.519  21.338  1.00  0.00    -0.255 OA
BRANCH  12  14
HETATM   14  C2  UNL     1      54.500  40.441  19.058  1.00  0.00     0.220 C 
HETATM   15  C1  UNL     1      53.035  40.483  18.817  1.00  0.00     0.050 C 
BRANCH  14  16
HETATM   16  O1  UNL     1      55.206  39.681  18.151  1.00  0.00    -0.385 OA
ATOM     17  H1  UNL     1      55.326  38.774  18.408  1.00  0.00     0.210 HD
ENDBRANCH  14  16
ENDBRANCH  12  14
ENDBRANCH   1  11
BRANCH   2  18
HETATM   18  N2  UNL     1      54.677  36.332  21.665  1.00  0.00    -0.396 N 
ATOM     19  H22 UNL     1      53.746  36.732  21.783  1.00  0.00     0.156 HD
ATOM     20  H21 UNL     1      54.533  35.373  21.351  1.00  0.00     0.156 HD
ENDBRANCH   2  18
BRANCH   3  21
HETATM   21  N3  UNL     1      56.678  35.770  23.879  1.00  0.00    -0.395 N 
ATOM     22  H32 UNL     1      55.805  35.504  24.334  1.00  0.00     0.156 HD
ATOM     23  H31 UNL     1      57.442  35.273  24.335  1.00  0.00     0.156 HD
ENDBRANCH   3  21
BRANCH   5  24
HETATM   24  O3  UNL     1      59.821  37.396  24.195  1.00  0.00    -0.344 OA
ATOM     25  H3  UNL     1      60.739  37.536  24.398  1.00  0.00     0.219 HD
ENDBRANCH   5  24
TORSDOF 6
ENDMDL
