MODEL 1
REMARK VINA RESULT: -8.120298424      0.000      0.000
REMARK  11 active torsions:
REMARK  status: ('A' for Active; 'I' for Inactive)
REMARK    1  A    between atoms: C2_2  and  C3_3 
REMARK    2  A    between atoms: C3_3  and  C15_23 
REMARK    3  A    between atoms: C4_4  and  C5_5 
REMARK    4  A    between atoms: C5_5  and  C6_6 
REMARK    5  A    between atoms: C6_6  and  O1_7 
REMARK    6  A    between atoms: C6_6  and  C7_9 
REMARK    7  A    between atoms: C7_9  and  O2_10 
REMARK    8  A    between atoms: C7_9  and  C8_12 
REMARK    9  A    between atoms: C10_14  and  O3_15 
REMARK   10  A    between atoms: C13_21  and  C14_22 
REMARK       I    between atoms: N2_24  and  C16_25 
REMARK   11  A    between atoms: C20_30  and  O5_31 
ROOT
HETATM    1  C3  UNL     1      49.335  56.798  20.683  1.00  0.00     0.013 C 
HETATM    2  C4  UNL     1      50.195  55.797  21.494  1.00  0.00     0.006 C 
HETATM    3  C12 UNL     1      51.484  56.017  20.810  1.00  0.00     0.009 A 
HETATM    4  C13 UNL     1      51.648  56.760  19.599  1.00  0.00     0.027 A 
HETATM    5  C18 UNL     1      51.589  57.479  21.003  1.00  0.00    -0.007 A 
HETATM    6  C19 UNL     1      52.748  58.226  21.446  1.00  0.00     0.019 C 
HETATM    7  C20 UNL     1      50.148  57.986  21.156  1.00  0.00     0.138 C 
ENDROOT
BRANCH   2   8
HETATM    8  C5  UNL     1      49.644  54.440  21.565  1.00  0.00     0.040 C 
BRANCH   8   9
HETATM    9  C6  UNL     1      50.701  53.451  21.056  1.00  0.00     0.153 C 
BRANCH   9  10
HETATM   10  O1  UNL     1      51.229  52.845  22.195  1.00  0.00    -0.393 OA
ATOM     11  H1  UNL     1      51.792  52.149  21.877  1.00  0.00     0.210 HD
ENDBRANCH   9  10
BRANCH   9  12
HETATM   12  C7  UNL     1      50.056  52.367  20.226  1.00  0.00     0.196 C 
BRANCH  12  13
HETATM   13  O2  UNL     1      49.984  52.742  18.887  1.00  0.00    -0.387 OA
ATOM     14  H2  UNL     1      50.726  52.404  18.399  1.00  0.00     0.210 HD
ENDBRANCH  12  13
BRANCH  12  15
HETATM   15  C8  UNL     1      50.820  51.099  20.279  1.00  0.00     0.043 A 
HETATM   16  C9  UNL     1      50.345  49.891  20.738  1.00  0.00     0.065 A 
HETATM   17  C10 UNL     1      51.348  48.957  20.629  1.00  0.00     0.083 A 
HETATM   18  C11 UNL     1      52.432  49.606  20.103  1.00  0.00     0.124 A 
HETATM   19  N1  UNL     1      52.089  50.877  19.906  1.00  0.00    -0.364 N 
ATOM     20  H1  UNL     1      52.710  51.588  19.521  1.00  0.00     0.165 HD
BRANCH  17  21
HETATM   21  O3  UNL     1      51.263  47.597  20.992  1.00  0.00    -0.359 OA
ATOM     22  H3  UNL     1      51.080  46.871  20.407  1.00  0.00     0.217 HD
ENDBRANCH  17  21
ENDBRANCH  12  15
ENDBRANCH   9  12
ENDBRANCH   8   9
ENDBRANCH   2   8
BRANCH   1  23
HETATM   23  C2  UNL     1      47.921  56.791  21.098  1.00  0.00     0.010 C 
HETATM   24  C1  UNL     1      47.146  58.032  21.076  1.00  0.00     0.006 C 
ENDBRANCH   1  23
BRANCH   1  25
HETATM   25  C15 UNL     1      49.466  56.364  19.317  1.00  0.00     0.122 A 
HETATM   26  C14 UNL     1      48.868  57.559  18.539  1.00  0.00     0.117 A 
HETATM   27  N2  UNL     1      48.717  56.234  18.162  1.00  0.00    -0.338 N 
HETATM   28  C16 UNL     1      48.143  55.326  17.189  1.00  0.00     0.216 C 
HETATM   29  C17 UNL     1      47.341  55.810  16.035  1.00  0.00     0.117 C 
HETATM   30  O4  UNL     1      48.298  54.103  17.280  1.00  0.00    -0.274 OA
ENDBRANCH   1  25
BRANCH   7  31
HETATM   31  O5  UNL     1      49.972  58.138  22.545  1.00  0.00    -0.394 OA
ATOM     32  H5  UNL     1      50.761  58.515  22.918  1.00  0.00     0.210 HD
ENDBRANCH   7  31
TORSDOF 11
ENDMDL
MODEL 2
REMARK VINA RESULT: -7.584956642      1.472      1.777
REMARK  11 active torsions:
REMARK  status: ('A' for Active; 'I' for Inactive)
REMARK    1  A    between atoms: C2_2  and  C3_3 
REMARK    2  A    between atoms: C3_3  and  C15_23 
REMARK    3  A    between atoms: C4_4  and  C5_5 
REMARK    4  A    between atoms: C5_5  and  C6_6 
REMARK    5  A    between atoms: C6_6  and  O1_7 
REMARK    6  A    between atoms: C6_6  and  C7_9 
REMARK    7  A    between atoms: C7_9  and  O2_10 
REMARK    8  A    between atoms: C7_9  and  C8_12 
REMARK    9  A    between atoms: C10_14  and  O3_15 
REMARK   10  A    between atoms: C13_21  and  C14_22 
REMARK       I    between atoms: N2_24  and  C16_25 
REMARK   11  A    between atoms: C20_30  and  O5_31 
ROOT
HETATM    1  C3  UNL     1      49.357  56.968  20.753  1.00  0.00     0.013 C 
HETATM    2  C4  UNL     1      50.190  56.026  21.659  1.00  0.00     0.006 C 
HETATM    3  C12 UNL     1      51.499  56.200  21.002  1.00  0.00     0.009 A 
HETATM    4  C13 UNL     1      51.703  56.856  19.748  1.00  0.00     0.027 A 
HETATM    5  C18 UNL     1      51.600  57.672  21.096  1.00  0.00    -0.007 A 
HETATM    6  C19 UNL     1      52.746  58.449  21.521  1.00  0.00     0.019 C 
HETATM    7  C20 UNL     1      50.156  58.186  21.167  1.00  0.00     0.138 C 
ENDROOT
BRANCH   2   8
HETATM    8  C5  UNL     1      49.636  54.678  21.808  1.00  0.00     0.040 C 
BRANCH   8   9
HETATM    9  C6  UNL     1      50.683  53.659  21.338  1.00  0.00     0.153 C 
BRANCH   9  10
HETATM   10  O1  UNL     1      51.251  53.140  22.501  1.00  0.00    -0.393 OA
ATOM     11  H1  UNL     1      51.944  52.559  22.210  1.00  0.00     0.210 HD
ENDBRANCH   9  10
BRANCH   9  12
HETATM   12  C7  UNL     1      50.020  52.514  20.611  1.00  0.00     0.196 C 
BRANCH  12  13
HETATM   13  O2  UNL     1      48.836  52.929  20.005  1.00  0.00    -0.387 OA
ATOM     14  H2  UNL     1      48.304  52.184  19.753  1.00  0.00     0.210 HD
ENDBRANCH  12  13
BRANCH  12  15
HETATM   15  C8  UNL     1      50.883  51.964  19.540  1.00  0.00     0.043 A 
HETATM   16  C9  UNL     1      51.468  52.688  18.525  1.00  0.00     0.065 A 
HETATM   17  C10 UNL     1      52.189  51.826  17.734  1.00  0.00     0.083 A 
HETATM   18  C11 UNL     1      52.038  50.578  18.275  1.00  0.00     0.124 A 
HETATM   19  N1  UNL     1      51.257  50.690  19.345  1.00  0.00    -0.364 N 
ATOM     20  H1  UNL     1      50.979  49.910  19.940  1.00  0.00     0.165 HD
BRANCH  17  21
HETATM   21  O3  UNL     1      52.937  52.175  16.590  1.00  0.00    -0.359 OA
ATOM     22  H3  UNL     1      53.482  51.589  16.076  1.00  0.00     0.217 HD
ENDBRANCH  17  21
ENDBRANCH  12  15
ENDBRANCH   9  12
ENDBRANCH   8   9
ENDBRANCH   2   8
BRANCH   1  23
HETATM   23  C2  UNL     1      47.931  56.988  21.123  1.00  0.00     0.010 C 
HETATM   24  C1  UNL     1      47.160  58.226  20.999  1.00  0.00     0.006 C 
ENDBRANCH   1  23
BRANCH   1  25
HETATM   25  C15 UNL     1      49.530  56.439  19.426  1.00  0.00     0.122 A 
HETATM   26  C14 UNL     1      48.903  57.550  18.551  1.00  0.00     0.117 A 
HETATM   27  N2  UNL     1      48.809  56.195  18.272  1.00  0.00    -0.338 N 
HETATM   28  C16 UNL     1      48.287  55.197  17.360  1.00  0.00     0.216 C 
HETATM   29  C17 UNL     1      47.490  55.564  16.160  1.00  0.00     0.117 C 
HETATM   30  O4  UNL     1      48.485  53.991  17.544  1.00  0.00    -0.274 OA
ENDBRANCH   1  25
BRANCH   7  31
HETATM   31  O5  UNL     1      49.937  58.436  22.536  1.00  0.00    -0.394 OA
ATOM     32  H5  UNL     1      50.294  59.288  22.757  1.00  0.00     0.210 HD
ENDBRANCH   7  31
TORSDOF 11
ENDMDL
MODEL 3
REMARK VINA RESULT: -7.544661335      1.698      2.231
REMARK  11 active torsions:
REMARK  status: ('A' for Active; 'I' for Inactive)
REMARK    1  A    between atoms: C2_2  and  C3_3 
REMARK    2  A    between atoms: C3_3  and  C15_23 
REMARK    3  A    between atoms: C4_4  and  C5_5 
REMARK    4  A    between atoms: C5_5  and  C6_6 
REMARK    5  A    between atoms: C6_6  and  O1_7 
REMARK    6  A    between atoms: C6_6  and  C7_9 
REMARK    7  A    between atoms: C7_9  and  O2_10 
REMARK    8  A    between atoms: C7_9  and  C8_12 
REMARK    9  A    between atoms: C10_14  and  O3_15 
REMARK   10  A    between atoms: C13_21  and  C14_22 
REMARK       I    between atoms: N2_24  and  C16_25 
REMARK   11  A    between atoms: C20_30  and  O5_31 
ROOT
HETATM    1  C3  UNL     1      49.423  55.891  20.285  1.00  0.00     0.013 C 
HETATM    2  C4  UNL     1      50.374  54.776  20.788  1.00  0.00     0.006 C 
HETATM    3  C12 UNL     1      51.584  55.173  20.043  1.00  0.00     0.009 A 
HETATM    4  C13 UNL     1      51.616  56.151  18.999  1.00  0.00     0.027 A 
HETATM    5  C18 UNL     1      51.689  56.569  20.519  1.00  0.00    -0.007 A 
HETATM    6  C19 UNL     1      52.877  57.250  20.992  1.00  0.00     0.019 C 
HETATM    7  C20 UNL     1      50.264  56.985  20.910  1.00  0.00     0.138 C 
ENDROOT
BRANCH   2   8
HETATM    8  C5  UNL     1      49.853  53.415  20.633  1.00  0.00     0.040 C 
BRANCH   8   9
HETATM    9  C6  UNL     1      50.951  52.417  21.026  1.00  0.00     0.153 C 
BRANCH   9  10
HETATM   10  O1  UNL     1      50.286  51.334  21.600  1.00  0.00    -0.393 OA
ATOM     11  H1  UNL     1      50.096  51.595  22.494  1.00  0.00     0.210 HD
ENDBRANCH   9  10
BRANCH   9  12
HETATM   12  C7  UNL     1      51.667  51.908  19.798  1.00  0.00     0.196 C 
BRANCH  12  13
HETATM   13  O2  UNL     1      52.641  50.974  20.142  1.00  0.00    -0.387 OA
ATOM     14  H2  UNL     1      52.411  50.110  19.821  1.00  0.00     0.210 HD
ENDBRANCH  12  13
BRANCH  12  15
HETATM   15  C8  UNL     1      50.741  51.239  18.855  1.00  0.00     0.043 A 
HETATM   16  C9  UNL     1      50.346  51.730  17.630  1.00  0.00     0.065 A 
HETATM   17  C10 UNL     1      49.486  50.826  17.054  1.00  0.00     0.083 A 
HETATM   18  C11 UNL     1      49.362  49.787  17.936  1.00  0.00     0.124 A 
HETATM   19  N1  UNL     1      50.118  50.060  18.996  1.00  0.00    -0.364 N 
ATOM     20  H1  UNL     1      50.211  49.452  19.809  1.00  0.00     0.165 HD
BRANCH  17  21
HETATM   21  O3  UNL     1      48.860  50.957  15.797  1.00  0.00    -0.359 OA
ATOM     22  H3  UNL     1      48.006  51.340  15.633  1.00  0.00     0.217 HD
ENDBRANCH  17  21
ENDBRANCH  12  15
ENDBRANCH   9  12
ENDBRANCH   8   9
ENDBRANCH   2   8
BRANCH   1  23
HETATM   23  C2  UNL     1      48.059  55.753  20.824  1.00  0.00     0.010 C 
HETATM   24  C1  UNL     1      47.200  56.930  20.952  1.00  0.00     0.006 C 
ENDBRANCH   1  23
BRANCH   1  25
HETATM   25  C15 UNL     1      49.422  55.746  18.853  1.00  0.00     0.122 A 
HETATM   26  C14 UNL     1      48.760  57.067  18.396  1.00  0.00     0.117 A 
HETATM   27  N2  UNL     1      48.565  55.844  17.772  1.00  0.00    -0.338 N 
HETATM   28  C16 UNL     1      47.895  55.146  16.692  1.00  0.00     0.216 C 
HETATM   29  C17 UNL     1      46.991  55.846  15.743  1.00  0.00     0.117 C 
HETATM   30  O4  UNL     1      48.051  53.933  16.517  1.00  0.00    -0.274 OA
ENDBRANCH   1  25
BRANCH   7  31
HETATM   31  O5  UNL     1      50.228  56.848  22.312  1.00  0.00    -0.394 OA
ATOM     32  H5  UNL     1      50.657  57.598  22.708  1.00  0.00     0.210 HD
ENDBRANCH   7  31
TORSDOF 11
ENDMDL
MODEL 4
REMARK VINA RESULT: -7.541638673      1.692      2.306
REMARK  11 active torsions:
REMARK  status: ('A' for Active; 'I' for Inactive)
REMARK    1  A    between atoms: C2_2  and  C3_3 
REMARK    2  A    between atoms: C3_3  and  C15_23 
REMARK    3  A    between atoms: C4_4  and  C5_5 
REMARK    4  A    between atoms: C5_5  and  C6_6 
REMARK    5  A    between atoms: C6_6  and  O1_7 
REMARK    6  A    between atoms: C6_6  and  C7_9 
REMARK    7  A    between atoms: C7_9  and  O2_10 
REMARK    8  A    between atoms: C7_9  and  C8_12 
REMARK    9  A    between atoms: C10_14  and  O3_15 
REMARK   10  A    between atoms: C13_21  and  C14_22 
REMARK       I    between atoms: N2_24  and  C16_25 
REMARK   11  A    between atoms: C20_30  and  O5_31 
ROOT
HETATM    1  C3  UNL     1      49.979  55.986  21.077  1.00  0.00     0.013 C 
HETATM    2  C4  UNL     1      51.092  55.478  20.125  1.00  0.00     0.006 C 
HETATM    3  C12 UNL     1      51.865  56.730  20.012  1.00  0.00     0.009 A 
HETATM    4  C13 UNL     1      51.424  58.007  20.480  1.00  0.00     0.027 A 
HETATM    5  C18 UNL     1      52.111  56.968  21.450  1.00  0.00    -0.007 A 
HETATM    6  C19 UNL     1      53.363  57.334  22.079  1.00  0.00     0.019 C 
HETATM    7  C20 UNL     1      50.966  56.265  22.192  1.00  0.00     0.138 C 
ENDROOT
BRANCH   2   8
HETATM    8  C5  UNL     1      50.600  54.827  18.907  1.00  0.00     0.040 C 
BRANCH   8   9
HETATM    9  C6  UNL     1      51.364  53.511  18.708  1.00  0.00     0.153 C 
BRANCH   9  10
HETATM   10  O1  UNL     1      52.141  53.350  19.854  1.00  0.00    -0.393 OA
ATOM     11  H1  UNL     1      52.197  54.214  20.247  1.00  0.00     0.210 HD
ENDBRANCH   9  10
BRANCH   9  12
HETATM   12  C7  UNL     1      50.404  52.347  18.647  1.00  0.00     0.196 C 
BRANCH  12  13
HETATM   13  O2  UNL     1      50.160  51.973  17.328  1.00  0.00    -0.387 OA
ATOM     14  H2  UNL     1      50.196  52.725  16.749  1.00  0.00     0.210 HD
ENDBRANCH  12  13
BRANCH  12  15
HETATM   15  C8  UNL     1      50.937  51.153  19.343  1.00  0.00     0.043 A 
HETATM   16  C9  UNL     1      50.264  50.400  20.280  1.00  0.00     0.065 A 
HETATM   17  C10 UNL     1      51.088  49.381  20.694  1.00  0.00     0.083 A 
HETATM   18  C11 UNL     1      52.262  49.520  20.003  1.00  0.00     0.124 A 
HETATM   19  N1  UNL     1      52.143  50.581  19.209  1.00  0.00    -0.364 N 
ATOM     20  H1  UNL     1      52.873  50.915  18.581  1.00  0.00     0.165 HD
BRANCH  17  21
HETATM   21  O3  UNL     1      50.772  48.389  21.646  1.00  0.00    -0.359 OA
ATOM     22  H3  UNL     1      51.390  47.927  22.201  1.00  0.00     0.217 HD
ENDBRANCH  17  21
ENDBRANCH  12  15
ENDBRANCH   9  12
ENDBRANCH   8   9
ENDBRANCH   2   8
BRANCH   1  23
HETATM   23  C2  UNL     1      48.970  54.952  21.366  1.00  0.00     0.010 C 
HETATM   24  C1  UNL     1      49.379  53.671  21.942  1.00  0.00     0.006 C 
ENDBRANCH   1  23
BRANCH   1  25
HETATM   25  C15 UNL     1      49.385  57.096  20.378  1.00  0.00     0.122 A 
HETATM   26  C14 UNL     1      48.289  57.551  21.370  1.00  0.00     0.117 A 
HETATM   27  N2  UNL     1      48.146  57.573  19.991  1.00  0.00    -0.338 N 
HETATM   28  C16 UNL     1      47.264  57.890  18.885  1.00  0.00     0.216 C 
HETATM   29  C17 UNL     1      45.894  58.426  19.098  1.00  0.00     0.117 C 
HETATM   30  O4  UNL     1      47.619  57.727  17.713  1.00  0.00    -0.274 OA
ENDBRANCH   1  25
BRANCH   7  31
HETATM   31  O5  UNL     1      51.522  55.047  22.628  1.00  0.00    -0.394 OA
ATOM     32  H5  UNL     1      50.960  54.671  23.296  1.00  0.00     0.210 HD
ENDBRANCH   7  31
TORSDOF 11
ENDMDL
MODEL 5
REMARK VINA RESULT: -7.275787471      1.997      2.354
REMARK  11 active torsions:
REMARK  status: ('A' for Active; 'I' for Inactive)
REMARK    1  A    between atoms: C2_2  and  C3_3 
REMARK    2  A    between atoms: C3_3  and  C15_23 
REMARK    3  A    between atoms: C4_4  and  C5_5 
REMARK    4  A    between atoms: C5_5  and  C6_6 
REMARK    5  A    between atoms: C6_6  and  O1_7 
REMARK    6  A    between atoms: C6_6  and  C7_9 
REMARK    7  A    between atoms: C7_9  and  O2_10 
REMARK    8  A    between atoms: C7_9  and  C8_12 
REMARK    9  A    between atoms: C10_14  and  O3_15 
REMARK   10  A    between atoms: C13_21  and  C14_22 
REMARK       I    between atoms: N2_24  and  C16_25 
REMARK   11  A    between atoms: C20_30  and  O5_31 
ROOT
HETATM    1  C3  UNL     1      49.236  56.113  20.265  1.00  0.00     0.013 C 
HETATM    2  C4  UNL     1      50.055  54.884  20.732  1.00  0.00     0.006 C 
HETATM    3  C12 UNL     1      51.326  55.202  20.053  1.00  0.00     0.009 A 
HETATM    4  C13 UNL     1      51.492  56.229  19.071  1.00  0.00     0.027 A 
HETATM    5  C18 UNL     1      51.545  56.552  20.615  1.00  0.00    -0.007 A 
HETATM    6  C19 UNL     1      52.773  57.085  21.167  1.00  0.00     0.019 C 
HETATM    7  C20 UNL     1      50.152  57.083  20.982  1.00  0.00     0.138 C 
ENDROOT
BRANCH   2   8
HETATM    8  C5  UNL     1      49.412  53.591  20.479  1.00  0.00     0.040 C 
BRANCH   8   9
HETATM    9  C6  UNL     1      50.439  52.644  19.845  1.00  0.00     0.153 C 
BRANCH   9  10
HETATM   10  O1  UNL     1      50.187  51.390  20.400  1.00  0.00    -0.393 OA
ATOM     11  H1  UNL     1      50.353  51.485  21.331  1.00  0.00     0.210 HD
ENDBRANCH   9  10
BRANCH   9  12
HETATM   12  C7  UNL     1      50.209  52.533  18.357  1.00  0.00     0.196 C 
BRANCH  12  13
HETATM   13  O2  UNL     1      51.418  52.450  17.671  1.00  0.00    -0.387 OA
ATOM     14  H2  UNL     1      51.376  52.926  16.850  1.00  0.00     0.210 HD
ENDBRANCH  12  13
BRANCH  12  15
HETATM   15  C8  UNL     1      49.430  51.322  18.006  1.00  0.00     0.043 A 
HETATM   16  C9  UNL     1      48.089  51.291  17.692  1.00  0.00     0.065 A 
HETATM   17  C10 UNL     1      47.734  49.990  17.427  1.00  0.00     0.083 A 
HETATM   18  C11 UNL     1      48.865  49.235  17.582  1.00  0.00     0.124 A 
HETATM   19  N1  UNL     1      49.855  50.053  17.927  1.00  0.00    -0.364 N 
ATOM     20  H1  UNL     1      50.814  49.754  18.107  1.00  0.00     0.165 HD
BRANCH  17  21
HETATM   21  O3  UNL     1      46.448  49.534  17.066  1.00  0.00    -0.359 OA
ATOM     22  H3  UNL     1      46.113  49.444  16.181  1.00  0.00     0.217 HD
ENDBRANCH  17  21
ENDBRANCH  12  15
ENDBRANCH   9  12
ENDBRANCH   8   9
ENDBRANCH   2   8
BRANCH   1  23
HETATM   23  C2  UNL     1      47.844  56.079  20.748  1.00  0.00     0.010 C 
HETATM   24  C1  UNL     1      47.114  57.328  20.965  1.00  0.00     0.006 C 
ENDBRANCH   1  23
BRANCH   1  25
HETATM   25  C15 UNL     1      49.276  56.049  18.828  1.00  0.00     0.122 A 
HETATM   26  C14 UNL     1      48.654  57.407  18.427  1.00  0.00     0.117 A 
HETATM   27  N2  UNL     1      48.457  56.226  17.728  1.00  0.00    -0.338 N 
HETATM   28  C16 UNL     1      47.808  55.604  16.591  1.00  0.00     0.216 C 
HETATM   29  C17 UNL     1      46.947  56.374  15.655  1.00  0.00     0.117 C 
HETATM   30  O4  UNL     1      47.947  54.400  16.351  1.00  0.00    -0.274 OA
ENDBRANCH   1  25
BRANCH   7  31
HETATM   31  O5  UNL     1      50.047  56.872  22.371  1.00  0.00    -0.394 OA
ATOM     32  H5  UNL     1      50.699  56.234  22.637  1.00  0.00     0.210 HD
ENDBRANCH   7  31
TORSDOF 11
ENDMDL
