MODEL 1
REMARK VINA RESULT: -7.160077722      0.000      0.000
REMARK  8 active torsions:
REMARK  status: ('A' for Active; 'I' for Inactive)
REMARK    1  A    between atoms: C2_2  and  S1_3 
REMARK    2  A    between atoms: S1_3  and  C3_5 
REMARK    3  A    between atoms: C3_5  and  C4_6 
REMARK    4  A    between atoms: C4_6  and  C5_7 
REMARK    5  A    between atoms: C5_7  and  N1_8 
REMARK    6  A    between atoms: C5_7  and  N2_12 
REMARK    7  A    between atoms: C5_7  and  C7_15 
REMARK    8  A    between atoms: N2_12  and  O2_13 
ROOT
HETATM    1  C5  UNL     1      50.370  55.077  21.356  1.00  0.00     0.222 C 
ENDROOT
BRANCH   1   2
HETATM    2  C4  UNL     1      50.074  53.634  21.339  1.00  0.00     0.072 C 
BRANCH   2   3
HETATM    3  C3  UNL     1      50.647  52.760  20.304  1.00  0.00     0.112 C 
BRANCH   3   4
HETATM    4  S1  UNL     1      50.591  51.032  20.772  1.00  0.00     0.014 S 
HETATM    5  O1  UNL     1      52.043  50.270  20.525  1.00  0.00    -0.258 OA
BRANCH   4   6
HETATM    6  C2  UNL     1      49.245  50.202  19.974  1.00  0.00     0.104 C 
HETATM    7  C1  UNL     1      49.151  48.802  20.541  1.00  0.00     0.018 C 
ENDBRANCH   4   6
ENDBRANCH   3   4
ENDBRANCH   2   3
ENDBRANCH   1   2
BRANCH   1   8
HETATM    8  N1  UNL     1      50.369  55.416  22.840  1.00  0.00    -0.053 N 
ATOM      9  H13 UNL     1      50.511  54.616  23.458  1.00  0.00     0.276 HD
ATOM     10  H12 UNL     1      51.187  55.938  23.156  1.00  0.00     0.276 HD
ATOM     11  H11 UNL     1      49.481  55.900  22.969  1.00  0.00     0.276 HD
ENDBRANCH   1   8
BRANCH   1  12
HETATM   12  N2  UNL     1      51.650  55.445  20.858  1.00  0.00    -0.061 NA
BRANCH  12  13
HETATM   13  O2  UNL     1      52.305  56.301  21.701  1.00  0.00    -0.289 OA
HETATM   14  C6  UNL     1      52.787  57.415  21.053  1.00  0.00     0.231 C 
ENDBRANCH  12  13
ENDBRANCH   1  12
BRANCH   1  15
HETATM   15  C7  UNL     1      49.305  56.018  20.864  1.00  0.00     0.040 C 
HETATM   16  C8  UNL     1      48.829  57.019  21.846  1.00  0.00     0.008 C 
HETATM   17  C9  UNL     1      47.560  57.716  21.509  1.00  0.00     0.001 C 
HETATM   18  C10 UNL     1      46.542  56.974  20.725  1.00  0.00     0.000 C 
HETATM   19  C11 UNL     1      47.230  56.170  19.627  1.00  0.00     0.001 C 
HETATM   20  C12 UNL     1      48.110  55.175  20.404  1.00  0.00     0.008 C 
ENDBRANCH   1  15
TORSDOF 8
ENDMDL
MODEL 2
REMARK VINA RESULT: -6.924433842      0.549      1.279
REMARK  8 active torsions:
REMARK  status: ('A' for Active; 'I' for Inactive)
REMARK    1  A    between atoms: C2_2  and  S1_3 
REMARK    2  A    between atoms: S1_3  and  C3_5 
REMARK    3  A    between atoms: C3_5  and  C4_6 
REMARK    4  A    between atoms: C4_6  and  C5_7 
REMARK    5  A    between atoms: C5_7  and  N1_8 
REMARK    6  A    between atoms: C5_7  and  N2_12 
REMARK    7  A    between atoms: C5_7  and  C7_15 
REMARK    8  A    between atoms: N2_12  and  O2_13 
ROOT
HETATM    1  C5  UNL     1      50.225  54.858  21.487  1.00  0.00     0.222 C 
ENDROOT
BRANCH   1   2
HETATM    2  C4  UNL     1      50.256  53.395  21.653  1.00  0.00     0.072 C 
BRANCH   2   3
HETATM    3  C3  UNL     1      50.392  52.508  20.487  1.00  0.00     0.112 C 
BRANCH   3   4
HETATM    4  S1  UNL     1      50.606  50.795  20.964  1.00  0.00     0.014 S 
HETATM    5  O1  UNL     1      52.095  50.206  20.530  1.00  0.00    -0.258 OA
BRANCH   4   6
HETATM    6  C2  UNL     1      49.278  49.795  20.355  1.00  0.00     0.104 C 
HETATM    7  C1  UNL     1      49.257  48.503  21.143  1.00  0.00     0.018 C 
ENDBRANCH   4   6
ENDBRANCH   3   4
ENDBRANCH   2   3
ENDBRANCH   1   2
BRANCH   1   8
HETATM    8  N1  UNL     1      50.385  55.374  22.910  1.00  0.00    -0.053 N 
ATOM      9  H13 UNL     1      50.849  54.726  23.546  1.00  0.00     0.276 HD
ATOM     10  H12 UNL     1      51.064  56.128  23.014  1.00  0.00     0.276 HD
ATOM     11  H11 UNL     1      49.432  55.622  23.177  1.00  0.00     0.276 HD
ENDBRANCH   1   8
BRANCH   1  12
HETATM   12  N2  UNL     1      51.298  55.411  20.734  1.00  0.00    -0.061 NA
BRANCH  12  13
HETATM   13  O2  UNL     1      52.200  56.066  21.527  1.00  0.00    -0.289 OA
HETATM   14  C6  UNL     1      52.739  57.172  20.910  1.00  0.00     0.231 C 
ENDBRANCH  12  13
ENDBRANCH   1  12
BRANCH   1  15
HETATM   15  C7  UNL     1      48.916  55.496  21.113  1.00  0.00     0.040 C 
HETATM   16  C8  UNL     1      48.615  55.543  19.663  1.00  0.00     0.008 C 
HETATM   17  C9  UNL     1      47.521  56.461  19.251  1.00  0.00     0.001 C 
HETATM   18  C10 UNL     1      47.306  57.695  20.044  1.00  0.00     0.000 C 
HETATM   19  C11 UNL     1      47.453  57.379  21.529  1.00  0.00     0.001 C 
HETATM   20  C12 UNL     1      48.919  56.928  21.661  1.00  0.00     0.008 C 
ENDBRANCH   1  15
TORSDOF 8
ENDMDL
MODEL 3
REMARK VINA RESULT: -6.660876417      2.091      3.010
REMARK  8 active torsions:
REMARK  status: ('A' for Active; 'I' for Inactive)
REMARK    1  A    between atoms: C2_2  and  S1_3 
REMARK    2  A    between atoms: S1_3  and  C3_5 
REMARK    3  A    between atoms: C3_5  and  C4_6 
REMARK    4  A    between atoms: C4_6  and  C5_7 
REMARK    5  A    between atoms: C5_7  and  N1_8 
REMARK    6  A    between atoms: C5_7  and  N2_12 
REMARK    7  A    between atoms: C5_7  and  C7_15 
REMARK    8  A    between atoms: N2_12  and  O2_13 
ROOT
HETATM    1  C5  UNL     1      49.574  53.665  20.212  1.00  0.00     0.222 C 
ENDROOT
BRANCH   1   2
HETATM    2  C4  UNL     1      50.106  53.048  21.439  1.00  0.00     0.072 C 
BRANCH   2   3
HETATM    3  C3  UNL     1      49.649  51.719  21.872  1.00  0.00     0.112 C 
BRANCH   3   4
HETATM    4  S1  UNL     1      50.650  50.403  21.182  1.00  0.00     0.014 S 
HETATM    5  O1  UNL     1      51.830  50.980  20.169  1.00  0.00    -0.258 OA
BRANCH   4   6
HETATM    6  C2  UNL     1      49.636  49.173  20.411  1.00  0.00     0.104 C 
HETATM    7  C1  UNL     1      49.206  48.182  21.470  1.00  0.00     0.018 C 
ENDBRANCH   4   6
ENDBRANCH   3   4
ENDBRANCH   2   3
ENDBRANCH   1   2
BRANCH   1   8
HETATM    8  N1  UNL     1      50.810  53.827  19.338  1.00  0.00    -0.053 N 
ATOM      9  H13 UNL     1      51.682  53.537  19.780  1.00  0.00     0.276 HD
ATOM     10  H12 UNL     1      50.865  53.174  18.556  1.00  0.00     0.276 HD
ATOM     11  H11 UNL     1      50.776  54.811  19.067  1.00  0.00     0.276 HD
ENDBRANCH   1   8
BRANCH   1  12
HETATM   12  N2  UNL     1      48.658  52.865  19.472  1.00  0.00    -0.061 NA
BRANCH  12  13
HETATM   13  O2  UNL     1      49.198  52.418  18.296  1.00  0.00    -0.289 OA
HETATM   14  C6  UNL     1      48.429  51.445  17.700  1.00  0.00     0.231 C 
ENDBRANCH  12  13
ENDBRANCH   1  12
BRANCH   1  15
HETATM   15  C7  UNL     1      49.106  55.092  20.288  1.00  0.00     0.040 C 
HETATM   16  C8  UNL     1      49.454  55.816  21.533  1.00  0.00     0.008 C 
HETATM   17  C9  UNL     1      48.719  57.084  21.780  1.00  0.00     0.001 C 
HETATM   18  C10 UNL     1      47.328  57.196  21.277  1.00  0.00     0.000 C 
HETATM   19  C11 UNL     1      47.237  56.576  19.888  1.00  0.00     0.001 C 
HETATM   20  C12 UNL     1      47.582  55.095  20.127  1.00  0.00     0.008 C 
ENDBRANCH   1  15
TORSDOF 8
ENDMDL
MODEL 4
REMARK VINA RESULT: -6.477406418      1.827      2.808
REMARK  8 active torsions:
REMARK  status: ('A' for Active; 'I' for Inactive)
REMARK    1  A    between atoms: C2_2  and  S1_3 
REMARK    2  A    between atoms: S1_3  and  C3_5 
REMARK    3  A    between atoms: C3_5  and  C4_6 
REMARK    4  A    between atoms: C4_6  and  C5_7 
REMARK    5  A    between atoms: C5_7  and  N1_8 
REMARK    6  A    between atoms: C5_7  and  N2_12 
REMARK    7  A    between atoms: C5_7  and  C7_15 
REMARK    8  A    between atoms: N2_12  and  O2_13 
ROOT
HETATM    1  C5  UNL     1      49.740  53.937  20.457  1.00  0.00     0.222 C 
ENDROOT
BRANCH   1   2
HETATM    2  C4  UNL     1      50.283  52.981  21.436  1.00  0.00     0.072 C 
BRANCH   2   3
HETATM    3  C3  UNL     1      49.552  51.748  21.769  1.00  0.00     0.112 C 
BRANCH   3   4
HETATM    4  S1  UNL     1      50.491  50.277  21.364  1.00  0.00     0.014 S 
HETATM    5  O1  UNL     1      51.888  50.633  20.545  1.00  0.00    -0.258 OA
BRANCH   4   6
HETATM    6  C2  UNL     1      49.485  49.097  20.510  1.00  0.00     0.104 C 
HETATM    7  C1  UNL     1      49.173  47.963  21.462  1.00  0.00     0.018 C 
ENDBRANCH   4   6
ENDBRANCH   3   4
ENDBRANCH   2   3
ENDBRANCH   1   2
BRANCH   1   8
HETATM    8  N1  UNL     1      50.937  54.819  20.130  1.00  0.00    -0.053 N 
ATOM      9  H13 UNL     1      51.357  55.279  20.937  1.00  0.00     0.276 HD
ATOM     10  H12 UNL     1      51.776  54.309  19.851  1.00  0.00     0.276 HD
ATOM     11  H11 UNL     1      50.572  55.455  19.420  1.00  0.00     0.276 HD
ENDBRANCH   1   8
BRANCH   1  12
HETATM   12  N2  UNL     1      49.306  53.372  19.225  1.00  0.00    -0.061 NA
BRANCH  12  13
HETATM   13  O2  UNL     1      50.349  52.886  18.485  1.00  0.00    -0.289 OA
HETATM   14  C6  UNL     1      50.067  51.667  17.913  1.00  0.00     0.231 C 
ENDBRANCH  12  13
ENDBRANCH   1  12
BRANCH   1  15
HETATM   15  C7  UNL     1      48.767  54.973  20.949  1.00  0.00     0.040 C 
HETATM   16  C8  UNL     1      47.562  55.173  20.111  1.00  0.00     0.008 C 
HETATM   17  C9  UNL     1      46.777  56.407  20.376  1.00  0.00     0.001 C 
HETATM   18  C10 UNL     1      47.504  57.612  20.845  1.00  0.00     0.000 C 
HETATM   19  C11 UNL     1      48.563  57.204  21.864  1.00  0.00     0.001 C 
HETATM   20  C12 UNL     1      49.517  56.306  21.057  1.00  0.00     0.008 C 
ENDBRANCH   1  15
TORSDOF 8
ENDMDL
MODEL 5
REMARK VINA RESULT: -6.172337238      4.667      7.337
REMARK  8 active torsions:
REMARK  status: ('A' for Active; 'I' for Inactive)
REMARK    1  A    between atoms: C2_2  and  S1_3 
REMARK    2  A    between atoms: S1_3  and  C3_5 
REMARK    3  A    between atoms: C3_5  and  C4_6 
REMARK    4  A    between atoms: C4_6  and  C5_7 
REMARK    5  A    between atoms: C5_7  and  N1_8 
REMARK    6  A    between atoms: C5_7  and  N2_12 
REMARK    7  A    between atoms: C5_7  and  C7_15 
REMARK    8  A    between atoms: N2_12  and  O2_13 
ROOT
HETATM    1  C5  UNL     1      48.188  50.206  17.300  1.00  0.00     0.222 C 
ENDROOT
BRANCH   1   2
HETATM    2  C4  UNL     1      49.008  51.192  18.024  1.00  0.00     0.072 C 
BRANCH   2   3
HETATM    3  C3  UNL     1      50.457  50.996  18.181  1.00  0.00     0.112 C 
BRANCH   3   4
HETATM    4  S1  UNL     1      50.995  51.258  19.869  1.00  0.00     0.014 S 
HETATM    5  O1  UNL     1      52.021  50.064  20.392  1.00  0.00    -0.258 OA
BRANCH   4   6
HETATM    6  C2  UNL     1      49.610  51.483  20.949  1.00  0.00     0.104 C 
HETATM    7  C1  UNL     1      49.992  52.500  22.003  1.00  0.00     0.018 C 
ENDBRANCH   4   6
ENDBRANCH   3   4
ENDBRANCH   2   3
ENDBRANCH   1   2
BRANCH   1   8
HETATM    8  N1  UNL     1      47.659  50.997  16.112  1.00  0.00    -0.053 N 
ATOM      9  H13 UNL     1      48.292  51.721  15.769  1.00  0.00     0.276 HD
ATOM     10  H12 UNL     1      47.617  50.472  15.238  1.00  0.00     0.276 HD
ATOM     11  H11 UNL     1      46.758  51.342  16.443  1.00  0.00     0.276 HD
ENDBRANCH   1   8
BRANCH   1  12
HETATM   12  N2  UNL     1      48.897  49.096  16.763  1.00  0.00    -0.061 NA
BRANCH  12  13
HETATM   13  O2  UNL     1      48.874  49.082  15.395  1.00  0.00    -0.289 OA
HETATM   14  C6  UNL     1      48.870  47.806  14.881  1.00  0.00     0.231 C 
ENDBRANCH  12  13
ENDBRANCH   1  12
BRANCH   1  15
HETATM   15  C7  UNL     1      46.895  49.769  17.931  1.00  0.00     0.040 C 
HETATM   16  C8  UNL     1      46.850  48.362  18.394  1.00  0.00     0.008 C 
HETATM   17  C9  UNL     1      45.500  47.813  18.692  1.00  0.00     0.001 C 
HETATM   18  C10 UNL     1      44.349  48.323  17.908  1.00  0.00     0.000 C 
HETATM   19  C11 UNL     1      44.484  49.831  17.726  1.00  0.00     0.001 C 
HETATM   20  C12 UNL     1      45.776  49.984  16.904  1.00  0.00     0.008 C 
ENDBRANCH   1  15
TORSDOF 8
ENDMDL
