MODEL 1
REMARK VINA RESULT: -6.556265929      0.000      0.000
REMARK  15 active torsions:
REMARK  status: ('A' for Active; 'I' for Inactive)
REMARK    1  A    between atoms: C4_4  and  N1_5 
REMARK    2  A    between atoms: N1_5  and  O1_6 
REMARK    3  A    between atoms: C5_8  and  O2_9 
REMARK    4  A    between atoms: C6_11  and  O3_12 
REMARK    5  A    between atoms: O3_12  and  C7_13 
REMARK    6  A    between atoms: C11_17  and  O4_18 
REMARK    7  A    between atoms: O4_18  and  C12_19 
REMARK    8  A    between atoms: C12_19  and  O5_20 
REMARK    9  A    between atoms: C12_19  and  C13_22 
REMARK   10  A    between atoms: C13_22  and  O6_23 
REMARK   11  A    between atoms: C13_22  and  C14_25 
REMARK   12  A    between atoms: C14_25  and  O7_26 
REMARK   13  A    between atoms: C14_25  and  C15_28 
REMARK   14  A    between atoms: S1_31  and  N2_32 
REMARK   15  A    between atoms: C20_41  and  N4_42 
ROOT
HETATM    1  C7  UNL     1     -11.896  -2.499   3.986  1.00  0.00     0.155 C 
HETATM    2  C8  UNL     1     -11.421  -3.711   4.708  1.00  0.00     0.041 C 
HETATM    3  C9  UNL     1     -12.468  -4.469   5.460  1.00  0.00     0.013 C 
HETATM    4  C10 UNL     1     -13.178  -5.383   4.477  1.00  0.00     0.012 C 
HETATM    5  C11 UNL     1     -13.402  -3.636   6.268  1.00  0.00     0.130 C 
HETATM    6  C19 UNL     1     -13.383  -2.174   5.871  1.00  0.00     0.067 C 
HETATM    7  C20 UNL     1     -13.332  -2.170   4.335  1.00  0.00     0.214 C 
ENDROOT
BRANCH   5   8
HETATM    8  O4  UNL     1     -13.269  -3.819   7.629  1.00  0.00    -0.353 OA
BRANCH   8   9
HETATM    9  C12 UNL     1     -13.274  -5.115   8.063  1.00  0.00     0.288 C 
BRANCH   9  10
HETATM   10  O5  UNL     1     -14.579  -5.662   8.055  1.00  0.00    -0.369 OA
ATOM     11  H5  UNL     1     -14.821  -6.002   8.909  1.00  0.00     0.212 HD
ENDBRANCH   9  10
BRANCH   9  12
HETATM   12  C13 UNL     1     -12.779  -5.179   9.485  1.00  0.00     0.203 C 
BRANCH  12  13
HETATM   13  O6  UNL     1     -13.196  -6.308  10.142  1.00  0.00    -0.388 OA
ATOM     14  H6  UNL     1     -12.907  -6.335  11.047  1.00  0.00     0.210 HD
ENDBRANCH  12  13
BRANCH  12  15
HETATM   15  C14 UNL     1     -11.253  -5.097   9.526  1.00  0.00     0.184 C 
BRANCH  15  16
HETATM   16  O7  UNL     1     -10.734  -5.607   8.319  1.00  0.00    -0.391 OA
ATOM     17  H7  UNL     1     -10.584  -6.540   8.417  1.00  0.00     0.210 HD
ENDBRANCH  15  16
BRANCH  15  18
HETATM   18  C15 UNL     1     -10.813  -3.678   9.703  1.00  0.00     0.243 C 
HETATM   19  C16 UNL     1     -11.823  -2.923  10.497  1.00  0.00     0.222 C 
HETATM   20  O8  UNL     1     -11.134  -2.067  11.382  1.00  0.00    -0.309 OA
HETATM   21  S1  UNL     1     -10.132  -0.928  10.205  1.00  0.00     0.033 SA
HETATM   22  C17 UNL     1     -10.689  -1.707   8.374  1.00  0.00     0.279 C 
HETATM   23  C18 UNL     1      -9.771  -1.046   7.367  1.00  0.00     0.055 C 
HETATM   24  N3  UNL     1     -10.479  -3.121   8.429  1.00  0.00    -0.051 N 
ATOM     25  H32 UNL     1      -9.524  -3.360   8.163  1.00  0.00     0.279 HD
ATOM     26  H31 UNL     1     -10.983  -3.595   7.679  1.00  0.00     0.279 HD
BRANCH  21  27
HETATM   27  N2  UNL     1      -8.135  -1.080  10.466  1.00  0.00    -0.360 NA
ATOM     28  H22 UNL     1      -7.898  -1.054  11.458  1.00  0.00     0.165 HD
ATOM     29  H21 UNL     1      -7.625  -0.261  10.135  1.00  0.00     0.165 HD
ENDBRANCH  21  27
ENDBRANCH  15  18
ENDBRANCH  12  15
ENDBRANCH   9  12
ENDBRANCH   8   9
ENDBRANCH   5   8
BRANCH   7  30
HETATM   30  N4  UNL     1     -13.726  -0.865   3.905  1.00  0.00    -0.072 N 
ATOM     31  H43 UNL     1     -13.807  -0.229   4.698  1.00  0.00     0.274 HD
ATOM     32  H42 UNL     1     -12.970  -0.404   3.398  1.00  0.00     0.274 HD
ATOM     33  H41 UNL     1     -14.584  -0.869   3.353  1.00  0.00     0.274 HD
ENDBRANCH   7  30
BRANCH   1  34
HETATM   34  O3  UNL     1     -11.691  -2.649   2.625  1.00  0.00    -0.351 OA
BRANCH  34  35
HETATM   35  C6  UNL     1     -10.462  -2.143   2.212  1.00  0.00     0.291 C 
HETATM   36  C5  UNL     1      -9.902  -2.836   1.023  1.00  0.00     0.195 C 
HETATM   37  C4  UNL     1     -10.323  -2.303  -0.294  1.00  0.00     0.142 C 
HETATM   38  C3  UNL     1     -11.420  -1.307  -0.275  1.00  0.00     0.058 C 
HETATM   39  C2  UNL     1     -11.762  -0.741   1.056  1.00  0.00     0.122 C 
HETATM   40  C1  UNL     1     -12.127   0.733   0.924  1.00  0.00     0.040 C 
HETATM   41  O9  UNL     1     -10.658  -0.801   1.906  1.00  0.00    -0.354 OA
BRANCH  36  42
HETATM   42  O2  UNL     1      -8.499  -2.837   1.135  1.00  0.00    -0.389 OA
ATOM     43  H2  UNL     1      -8.204  -3.577   1.651  1.00  0.00     0.210 HD
ENDBRANCH  36  42
BRANCH  37  44
HETATM   44  N1  UNL     1      -9.158  -1.661  -0.925  1.00  0.00    -0.096 NA
BRANCH  44  45
HETATM   45  O1  UNL     1      -8.374  -2.542  -1.551  1.00  0.00    -0.296 OA
ATOM     46  H1  UNL     1      -7.680  -2.120  -2.041  1.00  0.00     0.238 HD
ENDBRANCH  44  45
ENDBRANCH  37  44
ENDBRANCH  34  35
ENDBRANCH   1  34
TORSDOF 15
ENDMDL
MODEL 2
REMARK VINA RESULT: -6.209014999      3.102      3.832
REMARK  15 active torsions:
REMARK  status: ('A' for Active; 'I' for Inactive)
REMARK    1  A    between atoms: C4_4  and  N1_5 
REMARK    2  A    between atoms: N1_5  and  O1_6 
REMARK    3  A    between atoms: C5_8  and  O2_9 
REMARK    4  A    between atoms: C6_11  and  O3_12 
REMARK    5  A    between atoms: O3_12  and  C7_13 
REMARK    6  A    between atoms: C11_17  and  O4_18 
REMARK    7  A    between atoms: O4_18  and  C12_19 
REMARK    8  A    between atoms: C12_19  and  O5_20 
REMARK    9  A    between atoms: C12_19  and  C13_22 
REMARK   10  A    between atoms: C13_22  and  O6_23 
REMARK   11  A    between atoms: C13_22  and  C14_25 
REMARK   12  A    between atoms: C14_25  and  O7_26 
REMARK   13  A    between atoms: C14_25  and  C15_28 
REMARK   14  A    between atoms: S1_31  and  N2_32 
REMARK   15  A    between atoms: C20_41  and  N4_42 
ROOT
HETATM    1  C7  UNL     1     -12.103  -2.201   4.235  1.00  0.00     0.155 C 
HETATM    2  C8  UNL     1     -11.245  -3.382   4.524  1.00  0.00     0.041 C 
HETATM    3  C9  UNL     1     -11.935  -4.541   5.170  1.00  0.00     0.013 C 
HETATM    4  C10 UNL     1     -12.611  -5.350   4.077  1.00  0.00     0.012 C 
HETATM    5  C11 UNL     1     -12.848  -4.194   6.295  1.00  0.00     0.130 C 
HETATM    6  C19 UNL     1     -13.223  -2.726   6.318  1.00  0.00     0.067 C 
HETATM    7  C20 UNL     1     -13.478  -2.348   4.851  1.00  0.00     0.214 C 
ENDROOT
BRANCH   5   8
HETATM    8  O4  UNL     1     -12.413  -4.651   7.521  1.00  0.00    -0.353 OA
BRANCH   8   9
HETATM    9  C12 UNL     1     -12.967  -5.823   7.955  1.00  0.00     0.288 C 
BRANCH   9  10
HETATM   10  O5  UNL     1     -13.335  -5.751   9.319  1.00  0.00    -0.369 OA
ATOM     11  H5  UNL     1     -13.816  -4.955   9.510  1.00  0.00     0.212 HD
ENDBRANCH   9  10
BRANCH   9  12
HETATM   12  C13 UNL     1     -11.963  -6.940   7.829  1.00  0.00     0.203 C 
BRANCH  12  13
HETATM   13  O6  UNL     1     -12.133  -7.680   6.687  1.00  0.00    -0.388 OA
ATOM     14  H6  UNL     1     -12.728  -8.410   6.807  1.00  0.00     0.210 HD
ENDBRANCH  12  13
BRANCH  12  15
HETATM   15  C14 UNL     1     -10.537  -6.388   7.873  1.00  0.00     0.184 C 
BRANCH  15  16
HETATM   16  O7  UNL     1     -10.334  -5.744   9.112  1.00  0.00    -0.391 OA
ATOM     17  H7  UNL     1     -10.169  -4.821   8.956  1.00  0.00     0.210 HD
ENDBRANCH  15  16
BRANCH  15  18
HETATM   18  C15 UNL     1      -9.545  -7.496   7.713  1.00  0.00     0.243 C 
HETATM   19  C16 UNL     1      -8.624  -7.532   8.883  1.00  0.00     0.222 C 
HETATM   20  O8  UNL     1      -8.391  -8.883   9.216  1.00  0.00    -0.309 OA
HETATM   21  S1  UNL     1      -7.582  -9.597   7.628  1.00  0.00     0.033 SA
HETATM   22  C17 UNL     1      -7.590  -7.919   6.422  1.00  0.00     0.279 C 
HETATM   23  C18 UNL     1      -7.197  -8.417   5.047  1.00  0.00     0.055 C 
HETATM   24  N3  UNL     1      -8.920  -7.392   6.430  1.00  0.00    -0.051 N 
ATOM     25  H32 UNL     1      -9.492  -7.830   5.708  1.00  0.00     0.279 HD
ATOM     26  H31 UNL     1      -8.936  -6.430   6.092  1.00  0.00     0.279 HD
BRANCH  21  27
HETATM   27  N2  UNL     1      -8.662 -11.083   6.787  1.00  0.00    -0.360 NA
ATOM     28  H22 UNL     1      -8.415 -11.984   7.197  1.00  0.00     0.165 HD
ATOM     29  H21 UNL     1      -8.418 -11.253   5.811  1.00  0.00     0.165 HD
ENDBRANCH  21  27
ENDBRANCH  15  18
ENDBRANCH  12  15
ENDBRANCH   9  12
ENDBRANCH   8   9
ENDBRANCH   5   8
BRANCH   7  30
HETATM   30  N4  UNL     1     -14.222  -1.126   4.856  1.00  0.00    -0.072 N 
ATOM     31  H43 UNL     1     -14.437  -0.835   5.809  1.00  0.00     0.274 HD
ATOM     32  H42 UNL     1     -13.635  -0.341   4.570  1.00  0.00     0.274 HD
ATOM     33  H41 UNL     1     -15.068  -1.173   4.288  1.00  0.00     0.274 HD
ENDBRANCH   7  30
BRANCH   1  34
HETATM   34  O3  UNL     1     -12.144  -1.967   2.871  1.00  0.00    -0.351 OA
BRANCH  34  35
HETATM   35  C6  UNL     1     -10.920  -1.534   2.368  1.00  0.00     0.291 C 
HETATM   36  C5  UNL     1     -10.373  -2.410   1.300  1.00  0.00     0.195 C 
HETATM   37  C4  UNL     1     -10.810  -2.096  -0.081  1.00  0.00     0.142 C 
HETATM   38  C3  UNL     1     -11.909  -1.111  -0.210  1.00  0.00     0.058 C 
HETATM   39  C2  UNL     1     -12.237  -0.338   1.016  1.00  0.00     0.122 C 
HETATM   40  C1  UNL     1     -12.607   1.095   0.651  1.00  0.00     0.040 C 
HETATM   41  O9  UNL     1     -11.123  -0.259   1.851  1.00  0.00    -0.354 OA
BRANCH  36  42
HETATM   42  O2  UNL     1      -8.968  -2.392   1.394  1.00  0.00    -0.389 OA
ATOM     43  H2  UNL     1      -8.678  -1.678   1.950  1.00  0.00     0.210 HD
ENDBRANCH  36  42
BRANCH  37  44
HETATM   44  N1  UNL     1      -9.653  -1.565  -0.821  1.00  0.00    -0.096 NA
BRANCH  44  45
HETATM   45  O1  UNL     1      -8.864  -2.535  -1.290  1.00  0.00    -0.296 OA
ATOM     46  H1  UNL     1      -8.528  -2.337  -2.155  1.00  0.00     0.238 HD
ENDBRANCH  44  45
ENDBRANCH  37  44
ENDBRANCH  34  35
ENDBRANCH   1  34
TORSDOF 15
ENDMDL
MODEL 3
REMARK VINA RESULT: -6.187452015      2.734      3.668
REMARK  15 active torsions:
REMARK  status: ('A' for Active; 'I' for Inactive)
REMARK    1  A    between atoms: C4_4  and  N1_5 
REMARK    2  A    between atoms: N1_5  and  O1_6 
REMARK    3  A    between atoms: C5_8  and  O2_9 
REMARK    4  A    between atoms: C6_11  and  O3_12 
REMARK    5  A    between atoms: O3_12  and  C7_13 
REMARK    6  A    between atoms: C11_17  and  O4_18 
REMARK    7  A    between atoms: O4_18  and  C12_19 
REMARK    8  A    between atoms: C12_19  and  O5_20 
REMARK    9  A    between atoms: C12_19  and  C13_22 
REMARK   10  A    between atoms: C13_22  and  O6_23 
REMARK   11  A    between atoms: C13_22  and  C14_25 
REMARK   12  A    between atoms: C14_25  and  O7_26 
REMARK   13  A    between atoms: C14_25  and  C15_28 
REMARK   14  A    between atoms: S1_31  and  N2_32 
REMARK   15  A    between atoms: C20_41  and  N4_42 
ROOT
HETATM    1  C7  UNL     1     -11.764  -2.355   4.039  1.00  0.00     0.155 C 
HETATM    2  C8  UNL     1     -11.115  -3.535   4.673  1.00  0.00     0.041 C 
HETATM    3  C9  UNL     1     -12.014  -4.407   5.491  1.00  0.00     0.013 C 
HETATM    4  C10 UNL     1     -12.726  -5.358   4.545  1.00  0.00     0.012 C 
HETATM    5  C11 UNL     1     -12.940  -3.686   6.408  1.00  0.00     0.130 C 
HETATM    6  C19 UNL     1     -13.092  -2.220   6.060  1.00  0.00     0.067 C 
HETATM    7  C20 UNL     1     -13.185  -2.172   4.527  1.00  0.00     0.214 C 
ENDROOT
BRANCH   5   8
HETATM    8  O4  UNL     1     -12.665  -3.891   7.744  1.00  0.00    -0.353 OA
BRANCH   8   9
HETATM    9  C12 UNL     1     -12.549  -5.194   8.139  1.00  0.00     0.288 C 
BRANCH   9  10
HETATM   10  O5  UNL     1     -13.696  -5.630   8.843  1.00  0.00    -0.369 OA
ATOM     11  H5  UNL     1     -13.993  -4.977   9.466  1.00  0.00     0.212 HD
ENDBRANCH   9  10
BRANCH   9  12
HETATM   12  C13 UNL     1     -11.377  -5.341   9.075  1.00  0.00     0.203 C 
BRANCH  12  13
HETATM   13  O6  UNL     1     -11.708  -5.090  10.383  1.00  0.00    -0.388 OA
ATOM     14  H6  UNL     1     -11.772  -4.162  10.575  1.00  0.00     0.210 HD
ENDBRANCH  12  13
BRANCH  12  15
HETATM   15  C14 UNL     1     -10.770  -6.739   8.960  1.00  0.00     0.184 C 
BRANCH  15  16
HETATM   16  O7  UNL     1      -9.377  -6.619   8.777  1.00  0.00    -0.391 OA
ATOM     17  H7  UNL     1      -8.937  -7.263   9.320  1.00  0.00     0.210 HD
ENDBRANCH  15  16
BRANCH  15  18
HETATM   18  C15 UNL     1     -11.048  -7.531  10.199  1.00  0.00     0.243 C 
HETATM   19  C16 UNL     1     -10.030  -8.607  10.359  1.00  0.00     0.222 C 
HETATM   20  O8  UNL     1      -9.700  -8.697  11.727  1.00  0.00    -0.309 OA
HETATM   21  S1  UNL     1     -11.372  -9.146  12.557  1.00  0.00     0.033 SA
HETATM   22  C17 UNL     1     -12.608  -9.187  10.901  1.00  0.00     0.279 C 
HETATM   23  C18 UNL     1     -14.013  -9.291  11.458  1.00  0.00     0.055 C 
HETATM   24  N3  UNL     1     -12.413  -7.959  10.192  1.00  0.00    -0.051 N 
ATOM     25  H32 UNL     1     -13.028  -7.228  10.548  1.00  0.00     0.279 HD
ATOM     26  H31 UNL     1     -12.771  -8.026   9.239  1.00  0.00     0.279 HD
BRANCH  21  27
HETATM   27  N2  UNL     1     -12.000  -7.754  13.880  1.00  0.00    -0.360 NA
ATOM     28  H22 UNL     1     -12.702  -8.145  14.508  1.00  0.00     0.165 HD
ATOM     29  H21 UNL     1     -12.539  -7.004  13.447  1.00  0.00     0.165 HD
ENDBRANCH  21  27
ENDBRANCH  15  18
ENDBRANCH  12  15
ENDBRANCH   9  12
ENDBRANCH   8   9
ENDBRANCH   5   8
BRANCH   7  30
HETATM   30  N4  UNL     1     -13.735  -0.898   4.179  1.00  0.00    -0.072 N 
ATOM     31  H43 UNL     1     -13.041  -0.318   3.710  1.00  0.00     0.274 HD
ATOM     32  H42 UNL     1     -14.415  -0.990   3.424  1.00  0.00     0.274 HD
ATOM     33  H41 UNL     1     -14.141  -0.408   4.977  1.00  0.00     0.274 HD
ENDBRANCH   7  30
BRANCH   1  34
HETATM   34  O3  UNL     1     -11.674  -2.450   2.661  1.00  0.00    -0.351 OA
BRANCH  34  35
HETATM   35  C6  UNL     1     -10.454  -1.991   2.173  1.00  0.00     0.291 C 
HETATM   36  C5  UNL     1      -9.951  -2.761   1.006  1.00  0.00     0.195 C 
HETATM   37  C4  UNL     1     -10.414  -2.297  -0.323  1.00  0.00     0.142 C 
HETATM   38  C3  UNL     1     -11.494  -1.283  -0.321  1.00  0.00     0.058 C 
HETATM   39  C2  UNL     1     -11.775  -0.635   0.987  1.00  0.00     0.122 C 
HETATM   40  C1  UNL     1     -12.123   0.835   0.783  1.00  0.00     0.040 C 
HETATM   41  O9  UNL     1     -10.640  -0.665   1.797  1.00  0.00    -0.354 OA
BRANCH  36  42
HETATM   42  O2  UNL     1      -8.545  -2.780   1.065  1.00  0.00    -0.389 OA
ATOM     43  H2  UNL     1      -8.183  -1.982   0.697  1.00  0.00     0.210 HD
ENDBRANCH  36  42
BRANCH  37  44
HETATM   44  N1  UNL     1      -9.264  -1.714  -1.034  1.00  0.00    -0.096 NA
BRANCH  44  45
HETATM   45  O1  UNL     1      -8.518  -2.644  -1.635  1.00  0.00    -0.296 OA
ATOM     46  H1  UNL     1      -9.032  -3.200  -2.208  1.00  0.00     0.238 HD
ENDBRANCH  44  45
ENDBRANCH  37  44
ENDBRANCH  34  35
ENDBRANCH   1  34
TORSDOF 15
ENDMDL
MODEL 4
REMARK VINA RESULT: -6.143007846      3.280      8.693
REMARK  15 active torsions:
REMARK  status: ('A' for Active; 'I' for Inactive)
REMARK    1  A    between atoms: C4_4  and  N1_5 
REMARK    2  A    between atoms: N1_5  and  O1_6 
REMARK    3  A    between atoms: C5_8  and  O2_9 
REMARK    4  A    between atoms: C6_11  and  O3_12 
REMARK    5  A    between atoms: O3_12  and  C7_13 
REMARK    6  A    between atoms: C11_17  and  O4_18 
REMARK    7  A    between atoms: O4_18  and  C12_19 
REMARK    8  A    between atoms: C12_19  and  O5_20 
REMARK    9  A    between atoms: C12_19  and  C13_22 
REMARK   10  A    between atoms: C13_22  and  O6_23 
REMARK   11  A    between atoms: C13_22  and  C14_25 
REMARK   12  A    between atoms: C14_25  and  O7_26 
REMARK   13  A    between atoms: C14_25  and  C15_28 
REMARK   14  A    between atoms: S1_31  and  N2_32 
REMARK   15  A    between atoms: C20_41  and  N4_42 
ROOT
HETATM    1  C7  UNL     1     -12.050  -4.763   9.709  1.00  0.00     0.155 C 
HETATM    2  C8  UNL     1     -13.265  -4.122  10.280  1.00  0.00     0.041 C 
HETATM    3  C9  UNL     1     -14.138  -3.403   9.302  1.00  0.00     0.013 C 
HETATM    4  C10 UNL     1     -15.041  -4.430   8.640  1.00  0.00     0.012 C 
HETATM    5  C11 UNL     1     -13.423  -2.534   8.327  1.00  0.00     0.130 C 
HETATM    6  C19 UNL     1     -11.942  -2.843   8.237  1.00  0.00     0.067 C 
HETATM    7  C20 UNL     1     -11.844  -4.376   8.260  1.00  0.00     0.214 C 
ENDROOT
BRANCH   5   8
HETATM    8  O4  UNL     1     -13.677  -1.189   8.496  1.00  0.00    -0.353 OA
BRANCH   8   9
HETATM    9  C12 UNL     1     -14.181  -0.533   7.409  1.00  0.00     0.288 C 
BRANCH   9  10
HETATM   10  O5  UNL     1     -15.289   0.276   7.756  1.00  0.00    -0.369 OA
ATOM     11  H5  UNL     1     -15.137   1.189   7.539  1.00  0.00     0.212 HD
ENDBRANCH   9  10
BRANCH   9  12
HETATM   12  C13 UNL     1     -14.669  -1.531   6.390  1.00  0.00     0.203 C 
BRANCH  12  13
HETATM   13  O6  UNL     1     -16.026  -1.727   6.446  1.00  0.00    -0.388 OA
ATOM     14  H6  UNL     1     -16.260  -2.630   6.625  1.00  0.00     0.210 HD
ENDBRANCH  12  13
BRANCH  12  15
HETATM   15  C14 UNL     1     -14.272  -1.096   4.979  1.00  0.00     0.184 C 
BRANCH  15  16
HETATM   16  O7  UNL     1     -14.045   0.295   4.976  1.00  0.00    -0.391 OA
ATOM     17  H7  UNL     1     -14.059   0.608   4.079  1.00  0.00     0.210 HD
ENDBRANCH  15  16
BRANCH  15  18
HETATM   18  C15 UNL     1     -13.031  -1.810   4.545  1.00  0.00     0.243 C 
HETATM   19  C16 UNL     1     -12.738  -1.505   3.116  1.00  0.00     0.222 C 
HETATM   20  O8  UNL     1     -11.343  -1.343   2.980  1.00  0.00    -0.309 OA
HETATM   21  S1  UNL     1     -10.646  -3.048   3.519  1.00  0.00     0.033 SA
HETATM   22  C17 UNL     1     -12.400  -4.036   3.984  1.00  0.00     0.279 C 
HETATM   23  C18 UNL     1     -11.964  -5.320   4.659  1.00  0.00     0.055 C 
HETATM   24  N3  UNL     1     -13.140  -3.197   4.876  1.00  0.00    -0.051 N 
ATOM     25  H32 UNL     1     -12.869  -3.364   5.845  1.00  0.00     0.279 HD
ATOM     26  H31 UNL     1     -14.117  -3.487   4.925  1.00  0.00     0.279 HD
BRANCH  21  27
HETATM   27  N2  UNL     1      -9.442  -2.936   5.138  1.00  0.00    -0.360 NA
ATOM     28  H22 UNL     1      -8.638  -3.556   5.032  1.00  0.00     0.165 HD
ATOM     29  H21 UNL     1      -9.864  -3.327   5.979  1.00  0.00     0.165 HD
ENDBRANCH  21  27
ENDBRANCH  15  18
ENDBRANCH  12  15
ENDBRANCH   9  12
ENDBRANCH   8   9
ENDBRANCH   5   8
BRANCH   7  30
HETATM   30  N4  UNL     1     -10.546  -4.721   7.768  1.00  0.00    -0.072 N 
ATOM     31  H43 UNL     1      -9.907  -4.922   8.537  1.00  0.00     0.274 HD
ATOM     32  H42 UNL     1     -10.559  -5.637   7.319  1.00  0.00     0.274 HD
ATOM     33  H41 UNL     1     -10.156  -4.015   7.144  1.00  0.00     0.274 HD
ENDBRANCH   7  30
BRANCH   1  34
HETATM   34  O3  UNL     1     -12.104  -6.134   9.900  1.00  0.00    -0.351 OA
BRANCH  34  35
HETATM   35  C6  UNL     1     -11.252  -6.565  10.913  1.00  0.00     0.291 C 
HETATM   36  C5  UNL     1     -11.958  -6.936  12.166  1.00  0.00     0.195 C 
HETATM   37  C4  UNL     1     -12.425  -8.340  12.254  1.00  0.00     0.142 C 
HETATM   38  C3  UNL     1     -12.345  -9.134  11.006  1.00  0.00     0.058 C 
HETATM   39  C2  UNL     1     -11.540  -8.539   9.907  1.00  0.00     0.122 C 
HETATM   40  C1  UNL     1     -10.787  -9.632   9.156  1.00  0.00     0.040 C 
HETATM   41  O9  UNL     1     -10.574  -7.677  10.426  1.00  0.00    -0.354 OA
BRANCH  36  42
HETATM   42  O2  UNL     1     -11.119  -6.621  13.252  1.00  0.00    -0.389 OA
ATOM     43  H2  UNL     1     -10.919  -5.692  13.264  1.00  0.00     0.210 HD
ENDBRANCH  36  42
BRANCH  37  44
HETATM   44  N1  UNL     1     -11.614  -9.032  13.270  1.00  0.00    -0.096 NA
BRANCH  44  45
HETATM   45  O1  UNL     1     -10.518  -9.588  12.748  1.00  0.00    -0.296 OA
ATOM     46  H1  UNL     1      -9.835  -9.710  13.395  1.00  0.00     0.238 HD
ENDBRANCH  44  45
ENDBRANCH  37  44
ENDBRANCH  34  35
ENDBRANCH   1  34
TORSDOF 15
ENDMDL
MODEL 5
REMARK VINA RESULT: -6.059152674      4.116      6.343
REMARK  15 active torsions:
REMARK  status: ('A' for Active; 'I' for Inactive)
REMARK    1  A    between atoms: C4_4  and  N1_5 
REMARK    2  A    between atoms: N1_5  and  O1_6 
REMARK    3  A    between atoms: C5_8  and  O2_9 
REMARK    4  A    between atoms: C6_11  and  O3_12 
REMARK    5  A    between atoms: O3_12  and  C7_13 
REMARK    6  A    between atoms: C11_17  and  O4_18 
REMARK    7  A    between atoms: O4_18  and  C12_19 
REMARK    8  A    between atoms: C12_19  and  O5_20 
REMARK    9  A    between atoms: C12_19  and  C13_22 
REMARK   10  A    between atoms: C13_22  and  O6_23 
REMARK   11  A    between atoms: C13_22  and  C14_25 
REMARK   12  A    between atoms: C14_25  and  O7_26 
REMARK   13  A    between atoms: C14_25  and  C15_28 
REMARK   14  A    between atoms: S1_31  and  N2_32 
REMARK   15  A    between atoms: C20_41  and  N4_42 
ROOT
HETATM    1  C7  UNL     1     -11.417  -6.815   6.259  1.00  0.00     0.155 C 
HETATM    2  C8  UNL     1     -12.473  -6.768   5.211  1.00  0.00     0.041 C 
HETATM    3  C9  UNL     1     -13.077  -5.423   4.961  1.00  0.00     0.013 C 
HETATM    4  C10 UNL     1     -12.160  -4.670   4.014  1.00  0.00     0.012 C 
HETATM    5  C11 UNL     1     -13.430  -4.645   6.181  1.00  0.00     0.130 C 
HETATM    6  C19 UNL     1     -12.753  -5.169   7.431  1.00  0.00     0.067 C 
HETATM    7  C20 UNL     1     -11.315  -5.503   7.006  1.00  0.00     0.214 C 
ENDROOT
BRANCH   5   8
HETATM    8  O4  UNL     1     -14.787  -4.463   6.347  1.00  0.00    -0.353 OA
BRANCH   8   9
HETATM    9  C12 UNL     1     -15.160  -3.371   7.079  1.00  0.00     0.288 C 
BRANCH   9  10
HETATM   10  O5  UNL     1     -16.567  -3.274   7.189  1.00  0.00    -0.369 OA
ATOM     11  H5  UNL     1     -16.826  -2.818   7.981  1.00  0.00     0.212 HD
ENDBRANCH   9  10
BRANCH   9  12
HETATM   12  C13 UNL     1     -14.685  -2.114   6.398  1.00  0.00     0.203 C 
BRANCH  12  13
HETATM   13  O6  UNL     1     -15.534  -1.693   5.406  1.00  0.00    -0.388 OA
ATOM     14  H6  UNL     1     -15.264  -0.871   5.015  1.00  0.00     0.210 HD
ENDBRANCH  12  13
BRANCH  12  15
HETATM   15  C14 UNL     1     -14.493  -0.990   7.417  1.00  0.00     0.184 C 
BRANCH  15  16
HETATM   16  O7  UNL     1     -15.760  -0.532   7.836  1.00  0.00    -0.391 OA
ATOM     17  H7  UNL     1     -15.650   0.027   8.596  1.00  0.00     0.210 HD
ENDBRANCH  15  16
BRANCH  15  18
HETATM   18  C15 UNL     1     -13.721  -1.486   8.598  1.00  0.00     0.243 C 
HETATM   19  C16 UNL     1     -14.150  -0.765   9.830  1.00  0.00     0.222 C 
HETATM   20  O8  UNL     1     -14.199  -1.696  10.888  1.00  0.00    -0.309 OA
HETATM   21  S1  UNL     1     -12.390  -2.328  11.005  1.00  0.00     0.033 SA
HETATM   22  C17 UNL     1     -11.520  -1.247   9.475  1.00  0.00     0.279 C 
HETATM   23  C18 UNL     1     -10.137  -1.841   9.306  1.00  0.00     0.055 C 
HETATM   24  N3  UNL     1     -12.322  -1.440   8.305  1.00  0.00    -0.051 N 
ATOM     25  H32 UNL     1     -12.028  -2.272   7.793  1.00  0.00     0.279 HD
ATOM     26  H31 UNL     1     -12.118  -0.732   7.600  1.00  0.00     0.279 HD
BRANCH  21  27
HETATM   27  N2  UNL     1     -12.219  -4.312  10.663  1.00  0.00    -0.360 NA
ATOM     28  H22 UNL     1     -12.966  -4.636  10.049  1.00  0.00     0.165 HD
ATOM     29  H21 UNL     1     -12.403  -4.878  11.490  1.00  0.00     0.165 HD
ENDBRANCH  21  27
ENDBRANCH  15  18
ENDBRANCH  12  15
ENDBRANCH   9  12
ENDBRANCH   8   9
ENDBRANCH   5   8
BRANCH   7  30
HETATM   30  N4  UNL     1     -10.535  -5.599   8.201  1.00  0.00    -0.072 N 
ATOM     31  H43 UNL     1     -10.984  -6.213   8.880  1.00  0.00     0.274 HD
ATOM     32  H42 UNL     1      -9.679  -6.130   8.036  1.00  0.00     0.274 HD
ATOM     33  H41 UNL     1     -10.325  -4.690   8.615  1.00  0.00     0.274 HD
ENDBRANCH   7  30
BRANCH   1  34
HETATM   34  O3  UNL     1     -10.214  -7.215   5.701  1.00  0.00    -0.351 OA
BRANCH  34  35
HETATM   35  C6  UNL     1      -9.986  -8.580   5.848  1.00  0.00     0.291 C 
HETATM   36  C5  UNL     1      -9.265  -9.190   4.701  1.00  0.00     0.195 C 
HETATM   37  C4  UNL     1      -7.785  -9.152   4.774  1.00  0.00     0.142 C 
HETATM   38  C3  UNL     1      -7.206  -8.315   5.851  1.00  0.00     0.058 C 
HETATM   39  C2  UNL     1      -8.153  -7.859   6.902  1.00  0.00     0.122 C 
HETATM   40  C1  UNL     1      -7.467  -7.856   8.263  1.00  0.00     0.040 C 
HETATM   41  O9  UNL     1      -9.227  -8.743   7.001  1.00  0.00    -0.354 OA
BRANCH  36  42
HETATM   42  O2  UNL     1      -9.722 -10.512   4.547  1.00  0.00    -0.389 OA
ATOM     43  H2  UNL     1     -10.215 -10.788   5.311  1.00  0.00     0.210 HD
ENDBRANCH  36  42
BRANCH  37  44
HETATM   44  N1  UNL     1      -7.298 -10.527   4.976  1.00  0.00    -0.096 NA
BRANCH  44  45
HETATM   45  O1  UNL     1      -7.393 -10.914   6.250  1.00  0.00    -0.296 OA
ATOM     46  H1  UNL     1      -7.909 -11.705   6.346  1.00  0.00     0.238 HD
ENDBRANCH  44  45
ENDBRANCH  37  44
ENDBRANCH  34  35
ENDBRANCH   1  34
TORSDOF 15
ENDMDL
