MODEL 1
REMARK VINA RESULT: -5.811661037      0.000      0.000
REMARK  15 active torsions:
REMARK  status: ('A' for Active; 'I' for Inactive)
REMARK    1  A    between atoms: N1_1  and  C1_5 
REMARK    2  A    between atoms: C3_7  and  N2_8 
REMARK    3  A    between atoms: C4_12  and  O1_13 
REMARK    4  A    between atoms: O1_13  and  C5_14 
REMARK    5  A    between atoms: C6_16  and  O3_17 
REMARK    6  A    between atoms: O3_17  and  C7_18 
REMARK    7  A    between atoms: C8_19  and  C9_20 
REMARK    8  A    between atoms: C10_22  and  C11_23 
REMARK    9  A    between atoms: C12_25  and  C13_26 
REMARK   10  A    between atoms: C13_26  and  O4_27 
REMARK   11  A    between atoms: C14_29  and  N3_30 
REMARK   12  A    between atoms: C14_29  and  C15_34 
REMARK   13  A    between atoms: C16_37  and  N4_38 
REMARK   14  A    between atoms: C18_43  and  N5_44 
REMARK   15  A    between atoms: C19_48  and  N6_49 
ROOT
HETATM    1  C5  UNL     1     -11.097  -6.379   9.285  1.00  0.00     0.293 C 
HETATM    2  O2  UNL     1     -11.071  -5.032   8.933  1.00  0.00    -0.327 OA
HETATM    3  C6  UNL     1     -12.345  -4.477   8.842  1.00  0.00     0.293 C 
HETATM    4  C16 UNL     1     -12.871  -4.285  10.231  1.00  0.00     0.240 C 
HETATM    5  C17 UNL     1     -12.131  -5.198  11.185  1.00  0.00     0.075 C 
HETATM    6  C18 UNL     1     -11.995  -6.552  10.512  1.00  0.00     0.240 C 
ENDROOT
BRANCH   3   7
HETATM    7  O3  UNL     1     -12.176  -3.227   8.210  1.00  0.00    -0.350 OA
BRANCH   7   8
HETATM    8  C7  UNL     1     -12.238  -3.346   6.832  1.00  0.00     0.177 C 
HETATM    9  C8  UNL     1     -11.034  -2.752   6.159  1.00  0.00     0.033 C 
HETATM   10  C10 UNL     1     -11.564  -2.033   4.914  1.00  0.00     0.012 C 
HETATM   11  C12 UNL     1     -12.872  -1.533   5.409  1.00  0.00     0.064 C 
HETATM   12  C14 UNL     1     -13.468  -2.620   6.271  1.00  0.00     0.242 C 
BRANCH   9  13
HETATM   13  C9  UNL     1     -10.294  -1.796   7.068  1.00  0.00     0.093 C 
HETATM   14  S1  UNL     1      -9.033  -0.863   6.197  1.00  0.00    -0.097 SA
ENDBRANCH   9  13
BRANCH  10  15
HETATM   15  C11 UNL     1     -11.591  -3.001   3.789  1.00  0.00     0.091 C 
HETATM   16  S2  UNL     1     -10.670  -2.498   2.324  1.00  0.00    -0.097 SA
ENDBRANCH  10  15
BRANCH  11  17
HETATM   17  C13 UNL     1     -13.799  -0.938   4.424  1.00  0.00     0.172 C 
BRANCH  17  18
HETATM   18  O4  UNL     1     -14.238   0.299   4.952  1.00  0.00    -0.400 OA
ATOM     19  H4  UNL     1     -13.576   0.947   4.741  1.00  0.00     0.209 HD
ENDBRANCH  17  18
ENDBRANCH  11  17
BRANCH  12  20
HETATM   20  N3  UNL     1     -14.289  -3.552   5.576  1.00  0.00    -0.057 N 
ATOM     21  H33 UNL     1     -13.889  -4.490   5.569  1.00  0.00     0.276 HD
ATOM     22  H32 UNL     1     -15.148  -3.764   6.083  1.00  0.00     0.276 HD
ATOM     23  H31 UNL     1     -14.474  -3.204   4.635  1.00  0.00     0.276 HD
ENDBRANCH  12  20
BRANCH  12  24
HETATM   24  C15 UNL     1     -14.263  -2.057   7.391  1.00  0.00     0.213 C 
HETATM   25  O5  UNL     1     -14.001  -0.907   7.822  1.00  0.00    -0.646 OA
HETATM   26  O6  UNL     1     -15.302  -2.740   8.008  1.00  0.00    -0.646 OA
ENDBRANCH  12  24
ENDBRANCH   7   8
ENDBRANCH   3   7
BRANCH   4  27
HETATM   27  N4  UNL     1     -14.307  -4.582  10.273  1.00  0.00    -0.070 N 
ATOM     28  H43 UNL     1     -14.647  -4.946   9.382  1.00  0.00     0.274 HD
ATOM     29  H42 UNL     1     -14.512  -5.395  10.854  1.00  0.00     0.274 HD
ATOM     30  H41 UNL     1     -14.827  -3.758  10.572  1.00  0.00     0.274 HD
ENDBRANCH   4  27
BRANCH   1  31
HETATM   31  O1  UNL     1      -9.807  -6.715   9.687  1.00  0.00    -0.350 OA
BRANCH  31  32
HETATM   32  C4  UNL     1      -9.417  -7.969   9.162  1.00  0.00     0.185 C 
HETATM   33  C3  UNL     1      -8.126  -7.762   8.449  1.00  0.00     0.216 C 
HETATM   34  C2  UNL     1      -7.332  -9.000   8.210  1.00  0.00     0.068 C 
HETATM   35  C1  UNL     1      -7.956 -10.252   8.723  1.00  0.00     0.187 C 
HETATM   36  C20 UNL     1      -8.381 -10.037  10.144  1.00  0.00     0.068 C 
HETATM   37  C19 UNL     1      -9.353  -8.920  10.313  1.00  0.00     0.216 C 
BRANCH  33  38
HETATM   38  N2  UNL     1      -8.443  -7.188   7.133  1.00  0.00    -0.072 N 
ATOM     39  H23 UNL     1      -7.649  -6.715   6.702  1.00  0.00     0.274 HD
ATOM     40  H22 UNL     1      -8.582  -7.895   6.412  1.00  0.00     0.274 HD
ATOM     41  H21 UNL     1      -9.252  -6.579   7.257  1.00  0.00     0.274 HD
ENDBRANCH  33  38
BRANCH  35  42
HETATM   42  N1  UNL     1      -6.901 -11.278   8.752  1.00  0.00    -0.075 N 
ATOM     43  H13 UNL     1      -5.984 -10.917   8.490  1.00  0.00     0.274 HD
ATOM     44  H12 UNL     1      -6.659 -11.578   9.697  1.00  0.00     0.274 HD
ATOM     45  H11 UNL     1      -7.214 -12.045   8.157  1.00  0.00     0.274 HD
ENDBRANCH  35  42
BRANCH  37  46
HETATM   46  N6  UNL     1      -9.051  -8.234  11.567  1.00  0.00    -0.072 N 
ATOM     47  H63 UNL     1      -9.053  -8.883  12.354  1.00  0.00     0.274 HD
ATOM     48  H62 UNL     1      -8.075  -7.940  11.603  1.00  0.00     0.274 HD
ATOM     49  H61 UNL     1      -9.681  -7.449  11.731  1.00  0.00     0.274 HD
ENDBRANCH  37  46
ENDBRANCH  31  32
ENDBRANCH   1  31
BRANCH   6  50
HETATM   50  N5  UNL     1     -13.330  -6.976  10.127  1.00  0.00    -0.070 N 
ATOM     51  H53 UNL     1     -13.360  -7.289   9.157  1.00  0.00     0.274 HD
ATOM     52  H52 UNL     1     -13.592  -7.852  10.581  1.00  0.00     0.274 HD
ATOM     53  H51 UNL     1     -14.015  -6.242  10.306  1.00  0.00     0.274 HD
ENDBRANCH   6  50
TORSDOF 15
ENDMDL
MODEL 2
REMARK VINA RESULT: -5.601441175      2.794      3.505
REMARK  15 active torsions:
REMARK  status: ('A' for Active; 'I' for Inactive)
REMARK    1  A    between atoms: N1_1  and  C1_5 
REMARK    2  A    between atoms: C3_7  and  N2_8 
REMARK    3  A    between atoms: C4_12  and  O1_13 
REMARK    4  A    between atoms: O1_13  and  C5_14 
REMARK    5  A    between atoms: C6_16  and  O3_17 
REMARK    6  A    between atoms: O3_17  and  C7_18 
REMARK    7  A    between atoms: C8_19  and  C9_20 
REMARK    8  A    between atoms: C10_22  and  C11_23 
REMARK    9  A    between atoms: C12_25  and  C13_26 
REMARK   10  A    between atoms: C13_26  and  O4_27 
REMARK   11  A    between atoms: C14_29  and  N3_30 
REMARK   12  A    between atoms: C14_29  and  C15_34 
REMARK   13  A    between atoms: C16_37  and  N4_38 
REMARK   14  A    between atoms: C18_43  and  N5_44 
REMARK   15  A    between atoms: C19_48  and  N6_49 
ROOT
HETATM    1  C5  UNL     1     -12.059  -5.509  11.032  1.00  0.00     0.293 C 
HETATM    2  O2  UNL     1     -11.338  -5.105   9.912  1.00  0.00    -0.327 OA
HETATM    3  C6  UNL     1     -11.978  -4.098   9.195  1.00  0.00     0.293 C 
HETATM    4  C16 UNL     1     -11.840  -2.818   9.962  1.00  0.00     0.240 C 
HETATM    5  C17 UNL     1     -11.553  -3.128  11.416  1.00  0.00     0.075 C 
HETATM    6  C18 UNL     1     -12.465  -4.268  11.832  1.00  0.00     0.240 C 
ENDROOT
BRANCH   3   7
HETATM    7  O3  UNL     1     -11.291  -4.003   7.966  1.00  0.00    -0.350 OA
BRANCH   7   8
HETATM    8  C7  UNL     1     -12.113  -4.332   6.903  1.00  0.00     0.177 C 
HETATM    9  C8  UNL     1     -11.797  -5.690   6.343  1.00  0.00     0.033 C 
HETATM   10  C10 UNL     1     -11.906  -5.551   4.821  1.00  0.00     0.012 C 
HETATM   11  C12 UNL     1     -11.404  -4.167   4.625  1.00  0.00     0.064 C 
HETATM   12  C14 UNL     1     -11.958  -3.329   5.753  1.00  0.00     0.242 C 
BRANCH   9  13
HETATM   13  C9  UNL     1     -10.418  -6.161   6.752  1.00  0.00     0.093 C 
HETATM   14  S1  UNL     1     -10.099  -7.856   6.254  1.00  0.00    -0.097 SA
ENDBRANCH   9  13
BRANCH  10  15
HETATM   15  C11 UNL     1     -13.310  -5.826   4.424  1.00  0.00     0.091 C 
HETATM   16  S2  UNL     1     -14.029  -7.315   5.139  1.00  0.00    -0.097 SA
ENDBRANCH  10  15
BRANCH  11  17
HETATM   17  C13 UNL     1     -11.537  -3.571   3.280  1.00  0.00     0.172 C 
BRANCH  17  18
HETATM   18  O4  UNL     1     -10.277  -3.031   2.932  1.00  0.00    -0.400 OA
ATOM     19  H4  UNL     1     -10.406  -2.483   2.166  1.00  0.00     0.209 HD
ENDBRANCH  17  18
ENDBRANCH  11  17
BRANCH  12  20
HETATM   20  N3  UNL     1     -13.216  -2.720   5.484  1.00  0.00    -0.057 N 
ATOM     21  H33 UNL     1     -13.947  -3.047   6.116  1.00  0.00     0.276 HD
ATOM     22  H32 UNL     1     -13.231  -1.734   5.744  1.00  0.00     0.276 HD
ATOM     23  H31 UNL     1     -13.459  -2.864   4.505  1.00  0.00     0.276 HD
ENDBRANCH  12  20
BRANCH  12  24
HETATM   24  C15 UNL     1     -11.010  -2.259   6.157  1.00  0.00     0.213 C 
HETATM   25  O5  UNL     1     -11.442  -1.234   6.741  1.00  0.00    -0.646 OA
HETATM   26  O6  UNL     1      -9.643  -2.323   5.923  1.00  0.00    -0.646 OA
ENDBRANCH  12  24
ENDBRANCH   7   8
ENDBRANCH   3   7
BRANCH   4  27
HETATM   27  N4  UNL     1     -13.072  -2.030   9.856  1.00  0.00    -0.070 N 
ATOM     28  H43 UNL     1     -13.104  -1.487   8.993  1.00  0.00     0.274 HD
ATOM     29  H42 UNL     1     -13.889  -2.619   9.691  1.00  0.00     0.274 HD
ATOM     30  H41 UNL     1     -13.186  -1.443  10.681  1.00  0.00     0.274 HD
ENDBRANCH   4  27
BRANCH   1  31
HETATM   31  O1  UNL     1     -11.183  -6.231  11.837  1.00  0.00    -0.350 OA
BRANCH  31  32
HETATM   32  C4  UNL     1     -11.084  -7.576  11.409  1.00  0.00     0.185 C 
HETATM   33  C3  UNL     1      -9.636  -7.869  11.222  1.00  0.00     0.216 C 
HETATM   34  C2  UNL     1      -9.282  -9.316  11.206  1.00  0.00     0.068 C 
HETATM   35  C1  UNL     1     -10.435 -10.244  11.381  1.00  0.00     0.187 C 
HETATM   36  C20 UNL     1     -11.240  -9.801  12.566  1.00  0.00     0.068 C 
HETATM   37  C19 UNL     1     -11.764  -8.411  12.444  1.00  0.00     0.216 C 
BRANCH  33  38
HETATM   38  N2  UNL     1      -9.244  -7.312   9.918  1.00  0.00    -0.072 N 
ATOM     39  H23 UNL     1      -8.753  -7.983   9.328  1.00  0.00     0.274 HD
ATOM     40  H22 UNL     1     -10.037  -7.148   9.299  1.00  0.00     0.274 HD
ATOM     41  H21 UNL     1      -8.700  -6.468  10.103  1.00  0.00     0.274 HD
ENDBRANCH  33  38
BRANCH  35  42
HETATM   42  N1  UNL     1      -9.878 -11.562  11.722  1.00  0.00    -0.075 N 
ATOM     43  H13 UNL     1     -10.328 -12.329  11.222  1.00  0.00     0.274 HD
ATOM     44  H12 UNL     1      -8.935 -11.705  11.359  1.00  0.00     0.274 HD
ATOM     45  H11 UNL     1      -9.935 -11.658  12.736  1.00  0.00     0.274 HD
ENDBRANCH  35  42
BRANCH  37  46
HETATM   46  N6  UNL     1     -11.717  -7.786  13.763  1.00  0.00    -0.072 N 
ATOM     47  H63 UNL     1     -12.131  -6.853  13.747  1.00  0.00     0.274 HD
ATOM     48  H62 UNL     1     -12.363  -8.236  14.411  1.00  0.00     0.274 HD
ATOM     49  H61 UNL     1     -10.769  -7.764  14.139  1.00  0.00     0.274 HD
ENDBRANCH  37  46
ENDBRANCH  31  32
ENDBRANCH   1  31
BRANCH   6  50
HETATM   50  N5  UNL     1     -13.826  -3.867  11.519  1.00  0.00    -0.070 N 
ATOM     51  H53 UNL     1     -14.510  -4.448  12.002  1.00  0.00     0.274 HD
ATOM     52  H52 UNL     1     -14.059  -2.968  11.943  1.00  0.00     0.274 HD
ATOM     53  H51 UNL     1     -13.985  -3.859  10.511  1.00  0.00     0.274 HD
ENDBRANCH   6  50
TORSDOF 15
ENDMDL
MODEL 3
REMARK VINA RESULT: -5.585687959      3.618      7.842
REMARK  15 active torsions:
REMARK  status: ('A' for Active; 'I' for Inactive)
REMARK    1  A    between atoms: N1_1  and  C1_5 
REMARK    2  A    between atoms: C3_7  and  N2_8 
REMARK    3  A    between atoms: C4_12  and  O1_13 
REMARK    4  A    between atoms: O1_13  and  C5_14 
REMARK    5  A    between atoms: C6_16  and  O3_17 
REMARK    6  A    between atoms: O3_17  and  C7_18 
REMARK    7  A    between atoms: C8_19  and  C9_20 
REMARK    8  A    between atoms: C10_22  and  C11_23 
REMARK    9  A    between atoms: C12_25  and  C13_26 
REMARK   10  A    between atoms: C13_26  and  O4_27 
REMARK   11  A    between atoms: C14_29  and  N3_30 
REMARK   12  A    between atoms: C14_29  and  C15_34 
REMARK   13  A    between atoms: C16_37  and  N4_38 
REMARK   14  A    between atoms: C18_43  and  N5_44 
REMARK   15  A    between atoms: C19_48  and  N6_49 
ROOT
HETATM    1  C5  UNL     1     -12.497  -4.009   7.260  1.00  0.00     0.293 C 
HETATM    2  O2  UNL     1     -11.288  -4.670   7.454  1.00  0.00    -0.327 OA
HETATM    3  C6  UNL     1     -11.354  -6.019   7.115  1.00  0.00     0.293 C 
HETATM    4  C16 UNL     1     -11.374  -6.125   5.621  1.00  0.00     0.240 C 
HETATM    5  C17 UNL     1     -11.840  -4.813   5.026  1.00  0.00     0.075 C 
HETATM    6  C18 UNL     1     -13.014  -4.324   5.855  1.00  0.00     0.240 C 
ENDROOT
BRANCH   3   7
HETATM    7  O3  UNL     1     -10.176  -6.603   7.627  1.00  0.00    -0.350 OA
BRANCH   7   8
HETATM    8  C7  UNL     1     -10.353  -7.951   7.885  1.00  0.00     0.177 C 
HETATM    9  C8  UNL     1     -10.845  -8.199   9.283  1.00  0.00     0.033 C 
HETATM   10  C10 UNL     1     -10.089  -9.436   9.779  1.00  0.00     0.012 C 
HETATM   11  C12 UNL     1      -8.770  -9.245   9.125  1.00  0.00     0.064 C 
HETATM   12  C14 UNL     1      -9.034  -8.720   7.734  1.00  0.00     0.242 C 
BRANCH   9  13
HETATM   13  C9  UNL     1     -10.599  -7.010  10.186  1.00  0.00     0.093 C 
HETATM   14  S1  UNL     1     -11.339  -7.220  11.808  1.00  0.00    -0.097 SA
ENDBRANCH   9  13
BRANCH  10  15
HETATM   15  C11 UNL     1     -10.865 -10.643   9.399  1.00  0.00     0.091 C 
HETATM   16  S2  UNL     1     -12.652 -10.490   9.573  1.00  0.00    -0.097 SA
ENDBRANCH  10  15
BRANCH  11  17
HETATM   17  C13 UNL     1      -7.797 -10.355   9.199  1.00  0.00     0.172 C 
BRANCH  17  18
HETATM   18  O4  UNL     1      -7.410 -10.485  10.554  1.00  0.00    -0.400 OA
ATOM     19  H4  UNL     1      -6.681 -11.094  10.582  1.00  0.00     0.209 HD
ENDBRANCH  17  18
ENDBRANCH  11  17
BRANCH  12  20
HETATM   20  N3  UNL     1      -9.184  -9.722   6.734  1.00  0.00    -0.057 N 
ATOM     21  H33 UNL     1      -9.948 -10.365   6.943  1.00  0.00     0.276 HD
ATOM     22  H32 UNL     1      -9.548  -9.344   5.859  1.00  0.00     0.276 HD
ATOM     23  H31 UNL     1      -8.296 -10.206   6.605  1.00  0.00     0.276 HD
ENDBRANCH  12  20
BRANCH  12  24
HETATM   24  C15 UNL     1      -7.968  -7.787   7.289  1.00  0.00     0.213 C 
HETATM   25  O5  UNL     1      -7.236  -7.226   8.143  1.00  0.00    -0.646 OA
HETATM   26  O6  UNL     1      -7.723  -7.487   5.955  1.00  0.00    -0.646 OA
ENDBRANCH  12  24
ENDBRANCH   7   8
ENDBRANCH   3   7
BRANCH   4  27
HETATM   27  N4  UNL     1     -12.273  -7.206   5.203  1.00  0.00    -0.070 N 
ATOM     28  H43 UNL     1     -12.071  -8.079   5.691  1.00  0.00     0.274 HD
ATOM     29  H42 UNL     1     -13.225  -7.063   5.541  1.00  0.00     0.274 HD
ATOM     30  H41 UNL     1     -12.240  -7.319   4.191  1.00  0.00     0.274 HD
ENDBRANCH   4  27
BRANCH   1  31
HETATM   31  O1  UNL     1     -12.219  -2.644   7.284  1.00  0.00    -0.350 OA
BRANCH  31  32
HETATM   32  C4  UNL     1     -10.982  -2.385   7.919  1.00  0.00     0.185 C 
HETATM   33  C3  UNL     1     -10.225  -1.452   7.037  1.00  0.00     0.216 C 
HETATM   34  C2  UNL     1      -9.115  -0.716   7.703  1.00  0.00     0.068 C 
HETATM   35  C1  UNL     1      -8.936  -1.027   9.150  1.00  0.00     0.187 C 
HETATM   36  C20 UNL     1     -10.265  -0.928   9.836  1.00  0.00     0.068 C 
HETATM   37  C19 UNL     1     -11.295  -1.848   9.277  1.00  0.00     0.216 C 
BRANCH  33  38
HETATM   38  N2  UNL     1      -9.628  -2.258   5.962  1.00  0.00    -0.072 N 
ATOM     39  H23 UNL     1      -9.219  -1.693   5.219  1.00  0.00     0.274 HD
ATOM     40  H22 UNL     1      -8.775  -2.737   6.248  1.00  0.00     0.274 HD
ATOM     41  H21 UNL     1     -10.351  -2.896   5.626  1.00  0.00     0.274 HD
ENDBRANCH  33  38
BRANCH  35  42
HETATM   42  N1  UNL     1      -8.090   0.034   9.717  1.00  0.00    -0.075 N 
ATOM     43  H13 UNL     1      -7.093  -0.168   9.648  1.00  0.00     0.274 HD
ATOM     44  H12 UNL     1      -8.090   0.888   9.158  1.00  0.00     0.274 HD
ATOM     45  H11 UNL     1      -8.403   0.184  10.676  1.00  0.00     0.274 HD
ENDBRANCH  35  42
BRANCH  37  46
HETATM   46  N6  UNL     1     -12.586  -1.164   9.305  1.00  0.00    -0.072 N 
ATOM     47  H63 UNL     1     -13.029  -1.169   8.386  1.00  0.00     0.274 HD
ATOM     48  H62 UNL     1     -13.281  -1.704   9.820  1.00  0.00     0.274 HD
ATOM     49  H61 UNL     1     -12.504  -0.216   9.673  1.00  0.00     0.274 HD
ENDBRANCH  37  46
ENDBRANCH  31  32
ENDBRANCH   1  31
BRANCH   6  50
HETATM   50  N5  UNL     1     -13.994  -5.396   5.886  1.00  0.00    -0.070 N 
ATOM     51  H53 UNL     1     -13.614  -6.264   5.511  1.00  0.00     0.274 HD
ATOM     52  H52 UNL     1     -14.181  -5.707   6.839  1.00  0.00     0.274 HD
ATOM     53  H51 UNL     1     -14.852  -5.123   5.405  1.00  0.00     0.274 HD
ENDBRANCH   6  50
TORSDOF 15
ENDMDL
MODEL 4
REMARK VINA RESULT: -5.537274145      3.542      7.783
REMARK  15 active torsions:
REMARK  status: ('A' for Active; 'I' for Inactive)
REMARK    1  A    between atoms: N1_1  and  C1_5 
REMARK    2  A    between atoms: C3_7  and  N2_8 
REMARK    3  A    between atoms: C4_12  and  O1_13 
REMARK    4  A    between atoms: O1_13  and  C5_14 
REMARK    5  A    between atoms: C6_16  and  O3_17 
REMARK    6  A    between atoms: O3_17  and  C7_18 
REMARK    7  A    between atoms: C8_19  and  C9_20 
REMARK    8  A    between atoms: C10_22  and  C11_23 
REMARK    9  A    between atoms: C12_25  and  C13_26 
REMARK   10  A    between atoms: C13_26  and  O4_27 
REMARK   11  A    between atoms: C14_29  and  N3_30 
REMARK   12  A    between atoms: C14_29  and  C15_34 
REMARK   13  A    between atoms: C16_37  and  N4_38 
REMARK   14  A    between atoms: C18_43  and  N5_44 
REMARK   15  A    between atoms: C19_48  and  N6_49 
ROOT
HETATM    1  C5  UNL     1     -12.646  -1.006   4.517  1.00  0.00     0.293 C 
HETATM    2  O2  UNL     1     -12.146  -2.012   5.339  1.00  0.00    -0.327 OA
HETATM    3  C6  UNL     1     -12.326  -1.738   6.692  1.00  0.00     0.293 C 
HETATM    4  C16 UNL     1     -13.772  -1.945   7.023  1.00  0.00     0.240 C 
HETATM    5  C17 UNL     1     -14.599  -1.852   5.758  1.00  0.00     0.075 C 
HETATM    6  C18 UNL     1     -14.076  -0.677   4.952  1.00  0.00     0.240 C 
ENDROOT
BRANCH   3   7
HETATM    7  O3  UNL     1     -11.530  -2.676   7.384  1.00  0.00    -0.350 OA
BRANCH   7   8
HETATM    8  C7  UNL     1     -12.247  -3.300   8.389  1.00  0.00     0.177 C 
HETATM    9  C8  UNL     1     -11.720  -2.958   9.754  1.00  0.00     0.033 C 
HETATM   10  C10 UNL     1     -11.774  -4.259  10.561  1.00  0.00     0.012 C 
HETATM   11  C12 UNL     1     -11.458  -5.260   9.510  1.00  0.00     0.064 C 
HETATM   12  C14 UNL     1     -12.176  -4.827   8.254  1.00  0.00     0.242 C 
BRANCH   9  13
HETATM   13  C9  UNL     1     -10.311  -2.410   9.693  1.00  0.00     0.093 C 
HETATM   14  S1  UNL     1     -10.199  -0.742  10.347  1.00  0.00    -0.097 SA
ENDBRANCH   9  13
BRANCH  10  15
HETATM   15  C11 UNL     1     -13.106  -4.354  11.210  1.00  0.00     0.091 C 
HETATM   16  S2  UNL     1     -13.076  -4.772  12.962  1.00  0.00    -0.097 SA
ENDBRANCH  10  15
BRANCH  11  17
HETATM   17  C13 UNL     1     -11.607  -6.689   9.854  1.00  0.00     0.172 C 
BRANCH  17  18
HETATM   18  O4  UNL     1     -10.372  -7.320   9.573  1.00  0.00    -0.400 OA
ATOM     19  H4  UNL     1      -9.704  -6.869  10.077  1.00  0.00     0.209 HD
ENDBRANCH  17  18
ENDBRANCH  11  17
BRANCH  12  20
HETATM   20  N3  UNL     1     -13.491  -5.350   8.105  1.00  0.00    -0.057 N 
ATOM     21  H33 UNL     1     -13.839  -5.772   8.966  1.00  0.00     0.276 HD
ATOM     22  H32 UNL     1     -14.191  -4.614   8.012  1.00  0.00     0.276 HD
ATOM     23  H31 UNL     1     -13.509  -6.001   7.320  1.00  0.00     0.276 HD
ENDBRANCH  12  20
BRANCH  12  24
HETATM   24  C15 UNL     1     -11.404  -5.177   7.034  1.00  0.00     0.213 C 
HETATM   25  O5  UNL     1     -10.171  -5.403   7.123  1.00  0.00    -0.646 OA
HETATM   26  O6  UNL     1     -11.973  -5.274   5.772  1.00  0.00    -0.646 OA
ENDBRANCH  12  24
ENDBRANCH   7   8
ENDBRANCH   3   7
BRANCH   4  27
HETATM   27  N4  UNL     1     -14.219  -0.932   7.984  1.00  0.00    -0.070 N 
ATOM     28  H43 UNL     1     -15.223  -0.759   7.918  1.00  0.00     0.274 HD
ATOM     29  H42 UNL     1     -14.191  -1.277   8.944  1.00  0.00     0.274 HD
ATOM     30  H41 UNL     1     -13.677  -0.076   7.871  1.00  0.00     0.274 HD
ENDBRANCH   4  27
BRANCH   1  31
HETATM   31  O1  UNL     1     -12.735  -1.541   3.234  1.00  0.00    -0.350 OA
BRANCH  31  32
HETATM   32  C4  UNL     1     -11.475  -1.538   2.590  1.00  0.00     0.185 C 
HETATM   33  C3  UNL     1     -11.125  -2.959   2.310  1.00  0.00     0.216 C 
HETATM   34  C2  UNL     1     -10.080  -3.157   1.267  1.00  0.00     0.068 C 
HETATM   35  C1  UNL     1      -9.550  -1.901   0.666  1.00  0.00     0.187 C 
HETATM   36  C20 UNL     1     -10.701  -1.035   0.253  1.00  0.00     0.068 C 
HETATM   37  C19 UNL     1     -11.610  -0.675   1.378  1.00  0.00     0.216 C 
BRANCH  33  38
HETATM   38  N2  UNL     1     -10.606  -3.533   3.560  1.00  0.00    -0.072 N 
ATOM     39  H23 UNL     1      -9.602  -3.712   3.531  1.00  0.00     0.274 HD
ATOM     40  H22 UNL     1     -10.599  -2.868   4.333  1.00  0.00     0.274 HD
ATOM     41  H21 UNL     1     -11.155  -4.370   3.758  1.00  0.00     0.274 HD
ENDBRANCH  33  38
BRANCH  35  42
HETATM   42  N1  UNL     1      -8.845  -2.279  -0.569  1.00  0.00    -0.075 N 
ATOM     43  H13 UNL     1      -8.004  -2.831  -0.398  1.00  0.00     0.274 HD
ATOM     44  H12 UNL     1      -9.348  -2.975  -1.121  1.00  0.00     0.274 HD
ATOM     45  H11 UNL     1      -8.661  -1.418  -1.084  1.00  0.00     0.274 HD
ENDBRANCH  35  42
BRANCH  37  46
HETATM   46  N6  UNL     1     -12.981  -0.659   0.873  1.00  0.00    -0.072 N 
ATOM     47  H63 UNL     1     -13.001  -0.670  -0.147  1.00  0.00     0.274 HD
ATOM     48  H62 UNL     1     -13.453  -1.545   1.052  1.00  0.00     0.274 HD
ATOM     49  H61 UNL     1     -13.513   0.127   1.247  1.00  0.00     0.274 HD
ENDBRANCH  37  46
ENDBRANCH  31  32
ENDBRANCH   1  31
BRANCH   6  50
HETATM   50  N5  UNL     1     -14.103   0.487   5.821  1.00  0.00    -0.070 N 
ATOM     51  H53 UNL     1     -14.500   1.299   5.349  1.00  0.00     0.274 HD
ATOM     52  H52 UNL     1     -14.795   0.386   6.564  1.00  0.00     0.274 HD
ATOM     53  H51 UNL     1     -13.176   0.687   6.197  1.00  0.00     0.274 HD
ENDBRANCH   6  50
TORSDOF 15
ENDMDL
MODEL 5
REMARK VINA RESULT: -5.464755095      2.695      7.703
REMARK  15 active torsions:
REMARK  status: ('A' for Active; 'I' for Inactive)
REMARK    1  A    between atoms: N1_1  and  C1_5 
REMARK    2  A    between atoms: C3_7  and  N2_8 
REMARK    3  A    between atoms: C4_12  and  O1_13 
REMARK    4  A    between atoms: O1_13  and  C5_14 
REMARK    5  A    between atoms: C6_16  and  O3_17 
REMARK    6  A    between atoms: O3_17  and  C7_18 
REMARK    7  A    between atoms: C8_19  and  C9_20 
REMARK    8  A    between atoms: C10_22  and  C11_23 
REMARK    9  A    between atoms: C12_25  and  C13_26 
REMARK   10  A    between atoms: C13_26  and  O4_27 
REMARK   11  A    between atoms: C14_29  and  N3_30 
REMARK   12  A    between atoms: C14_29  and  C15_34 
REMARK   13  A    between atoms: C16_37  and  N4_38 
REMARK   14  A    between atoms: C18_43  and  N5_44 
REMARK   15  A    between atoms: C19_48  and  N6_49 
ROOT
HETATM    1  C5  UNL     1     -12.125  -4.148   7.941  1.00  0.00     0.293 C 
HETATM    2  O2  UNL     1     -11.936  -5.526   7.880  1.00  0.00    -0.327 OA
HETATM    3  C6  UNL     1     -11.354  -6.039   9.036  1.00  0.00     0.293 C 
HETATM    4  C16 UNL     1     -12.392  -6.053  10.116  1.00  0.00     0.240 C 
HETATM    5  C17 UNL     1     -13.489  -5.067   9.777  1.00  0.00     0.075 C 
HETATM    6  C18 UNL     1     -12.827  -3.803   9.257  1.00  0.00     0.240 C 
ENDROOT
BRANCH   3   7
HETATM    7  O3  UNL     1     -10.966  -7.358   8.719  1.00  0.00    -0.350 OA
BRANCH   7   8
HETATM    8  C7  UNL     1      -9.758  -7.380   8.044  1.00  0.00     0.177 C 
HETATM    9  C8  UNL     1      -9.860  -8.094   6.726  1.00  0.00     0.033 C 
HETATM   10  C10 UNL     1      -8.572  -8.914   6.594  1.00  0.00     0.012 C 
HETATM   11  C12 UNL     1      -8.335  -9.301   8.008  1.00  0.00     0.064 C 
HETATM   12  C14 UNL     1      -8.681  -8.105   8.862  1.00  0.00     0.242 C 
BRANCH   9  13
HETATM   13  C9  UNL     1     -11.083  -8.982   6.660  1.00  0.00     0.093 C 
HETATM   14  S1  UNL     1     -12.288  -8.395   5.466  1.00  0.00    -0.097 SA
ENDBRANCH   9  13
BRANCH  10  15
HETATM   15  C11 UNL     1      -7.542  -8.067   5.942  1.00  0.00     0.091 C 
HETATM   16  S2  UNL     1      -6.803  -8.769   4.457  1.00  0.00    -0.097 SA
ENDBRANCH  10  15
BRANCH  11  17
HETATM   17  C13 UNL     1      -7.051  -9.954   8.337  1.00  0.00     0.172 C 
BRANCH  17  18
HETATM   18  O4  UNL     1      -7.336 -11.027   9.212  1.00  0.00    -0.400 OA
ATOM     19  H4  UNL     1      -6.991 -11.817   8.812  1.00  0.00     0.209 HD
ENDBRANCH  17  18
ENDBRANCH  11  17
BRANCH  12  20
HETATM   20  N3  UNL     1      -7.599  -7.214   9.112  1.00  0.00    -0.057 N 
ATOM     21  H33 UNL     1      -7.757  -6.291   8.708  1.00  0.00     0.276 HD
ATOM     22  H32 UNL     1      -7.545  -6.937  10.092  1.00  0.00     0.276 HD
ATOM     23  H31 UNL     1      -6.731  -7.637   8.782  1.00  0.00     0.276 HD
ENDBRANCH  12  20
BRANCH  12  24
HETATM   24  C15 UNL     1      -9.248  -8.512  10.172  1.00  0.00     0.213 C 
HETATM   25  O5  UNL     1      -9.805  -9.633  10.287  1.00  0.00    -0.646 OA
HETATM   26  O6  UNL     1      -9.202  -7.713  11.306  1.00  0.00    -0.646 OA
ENDBRANCH  12  24
ENDBRANCH   7   8
ENDBRANCH   3   7
BRANCH   4  27
HETATM   27  N4  UNL     1     -11.786  -5.698  11.403  1.00  0.00    -0.070 N 
ATOM     28  H43 UNL     1     -10.787  -5.903  11.424  1.00  0.00     0.274 HD
ATOM     29  H42 UNL     1     -11.735  -4.689  11.536  1.00  0.00     0.274 HD
ATOM     30  H41 UNL     1     -12.285  -6.158  12.165  1.00  0.00     0.274 HD
ENDBRANCH   4  27
BRANCH   1  31
HETATM   31  O1  UNL     1     -13.013  -3.818   6.920  1.00  0.00    -0.350 OA
BRANCH  31  32
HETATM   32  C4  UNL     1     -12.366  -3.088   5.895  1.00  0.00     0.185 C 
HETATM   33  C3  UNL     1     -12.137  -4.032   4.766  1.00  0.00     0.216 C 
HETATM   34  C2  UNL     1     -11.880  -3.388   3.447  1.00  0.00     0.068 C 
HETATM   35  C1  UNL     1     -11.894  -1.898   3.466  1.00  0.00     0.187 C 
HETATM   36  C20 UNL     1     -13.133  -1.431   4.169  1.00  0.00     0.068 C 
HETATM   37  C19 UNL     1     -13.244  -1.924   5.571  1.00  0.00     0.216 C 
BRANCH  33  38
HETATM   38  N2  UNL     1     -10.947  -4.829   5.099  1.00  0.00    -0.072 N 
ATOM     39  H23 UNL     1     -11.150  -5.822   5.211  1.00  0.00     0.274 HD
ATOM     40  H22 UNL     1     -10.293  -4.916   4.321  1.00  0.00     0.274 HD
ATOM     41  H21 UNL     1     -10.527  -4.411   5.929  1.00  0.00     0.274 HD
ENDBRANCH  33  38
BRANCH  35  42
HETATM   42  N1  UNL     1     -12.011  -1.451   2.069  1.00  0.00    -0.075 N 
ATOM     43  H13 UNL     1     -11.133  -1.102   1.685  1.00  0.00     0.274 HD
ATOM     44  H12 UNL     1     -12.144  -2.220   1.412  1.00  0.00     0.274 HD
ATOM     45  H11 UNL     1     -12.763  -0.763   2.038  1.00  0.00     0.274 HD
ENDBRANCH  35  42
BRANCH  37  46
HETATM   46  N6  UNL     1     -14.649  -2.211   5.847  1.00  0.00    -0.072 N 
ATOM     47  H63 UNL     1     -14.950  -3.070   5.387  1.00  0.00     0.274 HD
ATOM     48  H62 UNL     1     -14.787  -2.493   6.817  1.00  0.00     0.274 HD
ATOM     49  H61 UNL     1     -15.252  -1.426   5.599  1.00  0.00     0.274 HD
ENDBRANCH  37  46
ENDBRANCH  31  32
ENDBRANCH   1  31
BRANCH   6  50
HETATM   50  N5  UNL     1     -11.870  -3.375  10.263  1.00  0.00    -0.070 N 
ATOM     51  H53 UNL     1     -12.002  -3.872  11.143  1.00  0.00     0.274 HD
ATOM     52  H52 UNL     1     -10.926  -3.694  10.044  1.00  0.00     0.274 HD
ATOM     53  H51 UNL     1     -11.903  -2.364  10.395  1.00  0.00     0.274 HD
ENDBRANCH   6  50
TORSDOF 15
ENDMDL
