MODEL 1
REMARK VINA RESULT: -6.488120085      0.000      0.000
REMARK  5 active torsions:
REMARK  status: ('A' for Active; 'I' for Inactive)
REMARK    1  A    between atoms: C2_2  and  C3_3 
REMARK    2  A    between atoms: C3_3  and  C4_4 
REMARK    3  A    between atoms: C4_4  and  N1_5 
REMARK    4  A    between atoms: C7_8  and  N2_9 
REMARK    5  A    between atoms: C9_14  and  N4_15 
ROOT
HETATM    1  N1  UNL     1       6.334  19.551  76.037  1.00  0.00    -0.301 N 
HETATM    2  C5  UNL     1       5.702  20.608  75.491  1.00  0.00     0.129 A 
HETATM    3  C6  UNL     1       5.925  20.650  74.146  1.00  0.00     0.071 A 
HETATM    4  C7  UNL     1       5.546  21.479  73.102  1.00  0.00     0.132 A 
HETATM    5  N3  UNL     1       5.934  21.262  71.835  1.00  0.00    -0.176 N 
ATOM      6  H3  UNL     1       5.644  21.884  71.081  1.00  0.00     0.186 HD
HETATM    7  C9  UNL     1       6.716  20.200  71.594  1.00  0.00     0.680 A 
HETATM    8  N5  UNL     1       7.093  19.390  72.586  1.00  0.00    -0.174 N 
ATOM      9  H5  UNL     1       7.690  18.595  72.360  1.00  0.00     0.186 HD
HETATM   10  C11 UNL     1       6.729  19.567  73.867  1.00  0.00     0.151 A 
HETATM   11  N6  UNL     1       6.941  18.949  75.032  1.00  0.00    -0.282 N 
ATOM     12  H6  UNL     1       7.508  18.107  75.134  1.00  0.00     0.189 HD
ENDROOT
BRANCH   1  13
HETATM   13  C4  UNL     1       6.292  19.235  77.433  1.00  0.00     0.148 C 
BRANCH  13  14
HETATM   14  C3  UNL     1       6.712  20.365  78.329  1.00  0.00     0.021 C 
BRANCH  14  15
HETATM   15  C2  UNL     1       7.122  21.596  77.589  1.00  0.00    -0.003 C 
HETATM   16  C1  UNL     1       8.290  22.219  78.333  1.00  0.00     0.005 C 
ENDBRANCH  14  15
ENDBRANCH  13  14
ENDBRANCH   1  13
BRANCH   4  17
HETATM   17  N2  UNL     1       4.796  22.477  73.406  1.00  0.00    -0.379 N 
HETATM   18  C8  UNL     1       4.844  23.757  72.728  1.00  0.00     0.147 C 
ATOM     19  H2  UNL     1       4.128  22.361  74.168  1.00  0.00     0.160 HD
ENDBRANCH   4  17
BRANCH   7  20
HETATM   20  N4  UNL     1       7.089  19.999  70.354  1.00  0.00    -0.230 N 
HETATM   21  C10 UNL     1       8.488  20.182  70.006  1.00  0.00     0.165 C 
ATOM     22  H4  UNL     1       6.410  19.720  69.646  1.00  0.00     0.177 HD
ENDBRANCH   7  20
TORSDOF 5
ENDMDL
MODEL 2
REMARK VINA RESULT: -6.249732595      1.250      5.002
REMARK  5 active torsions:
REMARK  status: ('A' for Active; 'I' for Inactive)
REMARK    1  A    between atoms: C2_2  and  C3_3 
REMARK    2  A    between atoms: C3_3  and  C4_4 
REMARK    3  A    between atoms: C4_4  and  N1_5 
REMARK    4  A    between atoms: C7_8  and  N2_9 
REMARK    5  A    between atoms: C9_14  and  N4_15 
ROOT
HETATM    1  N1  UNL     1       6.760  19.643  72.026  1.00  0.00    -0.301 N 
HETATM    2  C5  UNL     1       5.948  20.702  72.212  1.00  0.00     0.129 A 
HETATM    3  C6  UNL     1       5.825  20.977  73.542  1.00  0.00     0.071 A 
HETATM    4  C7  UNL     1       5.146  21.915  74.304  1.00  0.00     0.132 A 
HETATM    5  N3  UNL     1       5.217  21.941  75.644  1.00  0.00    -0.176 N 
ATOM      6  H3  UNL     1       4.710  22.640  76.187  1.00  0.00     0.186 HD
HETATM    7  C9  UNL     1       5.980  21.017  76.247  1.00  0.00     0.680 A 
HETATM    8  N5  UNL     1       6.641  20.104  75.532  1.00  0.00    -0.174 N 
ATOM      9  H5  UNL     1       7.208  19.418  76.030  1.00  0.00     0.186 HD
HETATM   10  C11 UNL     1       6.599  20.041  74.191  1.00  0.00     0.151 A 
HETATM   11  N6  UNL     1       7.132  19.271  73.237  1.00  0.00    -0.282 N 
ATOM     12  H6  UNL     1       7.755  18.486  73.422  1.00  0.00     0.189 HD
ENDROOT
BRANCH   1  13
HETATM   13  C4  UNL     1       7.087  19.110  70.738  1.00  0.00     0.148 C 
BRANCH  13  14
HETATM   14  C3  UNL     1       8.293  19.739  70.104  1.00  0.00     0.021 C 
BRANCH  14  15
HETATM   15  C2  UNL     1       9.074  20.612  71.032  1.00  0.00    -0.003 C 
HETATM   16  C1  UNL     1      10.170  19.766  71.654  1.00  0.00     0.005 C 
ENDBRANCH  14  15
ENDBRANCH  13  14
ENDBRANCH   1  13
BRANCH   4  17
HETATM   17  N2  UNL     1       4.435  22.770  73.661  1.00  0.00    -0.379 N 
HETATM   18  C8  UNL     1       4.991  23.843  72.861  1.00  0.00     0.147 C 
ATOM     19  H2  UNL     1       3.419  22.689  73.715  1.00  0.00     0.160 HD
ENDBRANCH   4  17
BRANCH   7  20
HETATM   20  N4  UNL     1       6.041  21.051  77.555  1.00  0.00    -0.230 N 
HETATM   21  C10 UNL     1       6.530  19.880  78.264  1.00  0.00     0.165 C 
ATOM     22  H4  UNL     1       5.752  21.885  78.067  1.00  0.00     0.177 HD
ENDBRANCH   7  20
TORSDOF 5
ENDMDL
MODEL 3
REMARK VINA RESULT: -6.030166409      1.432      5.197
REMARK  5 active torsions:
REMARK  status: ('A' for Active; 'I' for Inactive)
REMARK    1  A    between atoms: C2_2  and  C3_3 
REMARK    2  A    between atoms: C3_3  and  C4_4 
REMARK    3  A    between atoms: C4_4  and  N1_5 
REMARK    4  A    between atoms: C7_8  and  N2_9 
REMARK    5  A    between atoms: C9_14  and  N4_15 
ROOT
HETATM    1  N1  UNL     1       6.414  19.690  72.354  1.00  0.00    -0.301 N 
HETATM    2  C5  UNL     1       5.885  20.727  73.033  1.00  0.00     0.129 A 
HETATM    3  C6  UNL     1       5.969  20.506  74.376  1.00  0.00     0.071 A 
HETATM    4  C7  UNL     1       5.603  21.196  75.521  1.00  0.00     0.132 A 
HETATM    5  N3  UNL     1       5.821  20.710  76.754  1.00  0.00    -0.176 N 
ATOM      6  H3  UNL     1       5.544  21.235  77.584  1.00  0.00     0.186 HD
HETATM    7  C9  UNL     1       6.415  19.513  76.858  1.00  0.00     0.680 A 
HETATM    8  N5  UNL     1       6.774  18.832  75.768  1.00  0.00    -0.174 N 
ATOM      9  H5  UNL     1       7.222  17.924  75.891  1.00  0.00     0.186 HD
HETATM   10  C11 UNL     1       6.577  19.278  74.516  1.00  0.00     0.151 A 
HETATM   11  N6  UNL     1       6.819  18.838  73.277  1.00  0.00    -0.282 N 
ATOM     12  H6  UNL     1       7.266  17.946  73.069  1.00  0.00     0.189 HD
ENDROOT
BRANCH   1  13
HETATM   13  C4  UNL     1       6.474  19.625  70.926  1.00  0.00     0.148 C 
BRANCH  13  14
HETATM   14  C3  UNL     1       7.851  19.375  70.381  1.00  0.00     0.021 C 
BRANCH  14  15
HETATM   15  C2  UNL     1       8.816  20.481  70.658  1.00  0.00    -0.003 C 
HETATM   16  C1  UNL     1       9.789  19.997  71.717  1.00  0.00     0.005 C 
ENDBRANCH  14  15
ENDBRANCH  13  14
ENDBRANCH   1  13
BRANCH   4  17
HETATM   17  N2  UNL     1       5.039  22.337  75.347  1.00  0.00    -0.379 N 
HETATM   18  C8  UNL     1       4.933  22.997  74.061  1.00  0.00     0.147 C 
ATOM     19  H2  UNL     1       4.641  22.806  76.162  1.00  0.00     0.160 HD
ENDBRANCH   4  17
BRANCH   7  20
HETATM   20  N4  UNL     1       6.622  19.049  78.065  1.00  0.00    -0.230 N 
HETATM   21  C10 UNL     1       6.458  19.947  79.196  1.00  0.00     0.165 C 
ATOM     22  H4  UNL     1       6.892  18.076  78.209  1.00  0.00     0.177 HD
ENDBRANCH   7  20
TORSDOF 5
ENDMDL
MODEL 4
REMARK VINA RESULT: -5.771353851      1.422      5.009
REMARK  5 active torsions:
REMARK  status: ('A' for Active; 'I' for Inactive)
REMARK    1  A    between atoms: C2_2  and  C3_3 
REMARK    2  A    between atoms: C3_3  and  C4_4 
REMARK    3  A    between atoms: C4_4  and  N1_5 
REMARK    4  A    between atoms: C7_8  and  N2_9 
REMARK    5  A    between atoms: C9_14  and  N4_15 
ROOT
HETATM    1  N1  UNL     1       6.233  18.860  72.818  1.00  0.00    -0.301 N 
HETATM    2  C5  UNL     1       5.553  20.009  73.000  1.00  0.00     0.129 A 
HETATM    3  C6  UNL     1       5.706  20.452  74.281  1.00  0.00     0.071 A 
HETATM    4  C7  UNL     1       5.257  21.538  75.017  1.00  0.00     0.132 A 
HETATM    5  N3  UNL     1       5.583  21.716  76.307  1.00  0.00    -0.176 N 
ATOM      6  H3  UNL     1       5.242  22.522  76.831  1.00  0.00     0.186 HD
HETATM    7  C9  UNL     1       6.374  20.799  76.884  1.00  0.00     0.680 A 
HETATM    8  N5  UNL     1       6.816  19.747  76.193  1.00  0.00    -0.174 N 
ATOM      9  H5  UNL     1       7.413  19.072  76.670  1.00  0.00     0.186 HD
HETATM   10  C11 UNL     1       6.516  19.528  74.902  1.00  0.00     0.151 A 
HETATM   11  N6  UNL     1       6.798  18.601  73.982  1.00  0.00    -0.282 N 
ATOM     12  H6  UNL     1       7.384  17.785  74.158  1.00  0.00     0.189 HD
ENDROOT
BRANCH   1  13
HETATM   13  C4  UNL     1       6.267  18.147  71.577  1.00  0.00     0.148 C 
BRANCH  13  14
HETATM   14  C3  UNL     1       7.355  18.596  70.644  1.00  0.00     0.021 C 
BRANCH  14  15
HETATM   15  C2  UNL     1       7.709  20.040  70.785  1.00  0.00    -0.003 C 
HETATM   16  C1  UNL     1       9.138  20.123  71.291  1.00  0.00     0.005 C 
ENDBRANCH  14  15
ENDBRANCH  13  14
ENDBRANCH   1  13
BRANCH   4  17
HETATM   17  N2  UNL     1       4.504  22.376  74.401  1.00  0.00    -0.379 N 
HETATM   18  C8  UNL     1       4.968  23.250  73.342  1.00  0.00     0.147 C 
ATOM     19  H2  UNL     1       3.521  22.429  74.672  1.00  0.00     0.160 HD
ENDBRANCH   4  17
BRANCH   7  20
HETATM   20  N4  UNL     1       6.685  20.984  78.143  1.00  0.00    -0.230 N 
HETATM   21  C10 UNL     1       7.707  21.962  78.475  1.00  0.00     0.165 C 
ATOM     22  H4  UNL     1       6.219  20.451  78.877  1.00  0.00     0.177 HD
ENDBRANCH   7  20
TORSDOF 5
ENDMDL
MODEL 5
REMARK VINA RESULT: -5.026480563      0.915      2.962
REMARK  5 active torsions:
REMARK  status: ('A' for Active; 'I' for Inactive)
REMARK    1  A    between atoms: C2_2  and  C3_3 
REMARK    2  A    between atoms: C3_3  and  C4_4 
REMARK    3  A    between atoms: C4_4  and  N1_5 
REMARK    4  A    between atoms: C7_8  and  N2_9 
REMARK    5  A    between atoms: C9_14  and  N4_15 
ROOT
HETATM    1  N1  UNL     1       6.221  19.347  75.825  1.00  0.00    -0.301 N 
HETATM    2  C5  UNL     1       6.559  18.997  74.568  1.00  0.00     0.129 A 
HETATM    3  C6  UNL     1       6.251  20.001  73.698  1.00  0.00     0.071 A 
HETATM    4  C7  UNL     1       6.366  20.201  72.331  1.00  0.00     0.132 A 
HETATM    5  N3  UNL     1       5.962  21.333  71.734  1.00  0.00    -0.176 N 
ATOM      6  H3  UNL     1       6.056  21.460  70.726  1.00  0.00     0.186 HD
HETATM    7  C9  UNL     1       5.432  22.292  72.506  1.00  0.00     0.680 A 
HETATM    8  N5  UNL     1       5.311  22.119  73.824  1.00  0.00    -0.174 N 
ATOM      9  H5  UNL     1       4.900  22.873  74.374  1.00  0.00     0.186 HD
HETATM   10  C11 UNL     1       5.702  21.005  74.464  1.00  0.00     0.151 A 
HETATM   11  N6  UNL     1       5.708  20.559  75.724  1.00  0.00    -0.282 N 
ATOM     12  H6  UNL     1       5.357  21.094  76.518  1.00  0.00     0.189 HD
ENDROOT
BRANCH   1  13
HETATM   13  C4  UNL     1       6.419  18.503  76.964  1.00  0.00     0.148 C 
BRANCH  13  14
HETATM   14  C3  UNL     1       7.147  19.166  78.098  1.00  0.00     0.021 C 
BRANCH  14  15
HETATM   15  C2  UNL     1       6.560  20.478  78.502  1.00  0.00    -0.003 C 
HETATM   16  C1  UNL     1       7.592  21.556  78.223  1.00  0.00     0.005 C 
ENDBRANCH  14  15
ENDBRANCH  13  14
ENDBRANCH   1  13
BRANCH   4  17
HETATM   17  N2  UNL     1       6.884  19.240  71.653  1.00  0.00    -0.379 N 
HETATM   18  C8  UNL     1       7.696  19.435  70.469  1.00  0.00     0.147 C 
ATOM     19  H2  UNL     1       6.714  18.284  71.967  1.00  0.00     0.160 HD
ENDBRANCH   4  17
BRANCH   7  20
HETATM   20  N4  UNL     1       5.040  23.392  71.911  1.00  0.00    -0.230 N 
HETATM   21  C10 UNL     1       4.779  24.570  72.721  1.00  0.00     0.165 C 
ATOM     22  H4  UNL     1       4.921  23.421  70.899  1.00  0.00     0.177 HD
ENDBRANCH   7  20
TORSDOF 5
ENDMDL
