MODEL 1
REMARK VINA RESULT: -6.662437442      0.000      0.000
REMARK  7 active torsions:
REMARK  status: ('A' for Active; 'I' for Inactive)
REMARK    1  A    between atoms: C1_4  and  C2_5 
REMARK    2  A    between atoms: C1_4  and  N3_15 
REMARK    3  A    between atoms: C2_5  and  C3_6 
REMARK    4  A    between atoms: C3_6  and  C4_7 
REMARK    5  A    between atoms: C4_7  and  C5_8 
REMARK    6  A    between atoms: C5_8  and  N2_9 
REMARK    7  A    between atoms: N3_15  and  C10_17 
ROOT
HETATM    1  N1  UNL     1      11.253   6.771   9.310  1.00  0.00    -0.389 N 
ATOM      2  H11 UNL     1      11.699   7.558   8.840  1.00  0.00     0.157 HD
ATOM      3  H12 UNL     1      10.438   6.928   9.903  1.00  0.00     0.157 HD
HETATM    4  C1  UNL     1      11.710   5.594   9.158  1.00  0.00     0.071 C 
ENDROOT
BRANCH   4   5
HETATM    5  C2  UNL     1      11.065   4.457   9.837  1.00  0.00     0.075 C 
BRANCH   5   6
HETATM    6  C3  UNL     1      11.554   4.456  11.260  1.00  0.00     0.009 C 
BRANCH   6   7
HETATM    7  C4  UNL     1      10.431   4.603  12.221  1.00  0.00     0.031 C 
BRANCH   7   8
HETATM    8  C5  UNL     1      10.688   5.684  13.202  1.00  0.00     0.272 C 
BRANCH   8   9
HETATM    9  N2  UNL     1      10.166   6.941  12.706  1.00  0.00     0.092 N 
HETATM   10  C6  UNL     1      10.877   8.047  13.187  1.00  0.00     0.298 C 
HETATM   11  C7  UNL     1      10.119   9.034  14.012  1.00  0.00     0.198 C 
HETATM   12  O1  UNL     1       8.962   8.618  14.558  1.00  0.00    -0.388 OA
HETATM   13  C8  UNL     1       8.371   7.477  14.151  1.00  0.00     0.198 C 
HETATM   14  C9  UNL     1       8.744   6.946  12.809  1.00  0.00     0.298 C 
ENDBRANCH   8   9
ENDBRANCH   7   8
ENDBRANCH   6   7
ENDBRANCH   5   6
ENDBRANCH   4   5
BRANCH   4  15
HETATM   15  N3  UNL     1      12.827   5.378   8.344  1.00  0.00    -0.364 N 
ATOM     16  H3  UNL     1      13.758   5.456   8.754  1.00  0.00     0.162 HD
BRANCH  15  17
HETATM   17  C10 UNL     1      12.706   5.046   6.930  1.00  0.00     0.186 A 
HETATM   18  C11 UNL     1      11.373   4.616   6.514  1.00  0.00     0.094 A 
HETATM   19  N4  UNL     1      11.907   3.331   6.358  1.00  0.00    -0.357 N 
HETATM   20  C12 UNL     1      13.060   3.654   6.708  1.00  0.00     0.120 A 
ATOM     21  H4  UNL     1      11.497   2.444   6.064  1.00  0.00     0.166 HD
HETATM   22  N5  UNL     1      14.354   3.008   6.878  1.00  0.00    -0.085 NA
ENDBRANCH  15  17
ENDBRANCH   4  15
TORSDOF 7
ENDMDL
MODEL 2
REMARK VINA RESULT: -6.570165679      3.573      7.532
REMARK  7 active torsions:
REMARK  status: ('A' for Active; 'I' for Inactive)
REMARK    1  A    between atoms: C1_4  and  C2_5 
REMARK    2  A    between atoms: C1_4  and  N3_15 
REMARK    3  A    between atoms: C2_5  and  C3_6 
REMARK    4  A    between atoms: C3_6  and  C4_7 
REMARK    5  A    between atoms: C4_7  and  C5_8 
REMARK    6  A    between atoms: C5_8  and  N2_9 
REMARK    7  A    between atoms: N3_15  and  C10_17 
ROOT
HETATM    1  N1  UNL     1      11.671   7.253   9.238  1.00  0.00    -0.389 N 
ATOM      2  H11 UNL     1      10.980   7.534   9.934  1.00  0.00     0.157 HD
ATOM      3  H12 UNL     1      12.234   7.960   8.767  1.00  0.00     0.157 HD
HETATM    4  C1  UNL     1      11.829   6.023   8.957  1.00  0.00     0.071 C 
ENDROOT
BRANCH   4   5
HETATM    5  C2  UNL     1      12.828   5.617   7.953  1.00  0.00     0.075 C 
BRANCH   5   6
HETATM    6  C3  UNL     1      12.102   5.472   6.642  1.00  0.00     0.009 C 
BRANCH   6   7
HETATM    7  C4  UNL     1      12.264   4.106   6.080  1.00  0.00     0.031 C 
BRANCH   7   8
HETATM    8  C5  UNL     1      13.350   3.360   6.758  1.00  0.00     0.272 C 
BRANCH   8   9
HETATM    9  N2  UNL     1      13.556   2.081   6.109  1.00  0.00     0.092 N 
HETATM   10  C6  UNL     1      12.789   1.059   6.681  1.00  0.00     0.298 C 
HETATM   11  C7  UNL     1      13.531  -0.088   7.285  1.00  0.00     0.198 C 
HETATM   12  O1  UNL     1      14.826   0.112   7.593  1.00  0.00    -0.388 OA
HETATM   13  C8  UNL     1      15.496   1.181   7.120  1.00  0.00     0.198 C 
HETATM   14  C9  UNL     1      14.950   1.860   5.911  1.00  0.00     0.298 C 
ENDBRANCH   8   9
ENDBRANCH   7   8
ENDBRANCH   6   7
ENDBRANCH   5   6
ENDBRANCH   4   5
BRANCH   4  15
HETATM   15  N3  UNL     1      11.056   5.053   9.604  1.00  0.00    -0.364 N 
ATOM     16  H3  UNL     1      10.167   4.775   9.190  1.00  0.00     0.162 HD
BRANCH  15  17
HETATM   17  C10 UNL     1      11.479   4.427  10.851  1.00  0.00     0.186 A 
HETATM   18  C11 UNL     1      10.564   3.412  11.368  1.00  0.00     0.094 A 
HETATM   19  N4  UNL     1      10.249   4.311  12.394  1.00  0.00    -0.357 N 
HETATM   20  C12 UNL     1      11.017   5.206  11.988  1.00  0.00     0.120 A 
ATOM     21  H4  UNL     1       9.615   4.255  13.191  1.00  0.00     0.166 HD
HETATM   22  N5  UNL     1      11.408   6.552  12.384  1.00  0.00    -0.085 NA
ENDBRANCH  15  17
ENDBRANCH   4  15
TORSDOF 7
ENDMDL
MODEL 3
REMARK VINA RESULT: -6.529297279      2.695      6.778
REMARK  7 active torsions:
REMARK  status: ('A' for Active; 'I' for Inactive)
REMARK    1  A    between atoms: C1_4  and  C2_5 
REMARK    2  A    between atoms: C1_4  and  N3_15 
REMARK    3  A    between atoms: C2_5  and  C3_6 
REMARK    4  A    between atoms: C3_6  and  C4_7 
REMARK    5  A    between atoms: C4_7  and  C5_8 
REMARK    6  A    between atoms: C5_8  and  N2_9 
REMARK    7  A    between atoms: N3_15  and  C10_17 
ROOT
HETATM    1  N1  UNL     1      11.618   4.993  13.483  1.00  0.00    -0.389 N 
ATOM      2  H11 UNL     1      12.074   5.719  14.035  1.00  0.00     0.157 HD
ATOM      3  H12 UNL     1      12.007   4.050  13.464  1.00  0.00     0.157 HD
HETATM    4  C1  UNL     1      10.567   5.261  12.819  1.00  0.00     0.071 C 
ENDROOT
BRANCH   4   5
HETATM    5  C2  UNL     1       9.908   4.211  12.022  1.00  0.00     0.075 C 
BRANCH   5   6
HETATM    6  C3  UNL     1      10.964   3.597  11.142  1.00  0.00     0.009 C 
BRANCH   6   7
HETATM    7  C4  UNL     1      11.255   4.455   9.964  1.00  0.00     0.031 C 
BRANCH   7   8
HETATM    8  C5  UNL     1      11.275   3.669   8.707  1.00  0.00     0.272 C 
BRANCH   8   9
HETATM    9  N2  UNL     1      12.366   4.110   7.862  1.00  0.00     0.092 N 
HETATM   10  C6  UNL     1      12.605   5.486   7.967  1.00  0.00     0.298 C 
HETATM   11  C7  UNL     1      12.439   6.299   6.725  1.00  0.00     0.198 C 
HETATM   12  O1  UNL     1      11.713   5.758   5.729  1.00  0.00    -0.388 OA
HETATM   13  C8  UNL     1      11.398   4.449   5.730  1.00  0.00     0.198 C 
HETATM   14  C9  UNL     1      12.233   3.537   6.564  1.00  0.00     0.298 C 
ENDBRANCH   8   9
ENDBRANCH   7   8
ENDBRANCH   6   7
ENDBRANCH   5   6
ENDBRANCH   4   5
BRANCH   4  15
HETATM   15  N3  UNL     1      10.035   6.554  12.846  1.00  0.00    -0.364 N 
ATOM     16  H3  UNL     1       9.183   6.747  12.319  1.00  0.00     0.162 HD
BRANCH  15  17
HETATM   17  C10 UNL     1      10.657   7.635  13.602  1.00  0.00     0.186 A 
HETATM   18  C11 UNL     1       9.745   8.699  14.013  1.00  0.00     0.094 A 
HETATM   19  N4  UNL     1      10.386   9.522  13.079  1.00  0.00    -0.357 N 
HETATM   20  C12 UNL     1      11.184   8.643  12.697  1.00  0.00     0.120 A 
ATOM     21  H4  UNL     1      10.249  10.495  12.808  1.00  0.00     0.166 HD
HETATM   22  N5  UNL     1      12.271   8.519  11.736  1.00  0.00    -0.085 NA
ENDBRANCH  15  17
ENDBRANCH   4  15
TORSDOF 7
ENDMDL
MODEL 4
REMARK VINA RESULT: -6.527334822      3.067      7.478
REMARK  7 active torsions:
REMARK  status: ('A' for Active; 'I' for Inactive)
REMARK    1  A    between atoms: C1_4  and  C2_5 
REMARK    2  A    between atoms: C1_4  and  N3_15 
REMARK    3  A    between atoms: C2_5  and  C3_6 
REMARK    4  A    between atoms: C3_6  and  C4_7 
REMARK    5  A    between atoms: C4_7  and  C5_8 
REMARK    6  A    between atoms: C5_8  and  N2_9 
REMARK    7  A    between atoms: N3_15  and  C10_17 
ROOT
HETATM    1  N1  UNL     1      11.591   4.508  12.028  1.00  0.00    -0.389 N 
ATOM      2  H11 UNL     1      11.606   4.700  13.030  1.00  0.00     0.157 HD
ATOM      3  H12 UNL     1      11.857   3.586  11.683  1.00  0.00     0.157 HD
HETATM    4  C1  UNL     1      11.242   5.416  11.210  1.00  0.00     0.071 C 
ENDROOT
BRANCH   4   5
HETATM    5  C2  UNL     1      11.219   5.139   9.763  1.00  0.00     0.075 C 
BRANCH   5   6
HETATM    6  C3  UNL     1      11.643   6.403   9.064  1.00  0.00     0.009 C 
BRANCH   6   7
HETATM    7  C4  UNL     1      12.390   6.109   7.814  1.00  0.00     0.031 C 
BRANCH   7   8
HETATM    8  C5  UNL     1      12.946   4.735   7.819  1.00  0.00     0.272 C 
BRANCH   8   9
HETATM    9  N2  UNL     1      12.974   4.205   6.471  1.00  0.00     0.092 N 
HETATM   10  C6  UNL     1      11.693   4.054   5.926  1.00  0.00     0.298 C 
HETATM   11  C7  UNL     1      11.276   2.670   5.551  1.00  0.00     0.198 C 
HETATM   12  O1  UNL     1      11.957   1.650   6.107  1.00  0.00    -0.388 OA
HETATM   13  C8  UNL     1      13.131   1.859   6.734  1.00  0.00     0.198 C 
HETATM   14  C9  UNL     1      13.879   3.106   6.404  1.00  0.00     0.298 C 
ENDBRANCH   8   9
ENDBRANCH   7   8
ENDBRANCH   6   7
ENDBRANCH   5   6
ENDBRANCH   4   5
BRANCH   4  15
HETATM   15  N3  UNL     1      10.877   6.681  11.683  1.00  0.00    -0.364 N 
ATOM     16  H3  UNL     1      11.055   7.497  11.098  1.00  0.00     0.162 HD
BRANCH  15  17
HETATM   17  C10 UNL     1      10.251   6.872  12.986  1.00  0.00     0.186 A 
HETATM   18  C11 UNL     1       8.826   6.558  13.033  1.00  0.00     0.094 A 
HETATM   19  N4  UNL     1       8.593   7.932  13.168  1.00  0.00    -0.357 N 
HETATM   20  C12 UNL     1       9.800   8.246  13.132  1.00  0.00     0.120 A 
ATOM     21  H4  UNL     1       7.739   8.482  13.261  1.00  0.00     0.166 HD
HETATM   22  N5  UNL     1      10.600   9.461  13.197  1.00  0.00    -0.085 NA
ENDBRANCH  15  17
ENDBRANCH   4  15
TORSDOF 7
ENDMDL
MODEL 5
REMARK VINA RESULT: -6.512381544      3.705      7.450
REMARK  7 active torsions:
REMARK  status: ('A' for Active; 'I' for Inactive)
REMARK    1  A    between atoms: C1_4  and  C2_5 
REMARK    2  A    between atoms: C1_4  and  N3_15 
REMARK    3  A    between atoms: C2_5  and  C3_6 
REMARK    4  A    between atoms: C3_6  and  C4_7 
REMARK    5  A    between atoms: C4_7  and  C5_8 
REMARK    6  A    between atoms: C5_8  and  N2_9 
REMARK    7  A    between atoms: N3_15  and  C10_17 
ROOT
HETATM    1  N1  UNL     1      11.869   7.364   9.452  1.00  0.00    -0.389 N 
ATOM      2  H11 UNL     1      11.571   7.587  10.402  1.00  0.00     0.157 HD
ATOM      3  H12 UNL     1      12.398   8.048   8.911  1.00  0.00     0.157 HD
HETATM    4  C1  UNL     1      11.583   6.234   8.942  1.00  0.00     0.071 C 
ENDROOT
BRANCH   4   5
HETATM    5  C2  UNL     1      12.014   5.911   7.572  1.00  0.00     0.075 C 
BRANCH   5   6
HETATM    6  C3  UNL     1      11.133   4.792   7.084  1.00  0.00     0.009 C 
BRANCH   6   7
HETATM    7  C4  UNL     1      11.593   4.270   5.771  1.00  0.00     0.031 C 
BRANCH   7   8
HETATM    8  C5  UNL     1      11.643   2.789   5.758  1.00  0.00     0.272 C 
BRANCH   8   9
HETATM    9  N2  UNL     1      12.628   2.317   6.710  1.00  0.00     0.092 N 
HETATM   10  C6  UNL     1      13.903   2.845   6.472  1.00  0.00     0.298 C 
HETATM   11  C7  UNL     1      14.991   1.873   6.153  1.00  0.00     0.198 C 
HETATM   12  O1  UNL     1      14.618   0.650   5.732  1.00  0.00    -0.388 OA
HETATM   13  C8  UNL     1      13.347   0.225   5.868  1.00  0.00     0.198 C 
HETATM   14  C9  UNL     1      12.495   0.908   6.883  1.00  0.00     0.298 C 
ENDBRANCH   8   9
ENDBRANCH   7   8
ENDBRANCH   6   7
ENDBRANCH   5   6
ENDBRANCH   4   5
BRANCH   4  15
HETATM   15  N3  UNL     1      10.858   5.296   9.686  1.00  0.00    -0.364 N 
ATOM     16  H3  UNL     1       9.898   5.087   9.413  1.00  0.00     0.162 HD
BRANCH  15  17
HETATM   17  C10 UNL     1      11.430   4.608  10.837  1.00  0.00     0.186 A 
HETATM   18  C11 UNL     1      10.620   3.510  11.358  1.00  0.00     0.094 A 
HETATM   19  N4  UNL     1      10.363   4.316  12.474  1.00  0.00    -0.357 N 
HETATM   20  C12 UNL     1      11.044   5.278  12.067  1.00  0.00     0.120 A 
ATOM     21  H4  UNL     1       9.812   4.168  13.321  1.00  0.00     0.166 HD
HETATM   22  N5  UNL     1      11.406   6.612  12.526  1.00  0.00    -0.085 NA
ENDBRANCH  15  17
ENDBRANCH   4  15
TORSDOF 7
ENDMDL
