MODEL 1
REMARK VINA RESULT: -7.980206577      0.000      0.000
REMARK  6 active torsions:
REMARK  status: ('A' for Active; 'I' for Inactive)
REMARK    1  A    between atoms: O1_2  and  C2_3 
REMARK       I    between atoms: N1_7  and  C6_8 
REMARK    2  A    between atoms: C6_8  and  C7_10 
REMARK    3  A    between atoms: C7_10  and  N2_12 
REMARK       I    between atoms: N2_12  and  C9_14 
REMARK    4  A    between atoms: C9_14  and  C10_16 
REMARK    5  A    between atoms: N5_29  and  C20_30 
REMARK    6  A    between atoms: C20_30  and  C21_31 
ROOT
HETATM    1  C2  UNL     1       6.765   7.292  21.180  1.00  0.00     0.183 C 
HETATM    2  C3  UNL     1       6.202   6.240  20.262  1.00  0.00     0.034 C 
HETATM    3  C4  UNL     1       7.160   5.070  20.258  1.00  0.00     0.014 C 
HETATM    4  C5  UNL     1       4.790   5.832  20.614  1.00  0.00     0.155 C 
HETATM    5  N1  UNL     1       4.686   5.506  21.998  1.00  0.00    -0.260 N 
HETATM    6  C6  UNL     1       3.867   4.485  22.532  1.00  0.00     0.257 C 
HETATM    7  O2  UNL     1       3.799   4.250  23.782  1.00  0.00    -0.270 OA
HETATM    8  N3  UNL     1       5.428   6.229  22.945  1.00  0.00    -0.090 NA
HETATM    9  C16 UNL     1       5.950   7.447  22.441  1.00  0.00     0.278 C 
HETATM   10  C17 UNL     1       4.834   8.464  22.216  1.00  0.00     0.115 C 
HETATM   11  C18 UNL     1       5.459   9.285  23.334  1.00  0.00     0.335 C 
HETATM   12  C19 UNL     1       4.575   9.255  24.492  1.00  0.00     0.095 C 
HETATM   13  N4  UNL     1       3.867   9.239  25.404  1.00  0.00    -0.195 NA
HETATM   14  N5  UNL     1       6.560   8.349  23.342  1.00  0.00     0.136 N 
ENDROOT
BRANCH  14  15
HETATM   15  C20 UNL     1       6.974   7.867  24.619  1.00  0.00     0.281 C 
BRANCH  15  16
HETATM   16  C21 UNL     1       8.482   7.925  24.749  1.00  0.00     0.006 C 
HETATM   17  C22 UNL     1       9.018   9.250  24.214  1.00  0.00     0.011 C 
HETATM   18  C23 UNL     1       8.890   7.908  26.229  1.00  0.00     0.011 C 
ENDBRANCH  15  16
ENDBRANCH  14  15
BRANCH   1  19
HETATM   19  O1  UNL     1       8.095   7.048  21.514  1.00  0.00    -0.386 OA
HETATM   20  C1  UNL     1       8.965   7.945  20.910  1.00  0.00     0.202 C 
ENDBRANCH   1  19
BRANCH   6  21
HETATM   21  C7  UNL     1       3.039   3.634  21.653  1.00  0.00     0.174 C 
HETATM   22  C8  UNL     1       1.894   4.455  21.042  1.00  0.00     0.042 C 
BRANCH  21  23
HETATM   23  N2  UNL     1       3.825   3.181  20.493  1.00  0.00    -0.344 N 
HETATM   24  C9  UNL     1       4.810   2.202  20.701  1.00  0.00     0.252 C 
HETATM   25  O3  UNL     1       5.027   1.716  21.859  1.00  0.00    -0.268 OA
ATOM     26  H2  UNL     1       3.658   3.567  19.564  1.00  0.00     0.163 HD
BRANCH  24  27
HETATM   27  C10 UNL     1       5.634   1.699  19.584  1.00  0.00     0.033 A 
HETATM   28  C11 UNL     1       5.054   1.432  18.353  1.00  0.00     0.017 A 
HETATM   29  C12 UNL     1       5.788   0.968  17.286  1.00  0.00     0.002 A 
HETATM   30  C13 UNL     1       7.147   0.749  17.404  1.00  0.00     0.019 A 
HETATM   31  C14 UNL     1       7.741   1.008  18.618  1.00  0.00     0.011 A 
HETATM   32 BR1  UNL     1       9.615   0.717  18.811  1.00  0.00    -0.051 Br
HETATM   33  C15 UNL     1       6.988   1.479  19.696  1.00  0.00     0.036 A 
ENDBRANCH  24  27
ENDBRANCH  21  23
ENDBRANCH   6  21
TORSDOF 6
ENDMDL
MODEL 2
REMARK VINA RESULT: -7.771998861      0.915      1.243
REMARK  6 active torsions:
REMARK  status: ('A' for Active; 'I' for Inactive)
REMARK    1  A    between atoms: O1_2  and  C2_3 
REMARK       I    between atoms: N1_7  and  C6_8 
REMARK    2  A    between atoms: C6_8  and  C7_10 
REMARK    3  A    between atoms: C7_10  and  N2_12 
REMARK       I    between atoms: N2_12  and  C9_14 
REMARK    4  A    between atoms: C9_14  and  C10_16 
REMARK    5  A    between atoms: N5_29  and  C20_30 
REMARK    6  A    between atoms: C20_30  and  C21_31 
ROOT
HETATM    1  C2  UNL     1       6.959   7.382  21.220  1.00  0.00     0.183 C 
HETATM    2  C3  UNL     1       6.485   6.298  20.289  1.00  0.00     0.034 C 
HETATM    3  C4  UNL     1       7.490   5.169  20.345  1.00  0.00     0.014 C 
HETATM    4  C5  UNL     1       5.076   5.834  20.578  1.00  0.00     0.155 C 
HETATM    5  N1  UNL     1       4.919   5.519  21.960  1.00  0.00    -0.260 N 
HETATM    6  C6  UNL     1       4.119   4.470  22.466  1.00  0.00     0.257 C 
HETATM    7  O2  UNL     1       4.001   4.244  23.715  1.00  0.00    -0.270 OA
HETATM    8  N3  UNL     1       5.584   6.282  22.932  1.00  0.00    -0.090 NA
HETATM    9  C16 UNL     1       6.078   7.516  22.438  1.00  0.00     0.278 C 
HETATM   10  C17 UNL     1       4.934   8.482  22.148  1.00  0.00     0.115 C 
HETATM   11  C18 UNL     1       5.470   9.340  23.285  1.00  0.00     0.335 C 
HETATM   12  C19 UNL     1       4.533   9.285  24.399  1.00  0.00     0.095 C 
HETATM   13  N4  UNL     1       3.783   9.248  25.277  1.00  0.00    -0.195 NA
HETATM   14  N5  UNL     1       6.606   8.452  23.356  1.00  0.00     0.136 N 
ENDROOT
BRANCH  14  15
HETATM   15  C20 UNL     1       6.979   8.000  24.657  1.00  0.00     0.281 C 
BRANCH  15  16
HETATM   16  C21 UNL     1       8.486   7.955  24.796  1.00  0.00     0.006 C 
HETATM   17  C22 UNL     1       9.106   9.284  24.375  1.00  0.00     0.011 C 
HETATM   18  C23 UNL     1       8.880   7.791  26.271  1.00  0.00     0.011 C 
ENDBRANCH  15  16
ENDBRANCH  14  15
BRANCH   1  19
HETATM   19  O1  UNL     1       8.281   7.197  21.619  1.00  0.00    -0.386 OA
HETATM   20  C1  UNL     1       9.148   8.091  21.006  1.00  0.00     0.202 C 
ENDBRANCH   1  19
BRANCH   6  21
HETATM   21  C7  UNL     1       3.370   3.575  21.559  1.00  0.00     0.174 C 
HETATM   22  C8  UNL     1       2.264   4.357  20.836  1.00  0.00     0.042 C 
BRANCH  21  23
HETATM   23  N2  UNL     1       4.246   3.093  20.479  1.00  0.00    -0.344 N 
HETATM   24  C9  UNL     1       5.304   2.233  20.816  1.00  0.00     0.252 C 
HETATM   25  O3  UNL     1       5.508   1.875  22.023  1.00  0.00    -0.268 OA
ATOM     26  H2  UNL     1       4.089   3.377  19.512  1.00  0.00     0.163 HD
BRANCH  24  27
HETATM   27  C10 UNL     1       6.220   1.709  19.784  1.00  0.00     0.033 A 
HETATM   28  C11 UNL     1       7.586   1.671  20.016  1.00  0.00     0.017 A 
HETATM   29  C12 UNL     1       8.472   1.185  19.082  1.00  0.00     0.002 A 
HETATM   30  C13 UNL     1       8.025   0.712  17.863  1.00  0.00     0.019 A 
HETATM   31  C14 UNL     1       6.672   0.741  17.613  1.00  0.00     0.011 A 
HETATM   32 BR1  UNL     1       6.026   0.094  15.941  1.00  0.00    -0.051 Br
HETATM   33  C15 UNL     1       5.780   1.236  18.568  1.00  0.00     0.036 A 
ENDBRANCH  24  27
ENDBRANCH  21  23
ENDBRANCH   6  21
TORSDOF 6
ENDMDL
MODEL 3
REMARK VINA RESULT: -7.605736164      2.787      7.629
REMARK  6 active torsions:
REMARK  status: ('A' for Active; 'I' for Inactive)
REMARK    1  A    between atoms: O1_2  and  C2_3 
REMARK       I    between atoms: N1_7  and  C6_8 
REMARK    2  A    between atoms: C6_8  and  C7_10 
REMARK    3  A    between atoms: C7_10  and  N2_12 
REMARK       I    between atoms: N2_12  and  C9_14 
REMARK    4  A    between atoms: C9_14  and  C10_16 
REMARK    5  A    between atoms: N5_29  and  C20_30 
REMARK    6  A    between atoms: C20_30  and  C21_31 
ROOT
HETATM    1  C2  UNL     1       5.105   5.932  18.988  1.00  0.00     0.183 C 
HETATM    2  C3  UNL     1       5.056   7.298  19.621  1.00  0.00     0.034 C 
HETATM    3  C4  UNL     1       3.621   7.771  19.587  1.00  0.00     0.014 C 
HETATM    4  C5  UNL     1       5.645   7.334  21.012  1.00  0.00     0.155 C 
HETATM    5  N1  UNL     1       5.093   6.301  21.825  1.00  0.00    -0.260 N 
HETATM    6  C6  UNL     1       4.814   6.417  23.206  1.00  0.00     0.257 C 
HETATM    7  O2  UNL     1       4.336   5.453  23.888  1.00  0.00    -0.270 OA
HETATM    8  N3  UNL     1       4.792   5.052  21.260  1.00  0.00    -0.090 NA
HETATM    9  C16 UNL     1       5.397   4.845  19.995  1.00  0.00     0.278 C 
HETATM   10  C17 UNL     1       6.905   4.661  20.138  1.00  0.00     0.115 C 
HETATM   11  C18 UNL     1       6.698   3.228  19.671  1.00  0.00     0.335 C 
HETATM   12  C19 UNL     1       6.944   2.327  20.790  1.00  0.00     0.095 C 
HETATM   13  N4  UNL     1       7.149   1.616  21.676  1.00  0.00    -0.195 NA
HETATM   14  N5  UNL     1       5.319   3.563  19.406  1.00  0.00     0.136 N 
ENDROOT
BRANCH  14  15
HETATM   15  C20 UNL     1       4.339   2.646  19.889  1.00  0.00     0.281 C 
BRANCH  15  16
HETATM   16  C21 UNL     1       3.575   2.024  18.739  1.00  0.00     0.006 C 
HETATM   17  C22 UNL     1       4.507   1.203  17.854  1.00  0.00     0.011 C 
HETATM   18  C23 UNL     1       2.547   1.013  19.267  1.00  0.00     0.011 C 
ENDBRANCH  15  16
ENDBRANCH  14  15
BRANCH   1  19
HETATM   19  O1  UNL     1       3.935   5.625  18.299  1.00  0.00    -0.386 OA
HETATM   20  C1  UNL     1       4.147   5.489  16.933  1.00  0.00     0.202 C 
ENDBRANCH   1  19
BRANCH   6  21
HETATM   21  C7  UNL     1       5.069   7.679  23.932  1.00  0.00     0.174 C 
HETATM   22  C8  UNL     1       4.107   7.809  25.122  1.00  0.00     0.042 C 
BRANCH  21  23
HETATM   23  N2  UNL     1       6.408   7.656  24.542  1.00  0.00    -0.344 N 
HETATM   24  C9  UNL     1       7.346   8.611  24.119  1.00  0.00     0.252 C 
HETATM   25  O3  UNL     1       7.056   9.476  23.229  1.00  0.00    -0.268 OA
ATOM     26  H2  UNL     1       6.647   6.965  25.253  1.00  0.00     0.163 HD
BRANCH  24  27
HETATM   27  C10 UNL     1       8.707   8.648  24.690  1.00  0.00     0.033 A 
HETATM   28  C11 UNL     1       9.643   9.550  24.208  1.00  0.00     0.017 A 
HETATM   29  C12 UNL     1      10.919   9.620  24.717  1.00  0.00     0.002 A 
HETATM   30  C13 UNL     1      11.319   8.783  25.741  1.00  0.00     0.019 A 
HETATM   31  C14 UNL     1      10.404   7.880  26.233  1.00  0.00     0.011 A 
HETATM   32 BR1  UNL     1      10.927   6.713  27.646  1.00  0.00    -0.051 Br
HETATM   33  C15 UNL     1       9.110   7.817  25.709  1.00  0.00     0.036 A 
ENDBRANCH  24  27
ENDBRANCH  21  23
ENDBRANCH   6  21
TORSDOF 6
ENDMDL
MODEL 4
REMARK VINA RESULT: -7.546933798      2.725      4.653
REMARK  6 active torsions:
REMARK  status: ('A' for Active; 'I' for Inactive)
REMARK    1  A    between atoms: O1_2  and  C2_3 
REMARK       I    between atoms: N1_7  and  C6_8 
REMARK    2  A    between atoms: C6_8  and  C7_10 
REMARK    3  A    between atoms: C7_10  and  N2_12 
REMARK       I    between atoms: N2_12  and  C9_14 
REMARK    4  A    between atoms: C9_14  and  C10_16 
REMARK    5  A    between atoms: N5_29  and  C20_30 
REMARK    6  A    between atoms: C20_30  and  C21_31 
ROOT
HETATM    1  C2  UNL     1       3.931   8.000  23.102  1.00  0.00     0.183 C 
HETATM    2  C3  UNL     1       4.101   6.695  23.834  1.00  0.00     0.034 C 
HETATM    3  C4  UNL     1       2.732   6.076  24.000  1.00  0.00     0.014 C 
HETATM    4  C5  UNL     1       5.083   5.758  23.167  1.00  0.00     0.155 C 
HETATM    5  N1  UNL     1       4.781   5.609  21.782  1.00  0.00    -0.260 N 
HETATM    6  C6  UNL     1       4.934   4.413  21.043  1.00  0.00     0.257 C 
HETATM    7  O2  UNL     1       4.665   4.342  19.800  1.00  0.00    -0.270 OA
HETATM    8  N3  UNL     1       4.299   6.704  21.048  1.00  0.00    -0.090 NA
HETATM    9  C16 UNL     1       4.491   7.948  21.702  1.00  0.00     0.278 C 
HETATM   10  C17 UNL     1       5.968   8.330  21.718  1.00  0.00     0.115 C 
HETATM   11  C18 UNL     1       5.602   9.484  20.796  1.00  0.00     0.335 C 
HETATM   12  C19 UNL     1       6.156   9.223  19.473  1.00  0.00     0.095 C 
HETATM   13  N4  UNL     1       6.605   9.020  18.429  1.00  0.00    -0.195 NA
HETATM   14  N5  UNL     1       4.214   9.137  20.991  1.00  0.00     0.136 N 
ENDROOT
BRANCH  14  15
HETATM   15  C20 UNL     1       3.407   9.062  19.817  1.00  0.00     0.281 C 
BRANCH  15  16
HETATM   16  C21 UNL     1       2.169   9.922  19.963  1.00  0.00     0.006 C 
HETATM   17  C22 UNL     1       1.978  10.805  18.732  1.00  0.00     0.011 C 
HETATM   18  C23 UNL     1       0.912   9.042  20.011  1.00  0.00     0.011 C 
ENDBRANCH  15  16
ENDBRANCH  14  15
BRANCH   1  19
HETATM   19  O1  UNL     1       2.601   8.412  23.057  1.00  0.00    -0.386 OA
HETATM   20  C1  UNL     1       2.346   9.467  23.921  1.00  0.00     0.202 C 
ENDBRANCH   1  19
BRANCH   6  21
HETATM   21  C7  UNL     1       5.420   3.175  21.687  1.00  0.00     0.174 C 
HETATM   22  C8  UNL     1       4.254   2.431  22.353  1.00  0.00     0.042 C 
BRANCH  21  23
HETATM   23  N2  UNL     1       5.924   2.236  20.673  1.00  0.00    -0.344 N 
HETATM   24  C9  UNL     1       7.253   2.376  20.240  1.00  0.00     0.252 C 
HETATM   25  O3  UNL     1       8.008   3.292  20.706  1.00  0.00    -0.268 OA
ATOM     26  H2  UNL     1       5.325   1.502  20.295  1.00  0.00     0.163 HD
BRANCH  24  27
HETATM   27  C10 UNL     1       7.826   1.468  19.228  1.00  0.00     0.033 A 
HETATM   28  C11 UNL     1       9.172   1.138  19.266  1.00  0.00     0.017 A 
HETATM   29  C12 UNL     1       9.742   0.291  18.345  1.00  0.00     0.002 A 
HETATM   30  C13 UNL     1       8.984  -0.270  17.335  1.00  0.00     0.019 A 
HETATM   31  C14 UNL     1       7.645   0.045  17.280  1.00  0.00     0.011 A 
HETATM   32 BR1  UNL     1       6.573  -0.713  15.899  1.00  0.00    -0.051 Br
HETATM   33  C15 UNL     1       7.075   0.907  18.220  1.00  0.00     0.036 A 
ENDBRANCH  24  27
ENDBRANCH  21  23
ENDBRANCH   6  21
TORSDOF 6
ENDMDL
MODEL 5
REMARK VINA RESULT: -7.493780254      3.082      7.996
REMARK  6 active torsions:
REMARK  status: ('A' for Active; 'I' for Inactive)
REMARK    1  A    between atoms: O1_2  and  C2_3 
REMARK       I    between atoms: N1_7  and  C6_8 
REMARK    2  A    between atoms: C6_8  and  C7_10 
REMARK    3  A    between atoms: C7_10  and  N2_12 
REMARK       I    between atoms: N2_12  and  C9_14 
REMARK    4  A    between atoms: C9_14  and  C10_16 
REMARK    5  A    between atoms: N5_29  and  C20_30 
REMARK    6  A    between atoms: C20_30  and  C21_31 
ROOT
HETATM    1  C2  UNL     1       3.919   5.403  20.590  1.00  0.00     0.183 C 
HETATM    2  C3  UNL     1       4.158   6.164  21.867  1.00  0.00     0.034 C 
HETATM    3  C4  UNL     1       4.742   5.202  22.876  1.00  0.00     0.014 C 
HETATM    4  C5  UNL     1       5.014   7.396  21.678  1.00  0.00     0.155 C 
HETATM    5  N1  UNL     1       6.206   7.080  20.961  1.00  0.00    -0.260 N 
HETATM    6  C6  UNL     1       7.471   7.667  21.193  1.00  0.00     0.257 C 
HETATM    7  O2  UNL     1       8.501   7.359  20.508  1.00  0.00    -0.270 OA
HETATM    8  N3  UNL     1       6.172   6.126  19.933  1.00  0.00    -0.090 NA
HETATM    9  C16 UNL     1       4.860   5.824  19.488  1.00  0.00     0.278 C 
HETATM   10  C17 UNL     1       4.265   6.997  18.716  1.00  0.00     0.115 C 
HETATM   11  C18 UNL     1       4.307   6.109  17.481  1.00  0.00     0.335 C 
HETATM   12  C19 UNL     1       5.323   6.618  16.569  1.00  0.00     0.095 C 
HETATM   13  N4  UNL     1       6.121   7.029  15.843  1.00  0.00    -0.195 NA
HETATM   14  N5  UNL     1       4.702   5.016  18.339  1.00  0.00     0.136 N 
ENDROOT
BRANCH  14  15
HETATM   15  C20 UNL     1       5.807   4.230  17.897  1.00  0.00     0.281 C 
BRANCH  15  16
HETATM   16  C21 UNL     1       5.444   2.760  17.879  1.00  0.00     0.006 C 
HETATM   17  C22 UNL     1       5.810   2.130  16.538  1.00  0.00     0.011 C 
HETATM   18  C23 UNL     1       6.280   1.992  18.913  1.00  0.00     0.011 C 
ENDBRANCH  15  16
ENDBRANCH  14  15
BRANCH   1  19
HETATM   19  O1  UNL     1       4.001   4.025  20.772  1.00  0.00    -0.386 OA
HETATM   20  C1  UNL     1       2.793   3.387  20.528  1.00  0.00     0.202 C 
ENDBRANCH   1  19
BRANCH   6  21
HETATM   21  C7  UNL     1       7.660   8.678  22.253  1.00  0.00     0.174 C 
HETATM   22  C8  UNL     1       6.299   9.158  22.778  1.00  0.00     0.042 C 
BRANCH  21  23
HETATM   23  N2  UNL     1       8.314   8.074  23.425  1.00  0.00    -0.344 N 
HETATM   24  C9  UNL     1       9.294   8.822  24.098  1.00  0.00     0.252 C 
HETATM   25  O3  UNL     1       9.617   9.992  23.710  1.00  0.00    -0.268 OA
ATOM     26  H2  UNL     1       8.062   7.137  23.740  1.00  0.00     0.163 HD
BRANCH  24  27
HETATM   27  C10 UNL     1       9.988   8.279  25.282  1.00  0.00     0.033 A 
HETATM   28  C11 UNL     1       9.262   7.807  26.364  1.00  0.00     0.017 A 
HETATM   29  C12 UNL     1       9.871   7.289  27.483  1.00  0.00     0.002 A 
HETATM   30  C13 UNL     1      11.248   7.219  27.570  1.00  0.00     0.019 A 
HETATM   31  C14 UNL     1      11.988   7.683  26.506  1.00  0.00     0.011 A 
HETATM   32 BR1  UNL     1      13.890   7.598  26.596  1.00  0.00    -0.051 Br
HETATM   33  C15 UNL     1      11.360   8.207  25.373  1.00  0.00     0.036 A 
ENDBRANCH  24  27
ENDBRANCH  21  23
ENDBRANCH   6  21
TORSDOF 6
ENDMDL
