MODEL 1
REMARK VINA RESULT: -10.234297942      0.000      0.000
REMARK  2 active torsions:
REMARK  status: ('A' for Active; 'I' for Inactive)
REMARK    1  A    between atoms: C10_14  and  C11_15 
REMARK    2  A    between atoms: N2_22  and  C18_24 
ROOT
HETATM    1  C11 UNL     1      -2.127  10.965   0.485  1.00  0.00    -0.034 A 
HETATM    2  C12 UNL     1      -3.013  11.900   0.957  1.00  0.00     0.012 A 
HETATM    3  C13 UNL     1      -3.116  12.138   2.311  1.00  0.00     0.014 A 
HETATM    4  C14 UNL     1      -2.341  11.447   3.208  1.00  0.00    -0.012 A 
HETATM    5  C15 UNL     1      -1.427  10.485   2.764  1.00  0.00     0.003 A 
HETATM    6  C16 UNL     1      -1.337  10.261   1.407  1.00  0.00     0.026 A 
HETATM    7  C17 UNL     1      -0.748   9.921   3.910  1.00  0.00     0.055 A 
HETATM    8  N2  UNL     1       0.132   9.050   3.972  1.00  0.00    -0.355 N 
ATOM      9  H2  UNL     1       0.422   8.855   4.931  1.00  0.00     0.166 HD
HETATM   10  C24 UNL     1      -1.309  10.603   5.094  1.00  0.00     0.003 A 
HETATM   11  C25 UNL     1      -1.046  10.478   6.440  1.00  0.00     0.014 A 
HETATM   12  C26 UNL     1      -1.725  11.251   7.368  1.00  0.00     0.001 A 
HETATM   13  C27 UNL     1      -2.664  12.149   6.934  1.00  0.00     0.001 A 
HETATM   14  C28 UNL     1      -2.955  12.304   5.589  1.00  0.00     0.013 A 
HETATM   15  C29 UNL     1      -2.256  11.512   4.683  1.00  0.00    -0.013 A 
ENDROOT
BRANCH   1  16
HETATM   16  C10 UNL     1      -2.011  10.713  -0.935  1.00  0.00     0.029 C 
HETATM   17  C9  UNL     1      -2.808  10.001  -1.687  1.00  0.00     0.044 A 
HETATM   18  C1  UNL     1      -3.996   9.301  -1.200  1.00  0.00     0.259 A 
HETATM   19  C8  UNL     1      -2.535   9.916  -3.151  1.00  0.00    -0.005 A 
HETATM   20  O1  UNL     1      -4.294   9.317   0.021  1.00  0.00    -0.267 OA
HETATM   21  N1  UNL     1      -4.860   8.573  -2.083  1.00  0.00    -0.289 N 
HETATM   22  C2  UNL     1      -4.541   8.537  -3.455  1.00  0.00     0.259 A 
ATOM     23  H1  UNL     1      -5.685   8.093  -1.726  1.00  0.00     0.172 HD
HETATM   24  O2  UNL     1      -5.337   7.878  -4.205  1.00  0.00    -0.267 OA
HETATM   25  C3  UNL     1      -3.374   9.209  -3.998  1.00  0.00     0.043 A 
HETATM   26  C4  UNL     1      -3.153   9.108  -5.351  1.00  0.00     0.018 A 
HETATM   27  C5  UNL     1      -2.066   9.719  -5.922  1.00  0.00     0.001 A 
HETATM   28  C6  UNL     1      -1.213  10.426  -5.124  1.00  0.00     0.001 A 
HETATM   29  C7  UNL     1      -1.451  10.521  -3.746  1.00  0.00     0.013 A 
ENDBRANCH   1  16
BRANCH   8  30
HETATM   30  C18 UNL     1       0.811   8.281   3.046  1.00  0.00     0.032 A 
HETATM   31  C19 UNL     1       0.186   7.438   2.133  1.00  0.00     0.029 A 
HETATM   32  C20 UNL     1       0.887   6.693   1.224  1.00  0.00     0.002 A 
HETATM   33  C21 UNL     1       2.265   6.751   1.180  1.00  0.00     0.000 A 
HETATM   34  C22 UNL     1       2.912   7.579   2.074  1.00  0.00     0.002 A 
HETATM   35  C23 UNL     1       2.189   8.326   2.986  1.00  0.00     0.029 A 
ENDBRANCH   8  30
TORSDOF 2
ENDMDL
MODEL 2
REMARK VINA RESULT: -10.205472820      1.801      2.539
REMARK  2 active torsions:
REMARK  status: ('A' for Active; 'I' for Inactive)
REMARK    1  A    between atoms: C10_14  and  C11_15 
REMARK    2  A    between atoms: N2_22  and  C18_24 
ROOT
HETATM    1  C11 UNL     1      -2.720   8.833   1.142  1.00  0.00    -0.034 A 
HETATM    2  C12 UNL     1      -3.574   9.440   2.028  1.00  0.00     0.012 A 
HETATM    3  C13 UNL     1      -3.112   9.871   3.254  1.00  0.00     0.014 A 
HETATM    4  C14 UNL     1      -1.798   9.701   3.610  1.00  0.00    -0.012 A 
HETATM    5  C15 UNL     1      -0.898   9.086   2.732  1.00  0.00     0.003 A 
HETATM    6  C16 UNL     1      -1.377   8.662   1.511  1.00  0.00     0.026 A 
HETATM    7  C17 UNL     1       0.407   9.042   3.355  1.00  0.00     0.055 A 
HETATM    8  N2  UNL     1       1.482   8.591   2.934  1.00  0.00    -0.355 N 
ATOM      9  H2  UNL     1       2.243   8.702   3.605  1.00  0.00     0.166 HD
HETATM   10  C24 UNL     1       0.248   9.673   4.681  1.00  0.00     0.003 A 
HETATM   11  C25 UNL     1       1.142   9.909   5.702  1.00  0.00     0.014 A 
HETATM   12  C26 UNL     1       0.733  10.531   6.870  1.00  0.00     0.001 A 
HETATM   13  C27 UNL     1      -0.575  10.914   7.003  1.00  0.00     0.001 A 
HETATM   14  C28 UNL     1      -1.503  10.695   5.998  1.00  0.00     0.013 A 
HETATM   15  C29 UNL     1      -1.060  10.067   4.839  1.00  0.00    -0.013 A 
ENDROOT
BRANCH   1  16
HETATM   16  C10 UNL     1      -3.197   8.383  -0.147  1.00  0.00     0.029 C 
HETATM   17  C9  UNL     1      -3.129   9.016  -1.288  1.00  0.00     0.044 A 
HETATM   18  C1  UNL     1      -2.543  10.344  -1.463  1.00  0.00     0.259 A 
HETATM   19  C8  UNL     1      -3.635   8.342  -2.519  1.00  0.00    -0.005 A 
HETATM   20  O1  UNL     1      -2.099  10.983  -0.475  1.00  0.00    -0.267 OA
HETATM   21  N1  UNL     1      -2.454  10.969  -2.749  1.00  0.00    -0.289 N 
HETATM   22  C2  UNL     1      -2.952  10.273  -3.870  1.00  0.00     0.259 A 
ATOM     23  H1  UNL     1      -2.041  11.895  -2.853  1.00  0.00     0.172 HD
HETATM   24  O2  UNL     1      -2.852  10.866  -4.996  1.00  0.00    -0.267 OA
HETATM   25  C3  UNL     1      -3.547   8.953  -3.761  1.00  0.00     0.043 A 
HETATM   26  C4  UNL     1      -4.004   8.364  -4.915  1.00  0.00     0.018 A 
HETATM   27  C5  UNL     1      -4.579   7.118  -4.875  1.00  0.00     0.001 A 
HETATM   28  C6  UNL     1      -4.686   6.480  -3.673  1.00  0.00     0.001 A 
HETATM   29  C7  UNL     1      -4.215   7.094  -2.504  1.00  0.00     0.013 A 
ENDBRANCH   1  16
BRANCH   8  30
HETATM   30  C18 UNL     1       1.891   7.974   1.767  1.00  0.00     0.032 A 
HETATM   31  C19 UNL     1       1.621   8.466   0.495  1.00  0.00     0.029 A 
HETATM   32  C20 UNL     1       2.046   7.833  -0.642  1.00  0.00     0.002 A 
HETATM   33  C21 UNL     1       2.770   6.661  -0.566  1.00  0.00     0.000 A 
HETATM   34  C22 UNL     1       3.054   6.150   0.683  1.00  0.00     0.002 A 
HETATM   35  C23 UNL     1       2.618   6.802   1.823  1.00  0.00     0.029 A 
ENDBRANCH   8  30
TORSDOF 2
ENDMDL
MODEL 3
REMARK VINA RESULT: -9.856608308      1.148      1.632
REMARK  2 active torsions:
REMARK  status: ('A' for Active; 'I' for Inactive)
REMARK    1  A    between atoms: C10_14  and  C11_15 
REMARK    2  A    between atoms: N2_22  and  C18_24 
ROOT
HETATM    1  C11 UNL     1      -1.811  10.380  -0.204  1.00  0.00    -0.034 A 
HETATM    2  C12 UNL     1      -2.642  11.169   0.550  1.00  0.00     0.012 A 
HETATM    3  C13 UNL     1      -2.459  11.267   1.914  1.00  0.00     0.014 A 
HETATM    4  C14 UNL     1      -1.449  10.581   2.540  1.00  0.00    -0.012 A 
HETATM    5  C15 UNL     1      -0.582   9.766   1.803  1.00  0.00     0.003 A 
HETATM    6  C16 UNL     1      -0.779   9.680   0.441  1.00  0.00     0.026 A 
HETATM    7  C17 UNL     1       0.380   9.171   2.705  1.00  0.00     0.055 A 
HETATM    8  N2  UNL     1       1.319   8.395   2.479  1.00  0.00    -0.355 N 
ATOM      9  H2  UNL     1       1.831   8.143   3.324  1.00  0.00     0.166 HD
HETATM   10  C24 UNL     1       0.044   9.677   4.052  1.00  0.00     0.003 A 
HETATM   11  C25 UNL     1       0.610   9.454   5.287  1.00  0.00     0.014 A 
HETATM   12  C26 UNL     1       0.096  10.062   6.421  1.00  0.00     0.001 A 
HETATM   13  C27 UNL     1      -0.987  10.893   6.304  1.00  0.00     0.001 A 
HETATM   14  C28 UNL     1      -1.583  11.142   5.078  1.00  0.00     0.013 A 
HETATM   15  C29 UNL     1      -1.042  10.516   3.960  1.00  0.00    -0.013 A 
ENDROOT
BRANCH   1  16
HETATM   16  C10 UNL     1      -1.994  10.276  -1.635  1.00  0.00     0.029 C 
HETATM   17  C9  UNL     1      -2.961   9.671  -2.273  1.00  0.00     0.044 A 
HETATM   18  C1  UNL     1      -4.061   8.960  -1.624  1.00  0.00     0.259 A 
HETATM   19  C8  UNL     1      -2.992   9.733  -3.763  1.00  0.00    -0.005 A 
HETATM   20  O1  UNL     1      -4.107   8.856  -0.372  1.00  0.00    -0.267 OA
HETATM   21  N1  UNL     1      -5.119   8.354  -2.377  1.00  0.00    -0.289 N 
HETATM   22  C2  UNL     1      -5.085   8.453  -3.782  1.00  0.00     0.259 A 
ATOM     23  H1  UNL     1      -5.880   7.864  -1.907  1.00  0.00     0.172 HD
HETATM   24  O2  UNL     1      -6.048   7.900  -4.414  1.00  0.00    -0.267 OA
HETATM   25  C3  UNL     1      -4.018   9.144  -4.485  1.00  0.00     0.043 A 
HETATM   26  C4  UNL     1      -4.079   9.179  -5.858  1.00  0.00     0.018 A 
HETATM   27  C5  UNL     1      -3.099   9.815  -6.578  1.00  0.00     0.001 A 
HETATM   28  C6  UNL     1      -2.068  10.409  -5.906  1.00  0.00     0.001 A 
HETATM   29  C7  UNL     1      -2.020  10.365  -4.506  1.00  0.00     0.013 A 
ENDBRANCH   1  16
BRANCH   8  30
HETATM   30  C18 UNL     1       1.835   7.791   1.347  1.00  0.00     0.032 A 
HETATM   31  C19 UNL     1       1.837   8.381   0.087  1.00  0.00     0.029 A 
HETATM   32  C20 UNL     1       2.361   7.759  -1.013  1.00  0.00     0.002 A 
HETATM   33  C21 UNL     1       2.916   6.499  -0.911  1.00  0.00     0.000 A 
HETATM   34  C22 UNL     1       2.929   5.890   0.326  1.00  0.00     0.002 A 
HETATM   35  C23 UNL     1       2.396   6.533   1.429  1.00  0.00     0.029 A 
ENDBRANCH   8  30
TORSDOF 2
ENDMDL
MODEL 4
REMARK VINA RESULT: -9.203182435      3.712      7.288
REMARK  2 active torsions:
REMARK  status: ('A' for Active; 'I' for Inactive)
REMARK    1  A    between atoms: C10_14  and  C11_15 
REMARK    2  A    between atoms: N2_22  and  C18_24 
ROOT
HETATM    1  C11 UNL     1      -1.828  11.372   1.693  1.00  0.00    -0.034 A 
HETATM    2  C12 UNL     1      -1.719  11.011   0.374  1.00  0.00     0.012 A 
HETATM    3  C13 UNL     1      -0.836  10.022  -0.005  1.00  0.00     0.014 A 
HETATM    4  C14 UNL     1      -0.054   9.383   0.923  1.00  0.00    -0.012 A 
HETATM    5  C15 UNL     1      -0.137   9.725   2.277  1.00  0.00     0.003 A 
HETATM    6  C16 UNL     1      -1.024  10.715   2.639  1.00  0.00     0.026 A 
HETATM    7  C17 UNL     1       0.787   8.900   3.025  1.00  0.00     0.055 A 
HETATM    8  N2  UNL     1       1.032   8.868   4.240  1.00  0.00    -0.355 N 
ATOM      9  H2  UNL     1       1.740   8.174   4.478  1.00  0.00     0.166 HD
HETATM   10  C24 UNL     1       1.447   8.025   2.035  1.00  0.00     0.003 A 
HETATM   11  C25 UNL     1       2.407   7.046   2.166  1.00  0.00     0.014 A 
HETATM   12  C26 UNL     1       2.869   6.356   1.057  1.00  0.00     0.001 A 
HETATM   13  C27 UNL     1       2.360   6.655  -0.179  1.00  0.00     0.001 A 
HETATM   14  C28 UNL     1       1.393   7.633  -0.350  1.00  0.00     0.013 A 
HETATM   15  C29 UNL     1       0.952   8.307   0.784  1.00  0.00    -0.013 A 
ENDROOT
BRANCH   1  16
HETATM   16  C10 UNL     1      -2.754  12.406   2.098  1.00  0.00     0.029 C 
HETATM   17  C9  UNL     1      -2.470  13.602   2.541  1.00  0.00     0.044 A 
HETATM   18  C1  UNL     1      -1.113  14.117   2.718  1.00  0.00     0.259 A 
HETATM   19  C8  UNL     1      -3.587  14.541   2.852  1.00  0.00    -0.005 A 
HETATM   20  O1  UNL     1      -0.116  13.389   2.484  1.00  0.00    -0.267 OA
HETATM   21  N1  UNL     1      -0.865  15.457   3.164  1.00  0.00    -0.289 N 
HETATM   22  C2  UNL     1      -1.968  16.289   3.438  1.00  0.00     0.259 A 
ATOM     23  H1  UNL     1       0.088  15.799   3.280  1.00  0.00     0.172 HD
HETATM   24  O2  UNL     1      -1.701  17.474   3.832  1.00  0.00    -0.267 OA
HETATM   25  C3  UNL     1      -3.339  15.835   3.284  1.00  0.00     0.043 A 
HETATM   26  C4  UNL     1      -4.342  16.726   3.581  1.00  0.00     0.018 A 
HETATM   27  C5  UNL     1      -5.657  16.354   3.458  1.00  0.00     0.001 A 
HETATM   28  C6  UNL     1      -5.947  15.089   3.035  1.00  0.00     0.001 A 
HETATM   29  C7  UNL     1      -4.914  14.191   2.736  1.00  0.00     0.013 A 
ENDBRANCH   1  16
BRANCH   8  30
HETATM   30  C18 UNL     1       0.568   9.554   5.347  1.00  0.00     0.032 A 
HETATM   31  C19 UNL     1       1.371  10.352   6.156  1.00  0.00     0.029 A 
HETATM   32  C20 UNL     1       0.881  11.023   7.242  1.00  0.00     0.002 A 
HETATM   33  C21 UNL     1      -0.453  10.931   7.583  1.00  0.00     0.000 A 
HETATM   34  C22 UNL     1      -1.274  10.148   6.798  1.00  0.00     0.002 A 
HETATM   35  C23 UNL     1      -0.762   9.475   5.703  1.00  0.00     0.029 A 
ENDBRANCH   8  30
TORSDOF 2
ENDMDL
MODEL 5
REMARK VINA RESULT: -8.804913754      2.832      9.157
REMARK  2 active torsions:
REMARK  status: ('A' for Active; 'I' for Inactive)
REMARK    1  A    between atoms: C10_14  and  C11_15 
REMARK    2  A    between atoms: N2_22  and  C18_24 
ROOT
HETATM    1  C11 UNL     1      -2.492   9.161  -3.088  1.00  0.00    -0.034 A 
HETATM    2  C12 UNL     1      -2.272  10.389  -3.659  1.00  0.00     0.012 A 
HETATM    3  C13 UNL     1      -2.815  10.690  -4.891  1.00  0.00     0.014 A 
HETATM    4  C14 UNL     1      -3.582   9.773  -5.565  1.00  0.00    -0.012 A 
HETATM    5  C15 UNL     1      -3.828   8.511  -5.013  1.00  0.00     0.003 A 
HETATM    6  C16 UNL     1      -3.278   8.227  -3.782  1.00  0.00     0.026 A 
HETATM    7  C17 UNL     1      -4.660   7.756  -5.925  1.00  0.00     0.055 A 
HETATM    8  N2  UNL     1      -5.114   6.606  -5.833  1.00  0.00    -0.355 N 
ATOM      9  H2  UNL     1      -5.674   6.341  -6.643  1.00  0.00     0.166 HD
HETATM   10  C24 UNL     1      -4.908   8.643  -7.080  1.00  0.00     0.003 A 
HETATM   11  C25 UNL     1      -5.626   8.464  -8.242  1.00  0.00     0.014 A 
HETATM   12  C26 UNL     1      -5.706   9.473  -9.187  1.00  0.00     0.001 A 
HETATM   13  C27 UNL     1      -5.062  10.660  -8.957  1.00  0.00     0.001 A 
HETATM   14  C28 UNL     1      -4.331  10.877  -7.801  1.00  0.00     0.013 A 
HETATM   15  C29 UNL     1      -4.271   9.843  -6.872  1.00  0.00    -0.013 A 
ENDROOT
BRANCH   1  16
HETATM   16  C10 UNL     1      -1.929   8.841  -1.795  1.00  0.00     0.029 C 
HETATM   17  C9  UNL     1      -2.468   9.032  -0.620  1.00  0.00     0.044 A 
HETATM   18  C1  UNL     1      -3.783   9.635  -0.403  1.00  0.00     0.259 A 
HETATM   19  C8  UNL     1      -1.735   8.572   0.594  1.00  0.00    -0.005 A 
HETATM   20  O1  UNL     1      -4.464  10.054  -1.373  1.00  0.00    -0.267 OA
HETATM   21  N1  UNL     1      -4.343   9.776   0.909  1.00  0.00    -0.289 N 
HETATM   22  C2  UNL     1      -3.594   9.318   2.012  1.00  0.00     0.259 A 
ATOM     23  H1  UNL     1      -5.261  10.197   1.041  1.00  0.00     0.172 HD
HETATM   24  O2  UNL     1      -4.131   9.463   3.161  1.00  0.00    -0.267 OA
HETATM   25  C3  UNL     1      -2.282   8.713   1.861  1.00  0.00     0.043 A 
HETATM   26  C4  UNL     1      -1.635   8.304   3.002  1.00  0.00     0.018 A 
HETATM   27  C5  UNL     1      -0.392   7.728   2.923  1.00  0.00     0.001 A 
HETATM   28  C6  UNL     1       0.185   7.569   1.696  1.00  0.00     0.001 A 
HETATM   29  C7  UNL     1      -0.488   7.992   0.541  1.00  0.00     0.013 A 
ENDBRANCH   1  16
BRANCH   8  30
HETATM   30  C18 UNL     1      -5.037   5.600  -4.888  1.00  0.00     0.032 A 
HETATM   31  C19 UNL     1      -5.088   5.821  -3.516  1.00  0.00     0.029 A 
HETATM   32  C20 UNL     1      -5.016   4.802  -2.606  1.00  0.00     0.002 A 
HETATM   33  C21 UNL     1      -4.887   3.493  -3.024  1.00  0.00     0.000 A 
HETATM   34  C22 UNL     1      -4.835   3.244  -4.380  1.00  0.00     0.002 A 
HETATM   35  C23 UNL     1      -4.910   4.285  -5.287  1.00  0.00     0.029 A 
ENDBRANCH   8  30
TORSDOF 2
ENDMDL
