MODEL 1
REMARK VINA RESULT: -7.327293900      0.000      0.000
REMARK  8 active torsions:
REMARK  status: ('A' for Active; 'I' for Inactive)
REMARK    1  A    between atoms: C4_9  and  C5_10 
REMARK    2  A    between atoms: C5_10  and  C6_15 
REMARK    3  A    between atoms: N4_11  and  O1_13 
REMARK    4  A    between atoms: C6_15  and  N5_16 
REMARK    5  A    between atoms: C6_15  and  C7_20 
REMARK    6  A    between atoms: C7_20  and  N6_21 
REMARK    7  A    between atoms: N6_21  and  N7_23 
REMARK    8  A    between atoms: N7_23  and  C8_25 
ROOT
HETATM    1  C5  UNL     1      14.329  46.378 -48.306  1.00  0.00     0.079 C 
HETATM    2  N4  UNL     1      13.243  45.942 -47.864  1.00  0.00    -0.270 N 
ATOM      3  H4  UNL     1      13.146  46.177 -46.877  1.00  0.00     0.194 HD
ENDROOT
BRANCH   1   4
HETATM    4  C4  UNL     1      14.764  46.211 -49.663  1.00  0.00     0.009 A 
HETATM    5  C3  UNL     1      13.891  46.106 -50.699  1.00  0.00     0.050 A 
HETATM    6  C2  UNL     1      14.348  45.961 -52.016  1.00  0.00     0.096 A 
HETATM    7  N3  UNL     1      13.769  45.836 -53.204  1.00  0.00    -0.282 N 
HETATM    8  C11 UNL     1      15.706  45.927 -52.236  1.00  0.00     0.151 A 
HETATM    9  N2  UNL     1      14.711  45.732 -54.112  1.00  0.00    -0.239 N 
ATOM     10  H3  UNL     1      12.764  45.824 -53.381  1.00  0.00     0.188 HD
HETATM   11  N1  UNL     1      15.916  45.781 -53.576  1.00  0.00    -0.265 N 
ATOM     12  H2  UNL     1      14.534  45.626 -55.111  1.00  0.00     0.208 HD
HETATM   13  C1  UNL     1      17.204  45.699 -54.257  1.00  0.00     0.181 C 
HETATM   14  N11 UNL     1      16.581  46.029 -51.236  1.00  0.00    -0.348 N 
HETATM   15  C10 UNL     1      16.106  46.170 -49.962  1.00  0.00     0.103 A 
ATOM     16  H11 UNL     1      17.584  46.001 -51.418  1.00  0.00     0.167 HD
ENDBRANCH   1   4
BRANCH   1  17
HETATM   17  C6  UNL     1      15.274  47.111 -47.368  1.00  0.00     0.275 C 
BRANCH  17  18
HETATM   18  N5  UNL     1      15.172  46.422 -46.077  1.00  0.00    -0.065 N 
ATOM     19  H53 UNL     1      15.374  47.023 -45.278  1.00  0.00     0.275 HD
ATOM     20  H52 UNL     1      14.215  46.187 -45.815  1.00  0.00     0.275 HD
ATOM     21  H51 UNL     1      15.788  45.611 -46.142  1.00  0.00     0.275 HD
ENDBRANCH  17  18
BRANCH  17  22
HETATM   22  C7  UNL     1      14.823  48.494 -47.168  1.00  0.00     0.119 C 
BRANCH  22  23
HETATM   23  N6  UNL     1      14.193  48.851 -46.104  1.00  0.00    -0.299 N 
ATOM     24  H6  UNL     1      14.628  48.695 -45.195  1.00  0.00     0.186 HD
BRANCH  23  25
HETATM   25  N7  UNL     1      12.936  49.444 -46.159  1.00  0.00    -0.131 N 
ATOM     26  H7  UNL     1      12.810  50.348 -46.613  1.00  0.00     0.205 HD
BRANCH  25  27
HETATM   27  C8  UNL     1      11.933  48.836 -45.629  1.00  0.00     0.712 A 
HETATM   28  N8  UNL     1      11.861  47.537 -45.308  1.00  0.00    -0.184 N 
HETATM   29  C9  UNL     1      10.662  47.276 -44.780  1.00  0.00     0.215 A 
ATOM     30  H8  UNL     1      12.606  46.854 -45.444  1.00  0.00     0.185 HD
HETATM   31  N9  UNL     1       9.972  48.436 -44.773  1.00  0.00    -0.281 N 
HETATM   32  N10 UNL     1      10.740  49.377 -45.286  1.00  0.00    -0.130 N 
ATOM     33  H9  UNL     1       9.020  48.561 -44.430  1.00  0.00     0.188 HD
ATOM     34  H10 UNL     1      10.477  50.356 -45.404  1.00  0.00     0.205 HD
ENDBRANCH  25  27
ENDBRANCH  23  25
ENDBRANCH  22  23
ENDBRANCH  17  22
ENDBRANCH   1  17
BRANCH   2  35
HETATM   35  O1  UNL     1      12.191  45.276 -48.278  1.00  0.00    -0.290 OA
ATOM     36  H1  UNL     1      11.690  44.501 -48.051  1.00  0.00     0.244 HD
ENDBRANCH   2  35
TORSDOF 8
ENDMDL
MODEL 2
REMARK VINA RESULT: -7.214591084      3.893      6.973
REMARK  8 active torsions:
REMARK  status: ('A' for Active; 'I' for Inactive)
REMARK    1  A    between atoms: C4_9  and  C5_10 
REMARK    2  A    between atoms: C5_10  and  C6_15 
REMARK    3  A    between atoms: N4_11  and  O1_13 
REMARK    4  A    between atoms: C6_15  and  N5_16 
REMARK    5  A    between atoms: C6_15  and  C7_20 
REMARK    6  A    between atoms: C7_20  and  N6_21 
REMARK    7  A    between atoms: N6_21  and  N7_23 
REMARK    8  A    between atoms: N7_23  and  C8_25 
ROOT
HETATM    1  C5  UNL     1      17.418  46.678 -54.164  1.00  0.00     0.079 C 
HETATM    2  N4  UNL     1      17.148  46.344 -55.337  1.00  0.00    -0.270 N 
ATOM      3  H4  UNL     1      18.006  46.221 -55.874  1.00  0.00     0.194 HD
ENDROOT
BRANCH   1   4
HETATM    4  C4  UNL     1      16.429  46.928 -53.155  1.00  0.00     0.009 A 
HETATM    5  C3  UNL     1      15.615  45.950 -52.678  1.00  0.00     0.050 A 
HETATM    6  C2  UNL     1      14.669  46.222 -51.680  1.00  0.00     0.096 A 
HETATM    7  N3  UNL     1      13.759  45.509 -51.027  1.00  0.00    -0.282 N 
HETATM    8  C11 UNL     1      14.583  47.507 -51.195  1.00  0.00     0.151 A 
HETATM    9  N2  UNL     1      13.143  46.303 -50.183  1.00  0.00    -0.239 N 
ATOM     10  H3  UNL     1      13.572  44.515 -51.159  1.00  0.00     0.188 HD
HETATM   11  N1  UNL     1      13.606  47.537 -50.242  1.00  0.00    -0.265 N 
ATOM     12  H2  UNL     1      12.395  46.003 -49.556  1.00  0.00     0.208 HD
HETATM   13  C1  UNL     1      13.177  48.695 -49.465  1.00  0.00     0.181 C 
HETATM   14  N11 UNL     1      15.370  48.482 -51.647  1.00  0.00    -0.348 N 
HETATM   15  C10 UNL     1      16.284  48.186 -52.620  1.00  0.00     0.103 A 
ATOM     16  H11 UNL     1      15.292  49.428 -51.275  1.00  0.00     0.167 HD
ENDBRANCH   1   4
BRANCH   1  17
HETATM   17  C6  UNL     1      18.872  46.862 -53.757  1.00  0.00     0.275 C 
BRANCH  17  18
HETATM   18  N5  UNL     1      19.610  47.099 -55.003  1.00  0.00    -0.065 N 
ATOM     19  H53 UNL     1      20.359  46.427 -55.167  1.00  0.00     0.275 HD
ATOM     20  H52 UNL     1      19.071  46.890 -55.842  1.00  0.00     0.275 HD
ATOM     21  H51 UNL     1      19.934  48.066 -54.956  1.00  0.00     0.275 HD
ENDBRANCH  17  18
BRANCH  17  22
HETATM   22  C7  UNL     1      19.395  45.625 -53.163  1.00  0.00     0.119 C 
BRANCH  22  23
HETATM   23  N6  UNL     1      20.289  45.646 -52.237  1.00  0.00    -0.299 N 
ATOM     24  H6  UNL     1      21.209  46.032 -52.446  1.00  0.00     0.186 HD
BRANCH  23  25
HETATM   25  N7  UNL     1      20.034  45.158 -50.959  1.00  0.00    -0.131 N 
ATOM     26  H7  UNL     1      20.638  44.447 -50.548  1.00  0.00     0.205 HD
BRANCH  25  27
HETATM   27  C8  UNL     1      19.027  45.616 -50.302  1.00  0.00     0.712 A 
HETATM   28  N8  UNL     1      18.846  46.878 -49.889  1.00  0.00    -0.184 N 
HETATM   29  C9  UNL     1      17.682  46.969 -49.239  1.00  0.00     0.215 A 
ATOM     30  H8  UNL     1      19.495  47.649 -50.046  1.00  0.00     0.185 HD
HETATM   31  N9  UNL     1      17.127  45.739 -49.247  1.00  0.00    -0.281 N 
HETATM   32  N10 UNL     1      17.940  44.922 -49.889  1.00  0.00    -0.130 N 
ATOM     33  H9  UNL     1      16.233  45.485 -48.828  1.00  0.00     0.188 HD
ATOM     34  H10 UNL     1      17.775  43.928 -50.049  1.00  0.00     0.205 HD
ENDBRANCH  25  27
ENDBRANCH  23  25
ENDBRANCH  22  23
ENDBRANCH  17  22
ENDBRANCH   1  17
BRANCH   2  35
HETATM   35  O1  UNL     1      16.102  46.103 -56.092  1.00  0.00    -0.290 OA
ATOM     36  H1  UNL     1      15.406  45.463 -56.180  1.00  0.00     0.244 HD
ENDBRANCH   2  35
TORSDOF 8
ENDMDL
MODEL 3
REMARK VINA RESULT: -7.185471734      4.441      7.170
REMARK  8 active torsions:
REMARK  status: ('A' for Active; 'I' for Inactive)
REMARK    1  A    between atoms: C4_9  and  C5_10 
REMARK    2  A    between atoms: C5_10  and  C6_15 
REMARK    3  A    between atoms: N4_11  and  O1_13 
REMARK    4  A    between atoms: C6_15  and  N5_16 
REMARK    5  A    between atoms: C6_15  and  C7_20 
REMARK    6  A    between atoms: C7_20  and  N6_21 
REMARK    7  A    between atoms: N6_21  and  N7_23 
REMARK    8  A    between atoms: N7_23  and  C8_25 
ROOT
HETATM    1  C5  UNL     1      17.364  47.547 -54.953  1.00  0.00     0.079 C 
HETATM    2  N4  UNL     1      17.455  48.708 -55.406  1.00  0.00    -0.270 N 
ATOM      3  H4  UNL     1      16.907  48.797 -56.261  1.00  0.00     0.194 HD
ENDROOT
BRANCH   1   4
HETATM    4  C4  UNL     1      18.019  47.100 -53.758  1.00  0.00     0.009 A 
HETATM    5  C3  UNL     1      19.039  46.202 -53.781  1.00  0.00     0.050 A 
HETATM    6  C2  UNL     1      19.671  45.799 -52.596  1.00  0.00     0.096 A 
HETATM    7  N3  UNL     1      20.661  44.968 -52.295  1.00  0.00    -0.282 N 
HETATM    8  C11 UNL     1      19.232  46.333 -51.407  1.00  0.00     0.151 A 
HETATM    9  N2  UNL     1      20.831  44.984 -50.993  1.00  0.00    -0.239 N 
ATOM     10  H3  UNL     1      21.198  44.412 -52.961  1.00  0.00     0.188 HD
HETATM   11  N1  UNL     1      19.984  45.802 -50.399  1.00  0.00    -0.265 N 
ATOM     12  H2  UNL     1      21.533  44.432 -50.500  1.00  0.00     0.208 HD
HETATM   13  C1  UNL     1      19.863  46.088 -48.973  1.00  0.00     0.181 C 
HETATM   14  N11 UNL     1      18.234  47.215 -51.360  1.00  0.00    -0.348 N 
HETATM   15  C10 UNL     1      17.637  47.590 -52.531  1.00  0.00     0.103 A 
ATOM     16  H11 UNL     1      17.922  47.600 -50.469  1.00  0.00     0.167 HD
ENDBRANCH   1   4
BRANCH   1  17
HETATM   17  C6  UNL     1      16.534  46.518 -55.705  1.00  0.00     0.275 C 
BRANCH  17  18
HETATM   18  N5  UNL     1      15.617  47.285 -56.556  1.00  0.00    -0.065 N 
ATOM     19  H53 UNL     1      15.103  48.008 -56.053  1.00  0.00     0.275 HD
ATOM     20  H52 UNL     1      16.093  47.905 -57.211  1.00  0.00     0.275 HD
ATOM     21  H51 UNL     1      15.015  46.597 -57.008  1.00  0.00     0.275 HD
ENDBRANCH  17  18
BRANCH  17  22
HETATM   22  C7  UNL     1      15.717  45.738 -54.767  1.00  0.00     0.119 C 
BRANCH  22  23
HETATM   23  N6  UNL     1      14.582  46.169 -54.340  1.00  0.00    -0.299 N 
ATOM     24  H6  UNL     1      14.120  46.927 -54.842  1.00  0.00     0.186 HD
BRANCH  23  25
HETATM   25  N7  UNL     1      13.967  45.630 -53.214  1.00  0.00    -0.131 N 
ATOM     26  H7  UNL     1      13.232  44.930 -53.313  1.00  0.00     0.205 HD
BRANCH  25  27
HETATM   27  C8  UNL     1      14.337  46.026 -52.048  1.00  0.00     0.712 A 
HETATM   28  N8  UNL     1      13.993  47.171 -51.443  1.00  0.00    -0.184 N 
HETATM   29  C9  UNL     1      14.573  47.230 -50.242  1.00  0.00     0.215 A 
ATOM     30  H8  UNL     1      13.382  47.886 -51.838  1.00  0.00     0.185 HD
HETATM   31  N9  UNL     1      15.295  46.100 -50.094  1.00  0.00    -0.281 N 
HETATM   32  N10 UNL     1      15.152  45.373 -51.185  1.00  0.00    -0.130 N 
ATOM     33  H9  UNL     1      15.854  45.851 -49.279  1.00  0.00     0.188 HD
ATOM     34  H10 UNL     1      15.585  44.464 -51.352  1.00  0.00     0.205 HD
ENDBRANCH  25  27
ENDBRANCH  23  25
ENDBRANCH  22  23
ENDBRANCH  17  22
ENDBRANCH   1  17
BRANCH   2  35
HETATM   35  O1  UNL     1      18.039  49.849 -55.122  1.00  0.00    -0.290 OA
ATOM     36  H1  UNL     1      18.911  50.222 -55.070  1.00  0.00     0.244 HD
ENDBRANCH   2  35
TORSDOF 8
ENDMDL
MODEL 4
REMARK VINA RESULT: -7.150662229      3.706      8.109
REMARK  8 active torsions:
REMARK  status: ('A' for Active; 'I' for Inactive)
REMARK    1  A    between atoms: C4_9  and  C5_10 
REMARK    2  A    between atoms: C5_10  and  C6_15 
REMARK    3  A    between atoms: N4_11  and  O1_13 
REMARK    4  A    between atoms: C6_15  and  N5_16 
REMARK    5  A    between atoms: C6_15  and  C7_20 
REMARK    6  A    between atoms: C7_20  and  N6_21 
REMARK    7  A    between atoms: N6_21  and  N7_23 
REMARK    8  A    between atoms: N7_23  and  C8_25 
ROOT
HETATM    1  C5  UNL     1      16.072  46.937 -54.767  1.00  0.00     0.079 C 
HETATM    2  N4  UNL     1      16.726  46.028 -55.321  1.00  0.00    -0.270 N 
ATOM      3  H4  UNL     1      17.050  46.335 -56.238  1.00  0.00     0.194 HD
ENDROOT
BRANCH   1   4
HETATM    4  C4  UNL     1      15.480  46.819 -53.466  1.00  0.00     0.009 A 
HETATM    5  C3  UNL     1      15.763  47.685 -52.457  1.00  0.00     0.050 A 
HETATM    6  C2  UNL     1      15.155  47.552 -51.200  1.00  0.00     0.096 A 
HETATM    7  N3  UNL     1      15.220  48.212 -50.051  1.00  0.00    -0.282 N 
HETATM    8  C11 UNL     1      14.264  46.522 -51.012  1.00  0.00     0.151 A 
HETATM    9  N2  UNL     1      14.414  47.627 -49.195  1.00  0.00    -0.239 N 
ATOM     10  H3  UNL     1      15.796  49.033 -49.865  1.00  0.00     0.188 HD
HETATM   11  N1  UNL     1      13.803  46.588 -49.729  1.00  0.00    -0.265 N 
ATOM     12  H2  UNL     1      14.276  47.940 -48.234  1.00  0.00     0.208 HD
HETATM   13  C1  UNL     1      12.840  45.691 -49.098  1.00  0.00     0.181 C 
HETATM   14  N11 UNL     1      13.971  45.661 -51.986  1.00  0.00    -0.348 N 
HETATM   15  C10 UNL     1      14.578  45.815 -53.201  1.00  0.00     0.103 A 
ATOM     16  H11 UNL     1      13.307  44.902 -51.828  1.00  0.00     0.167 HD
ENDBRANCH   1   4
BRANCH   1  17
HETATM   17  C6  UNL     1      15.853  48.250 -55.502  1.00  0.00     0.275 C 
BRANCH  17  18
HETATM   18  N5  UNL     1      15.324  47.888 -56.822  1.00  0.00    -0.065 N 
ATOM     19  H53 UNL     1      14.347  48.151 -56.955  1.00  0.00     0.275 HD
ATOM     20  H52 UNL     1      15.707  48.450 -57.582  1.00  0.00     0.275 HD
ATOM     21  H51 UNL     1      15.495  46.888 -56.927  1.00  0.00     0.275 HD
ENDBRANCH  17  18
BRANCH  17  22
HETATM   22  C7  UNL     1      17.134  48.936 -55.713  1.00  0.00     0.119 C 
BRANCH  22  23
HETATM   23  N6  UNL     1      17.791  49.455 -54.735  1.00  0.00    -0.299 N 
ATOM     24  H6  UNL     1      17.353  50.189 -54.179  1.00  0.00     0.186 HD
BRANCH  23  25
HETATM   25  N7  UNL     1      19.081  49.043 -54.416  1.00  0.00    -0.131 N 
ATOM     26  H7  UNL     1      19.881  49.636 -54.635  1.00  0.00     0.205 HD
BRANCH  25  27
HETATM   27  C8  UNL     1      19.251  47.905 -53.842  1.00  0.00     0.712 A 
HETATM   28  N8  UNL     1      19.168  47.649 -52.529  1.00  0.00    -0.184 N 
HETATM   29  C9  UNL     1      19.407  46.352 -52.314  1.00  0.00     0.215 A 
ATOM     30  H8  UNL     1      18.954  48.336 -51.806  1.00  0.00     0.185 HD
HETATM   31  N9  UNL     1      19.646  45.789 -53.516  1.00  0.00    -0.281 N 
HETATM   32  N10 UNL     1      19.552  46.727 -54.439  1.00  0.00    -0.130 N 
ATOM     33  H9  UNL     1      19.863  44.806 -53.683  1.00  0.00     0.188 HD
ATOM     34  H10 UNL     1      19.683  46.588 -55.441  1.00  0.00     0.205 HD
ENDBRANCH  25  27
ENDBRANCH  23  25
ENDBRANCH  22  23
ENDBRANCH  17  22
ENDBRANCH   1  17
BRANCH   2  35
HETATM   35  O1  UNL     1      17.126  44.800 -55.087  1.00  0.00    -0.290 OA
ATOM     36  H1  UNL     1      17.480  44.053 -55.555  1.00  0.00     0.244 HD
ENDBRANCH   2  35
TORSDOF 8
ENDMDL
MODEL 5
REMARK VINA RESULT: -7.148430401      3.303      7.670
REMARK  8 active torsions:
REMARK  status: ('A' for Active; 'I' for Inactive)
REMARK    1  A    between atoms: C4_9  and  C5_10 
REMARK    2  A    between atoms: C5_10  and  C6_15 
REMARK    3  A    between atoms: N4_11  and  O1_13 
REMARK    4  A    between atoms: C6_15  and  N5_16 
REMARK    5  A    between atoms: C6_15  and  C7_20 
REMARK    6  A    between atoms: C7_20  and  N6_21 
REMARK    7  A    between atoms: N6_21  and  N7_23 
REMARK    8  A    between atoms: N7_23  and  C8_25 
ROOT
HETATM    1  C5  UNL     1      16.001  47.044 -54.296  1.00  0.00     0.079 C 
HETATM    2  N4  UNL     1      15.746  46.125 -55.104  1.00  0.00    -0.270 N 
ATOM      3  H4  UNL     1      16.191  46.313 -56.002  1.00  0.00     0.194 HD
ENDROOT
BRANCH   1   4
HETATM    4  C4  UNL     1      15.522  47.076 -52.944  1.00  0.00     0.009 A 
HETATM    5  C3  UNL     1      14.622  46.173 -52.471  1.00  0.00     0.050 A 
HETATM    6  C2  UNL     1      14.186  46.221 -51.139  1.00  0.00     0.096 A 
HETATM    7  N3  UNL     1      13.345  45.508 -50.400  1.00  0.00    -0.282 N 
HETATM    8  C11 UNL     1      14.690  47.205 -50.321  1.00  0.00     0.151 A 
HETATM    9  N2  UNL     1      13.327  46.019 -49.190  1.00  0.00    -0.239 N 
ATOM     10  H3  UNL     1      12.805  44.703 -50.717  1.00  0.00     0.188 HD
HETATM   11  N1  UNL     1      14.131  47.059 -49.085  1.00  0.00    -0.265 N 
ATOM     12  H2  UNL     1      12.760  45.655 -48.424  1.00  0.00     0.208 HD
HETATM   13  C1  UNL     1      14.380  47.885 -47.908  1.00  0.00     0.181 C 
HETATM   14  N11 UNL     1      15.572  48.101 -50.763  1.00  0.00    -0.348 N 
HETATM   15  C10 UNL     1      15.980  48.029 -52.066  1.00  0.00     0.103 A 
ATOM     16  H11 UNL     1      15.936  48.824 -50.142  1.00  0.00     0.167 HD
ENDBRANCH   1   4
BRANCH   1  17
HETATM   17  C6  UNL     1      16.847  48.222 -54.751  1.00  0.00     0.275 C 
BRANCH  17  18
HETATM   18  N5  UNL     1      16.196  48.742 -55.958  1.00  0.00    -0.065 N 
ATOM     19  H53 UNL     1      16.160  48.069 -56.724  1.00  0.00     0.275 HD
ATOM     20  H52 UNL     1      15.189  48.866 -55.857  1.00  0.00     0.275 HD
ATOM     21  H51 UNL     1      16.691  49.603 -56.195  1.00  0.00     0.275 HD
ENDBRANCH  17  18
BRANCH  17  22
HETATM   22  C7  UNL     1      18.190  47.768 -55.134  1.00  0.00     0.119 C 
BRANCH  22  23
HETATM   23  N6  UNL     1      19.092  47.507 -54.254  1.00  0.00    -0.299 N 
ATOM     24  H6  UNL     1      19.595  48.278 -53.816  1.00  0.00     0.186 HD
BRANCH  23  25
HETATM   25  N7  UNL     1      19.399  46.202 -53.882  1.00  0.00    -0.131 N 
ATOM     26  H7  UNL     1      19.552  45.485 -54.591  1.00  0.00     0.205 HD
BRANCH  25  27
HETATM   27  C8  UNL     1      19.489  45.911 -52.632  1.00  0.00     0.712 A 
HETATM   28  N8  UNL     1      20.601  45.926 -51.883  1.00  0.00    -0.184 N 
HETATM   29  C9  UNL     1      20.298  45.565 -50.633  1.00  0.00     0.215 A 
ATOM     30  H8  UNL     1      21.532  46.176 -52.215  1.00  0.00     0.185 HD
HETATM   31  N9  UNL     1      18.971  45.318 -50.602  1.00  0.00    -0.281 N 
HETATM   32  N10 UNL     1      18.484  45.527 -51.810  1.00  0.00    -0.130 N 
ATOM     33  H9  UNL     1      18.438  45.020 -49.785  1.00  0.00     0.188 HD
ATOM     34  H10 UNL     1      17.506  45.418 -52.081  1.00  0.00     0.205 HD
ENDBRANCH  25  27
ENDBRANCH  23  25
ENDBRANCH  22  23
ENDBRANCH  17  22
ENDBRANCH   1  17
BRANCH   2  35
HETATM   35  O1  UNL     1      15.083  44.994 -55.155  1.00  0.00    -0.290 OA
ATOM     36  H1  UNL     1      15.119  44.118 -54.788  1.00  0.00     0.244 HD
ENDBRANCH   2  35
TORSDOF 8
ENDMDL
