MODEL 1
REMARK VINA RESULT: -7.063313412      0.000      0.000
REMARK  7 active torsions:
REMARK  status: ('A' for Active; 'I' for Inactive)
REMARK    1  A    between atoms: C2_2  and  N1_3 
REMARK    2  A    between atoms: N4_8  and  C3_9 
REMARK    3  A    between atoms: C3_9  and  S1_10 
REMARK    4  A    between atoms: S1_10  and  C4_11 
REMARK    5  A    between atoms: C7_20  and  N8_21 
REMARK    6  A    between atoms: C9_27  and  N10_28 
REMARK    7  A    between atoms: N10_28  and  N11_30 
ROOT
HETATM    1  C4  UNL     1      14.352  47.081 -48.078  1.00  0.00     0.103 A 
HETATM    2  N5  UNL     1      13.536  46.383 -48.932  1.00  0.00    -0.345 N 
ATOM      3  H5  UNL     1      13.087  45.537 -48.580  1.00  0.00     0.167 HD
HETATM    4  C5  UNL     1      13.294  46.739 -50.188  1.00  0.00     0.183 A 
HETATM    5  N6  UNL     1      13.841  47.834 -50.735  1.00  0.00    -0.336 N 
ATOM      6  H6  UNL     1      13.654  48.106 -51.700  1.00  0.00     0.168 HD
HETATM    7  C6  UNL     1      14.657  48.559 -49.932  1.00  0.00     0.152 A 
HETATM    8  N7  UNL     1      15.335  49.683 -50.199  1.00  0.00    -0.174 N 
ATOM      9  H7  UNL     1      15.340  50.186 -51.087  1.00  0.00     0.186 HD
HETATM   10  C7  UNL     1      16.004  50.030 -49.096  1.00  0.00     0.678 A 
HETATM   11  N9  UNL     1      15.762  49.135 -48.120  1.00  0.00    -0.185 N 
ATOM     12  H9  UNL     1      16.145  49.156 -47.175  1.00  0.00     0.184 HD
HETATM   13  C8  UNL     1      14.926  48.209 -48.614  1.00  0.00     0.127 A 
ENDROOT
BRANCH   1  14
HETATM   14  S1  UNL     1      14.600  46.513 -46.427  1.00  0.00    -0.087 SA
BRANCH  14  15
HETATM   15  C3  UNL     1      14.343  47.651 -45.115  1.00  0.00     0.250 C 
BRANCH  15  16
HETATM   16  N4  UNL     1      13.080  48.374 -45.389  1.00  0.00    -0.096 N 
HETATM   17  N3  UNL     1      12.910  49.516 -46.007  1.00  0.00    -0.210 N 
HETATM   18  N2  UNL     1      11.631  49.817 -46.043  1.00  0.00    -0.211 N 
ATOM     19  H3  UNL     1      13.659  50.086 -46.401  1.00  0.00     0.210 HD
HETATM   20  N1  UNL     1      10.934  48.841 -45.430  1.00  0.00    -0.106 N 
ATOM     21  H2  UNL     1      11.231  50.654 -46.468  1.00  0.00     0.210 HD
HETATM   22  C9  UNL     1      11.820  47.957 -45.027  1.00  0.00     0.733 A 
BRANCH  20  23
HETATM   23  C2  UNL     1       9.493  48.799 -45.274  1.00  0.00     0.165 C 
HETATM   24  C1  UNL     1       8.783  49.843 -46.073  1.00  0.00     0.029 C 
ENDBRANCH  20  23
BRANCH  22  25
HETATM   25  N10 UNL     1      11.642  46.865 -44.387  1.00  0.00    -0.136 N 
ATOM     26  H10 UNL     1      11.477  46.039 -44.961  1.00  0.00     0.205 HD
BRANCH  25  27
HETATM   27  N11 UNL     1      11.644  46.654 -43.027  1.00  0.00    -0.331 N 
ATOM     28 2H11 UNL     1      12.573  46.593 -42.610  1.00  0.00     0.177 HD
ATOM     29 1H11 UNL     1      10.849  46.554 -42.396  1.00  0.00     0.177 HD
ENDBRANCH  25  27
ENDBRANCH  22  25
ENDBRANCH  15  16
ENDBRANCH  14  15
ENDBRANCH   1  14
BRANCH  10  30
HETATM   30  N8  UNL     1      16.773  51.077 -48.990  1.00  0.00    -0.234 N 
ATOM     31  H82 UNL     1      17.440  51.397 -49.693  1.00  0.00     0.174 HD
ATOM     32  H81 UNL     1      16.796  51.703 -48.185  1.00  0.00     0.174 HD
ENDBRANCH  10  30
TORSDOF 7
ENDMDL
MODEL 2
REMARK VINA RESULT: -7.026324088      1.995      2.789
REMARK  7 active torsions:
REMARK  status: ('A' for Active; 'I' for Inactive)
REMARK    1  A    between atoms: C2_2  and  N1_3 
REMARK    2  A    between atoms: N4_8  and  C3_9 
REMARK    3  A    between atoms: C3_9  and  S1_10 
REMARK    4  A    between atoms: S1_10  and  C4_11 
REMARK    5  A    between atoms: C7_20  and  N8_21 
REMARK    6  A    between atoms: C9_27  and  N10_28 
REMARK    7  A    between atoms: N10_28  and  N11_30 
ROOT
HETATM    1  C4  UNL     1      14.640  46.393 -48.358  1.00  0.00     0.103 A 
HETATM    2  N5  UNL     1      13.448  46.873 -48.839  1.00  0.00    -0.345 N 
ATOM      3  H5  UNL     1      12.671  46.965 -48.184  1.00  0.00     0.167 HD
HETATM    4  C5  UNL     1      13.243  47.226 -50.102  1.00  0.00     0.183 A 
HETATM    5  N6  UNL     1      14.205  47.139 -51.031  1.00  0.00    -0.336 N 
ATOM      6  H6  UNL     1      14.044  47.411 -52.001  1.00  0.00     0.168 HD
HETATM    7  C6  UNL     1      15.403  46.669 -50.608  1.00  0.00     0.152 A 
HETATM    8  N7  UNL     1      16.534  46.473 -51.299  1.00  0.00    -0.174 N 
ATOM      9  H7  UNL     1      16.669  46.657 -52.293  1.00  0.00     0.186 HD
HETATM   10  C7  UNL     1      17.452  45.995 -50.455  1.00  0.00     0.678 A 
HETATM   11  N9  UNL     1      16.919  45.880 -49.224  1.00  0.00    -0.185 N 
ATOM     12  H9  UNL     1      17.398  45.540 -48.391  1.00  0.00     0.184 HD
HETATM   13  C8  UNL     1      15.644  46.293 -49.292  1.00  0.00     0.127 A 
ENDROOT
BRANCH   1  14
HETATM   14  S1  UNL     1      14.799  45.955 -46.658  1.00  0.00    -0.087 SA
BRANCH  14  15
HETATM   15  C3  UNL     1      14.533  47.205 -45.454  1.00  0.00     0.250 C 
BRANCH  15  16
HETATM   16  N4  UNL     1      13.080  47.489 -45.417  1.00  0.00    -0.096 N 
HETATM   17  N3  UNL     1      12.099  46.688 -45.084  1.00  0.00    -0.210 N 
HETATM   18  N2  UNL     1      10.952  47.324 -45.183  1.00  0.00    -0.211 N 
ATOM     19  H3  UNL     1      12.208  45.717 -44.792  1.00  0.00     0.210 HD
HETATM   20  N1  UNL     1      11.185  48.585 -45.593  1.00  0.00    -0.106 N 
ATOM     21  H2  UNL     1      10.035  46.926 -44.981  1.00  0.00     0.210 HD
HETATM   22  C9  UNL     1      12.487  48.689 -45.738  1.00  0.00     0.733 A 
BRANCH  20  23
HETATM   23  C2  UNL     1      10.177  49.605 -45.809  1.00  0.00     0.165 C 
HETATM   24  C1  UNL     1       8.788  49.129 -45.534  1.00  0.00     0.029 C 
ENDBRANCH  20  23
BRANCH  22  25
HETATM   25  N10 UNL     1      13.184  49.689 -46.121  1.00  0.00    -0.136 N 
ATOM     26  H10 UNL     1      13.590  50.255 -45.377  1.00  0.00     0.205 HD
BRANCH  25  27
HETATM   27  N11 UNL     1      13.459  50.106 -47.404  1.00  0.00    -0.331 N 
ATOM     28 2H11 UNL     1      12.776  50.755 -47.794  1.00  0.00     0.177 HD
ATOM     29 1H11 UNL     1      14.245  49.851 -48.002  1.00  0.00     0.177 HD
ENDBRANCH  25  27
ENDBRANCH  22  25
ENDBRANCH  15  16
ENDBRANCH  14  15
ENDBRANCH   1  14
BRANCH  10  30
HETATM   30  N8  UNL     1      18.676  45.688 -50.783  1.00  0.00    -0.234 N 
ATOM     31  H82 UNL     1      19.063  44.744 -50.814  1.00  0.00     0.174 HD
ATOM     32  H81 UNL     1      19.393  46.362 -51.050  1.00  0.00     0.174 HD
ENDBRANCH  10  30
TORSDOF 7
ENDMDL
MODEL 3
REMARK VINA RESULT: -7.009235496      1.924      2.197
REMARK  7 active torsions:
REMARK  status: ('A' for Active; 'I' for Inactive)
REMARK    1  A    between atoms: C2_2  and  N1_3 
REMARK    2  A    between atoms: N4_8  and  C3_9 
REMARK    3  A    between atoms: C3_9  and  S1_10 
REMARK    4  A    between atoms: S1_10  and  C4_11 
REMARK    5  A    between atoms: C7_20  and  N8_21 
REMARK    6  A    between atoms: C9_27  and  N10_28 
REMARK    7  A    between atoms: N10_28  and  N11_30 
ROOT
HETATM    1  C4  UNL     1      14.799  47.358 -48.498  1.00  0.00     0.103 A 
HETATM    2  N5  UNL     1      13.496  47.349 -48.926  1.00  0.00    -0.345 N 
ATOM      3  H5  UNL     1      12.791  47.772 -48.322  1.00  0.00     0.167 HD
HETATM    4  C5  UNL     1      13.094  46.824 -50.078  1.00  0.00     0.183 A 
HETATM    5  N6  UNL     1      13.949  46.247 -50.934  1.00  0.00    -0.336 N 
ATOM      6  H6  UNL     1      13.638  45.844 -51.818  1.00  0.00     0.168 HD
HETATM    7  C6  UNL     1      15.251  46.229 -50.557  1.00  0.00     0.152 A 
HETATM    8  N7  UNL     1      16.316  45.727 -51.197  1.00  0.00    -0.174 N 
ATOM      9  H7  UNL     1      16.307  45.262 -52.104  1.00  0.00     0.186 HD
HETATM   10  C7  UNL     1      17.391  45.945 -50.435  1.00  0.00     0.678 A 
HETATM   11  N9  UNL     1      17.025  46.583 -49.307  1.00  0.00    -0.185 N 
ATOM     12  H9  UNL     1      17.644  46.871 -48.550  1.00  0.00     0.184 HD
HETATM   13  C8  UNL     1      15.697  46.772 -49.358  1.00  0.00     0.127 A 
ENDROOT
BRANCH   1  14
HETATM   14  S1  UNL     1      15.218  48.086 -46.948  1.00  0.00    -0.087 SA
BRANCH  14  15
HETATM   15  C3  UNL     1      14.229  47.686 -45.553  1.00  0.00     0.250 C 
BRANCH  15  16
HETATM   16  N4  UNL     1      12.977  48.470 -45.651  1.00  0.00    -0.096 N 
HETATM   17  N3  UNL     1      12.804  49.677 -46.131  1.00  0.00    -0.210 N 
HETATM   18  N2  UNL     1      11.537  50.016 -46.036  1.00  0.00    -0.211 N 
ATOM     19  H3  UNL     1      13.542  50.264 -46.520  1.00  0.00     0.210 HD
HETATM   20  N1  UNL     1      10.853  49.000 -45.477  1.00  0.00    -0.106 N 
ATOM     21  H2  UNL     1      11.138  50.905 -46.338  1.00  0.00     0.210 HD
HETATM   22  C9  UNL     1      11.733  48.053 -45.239  1.00  0.00     0.733 A 
BRANCH  20  23
HETATM   23  C2  UNL     1       9.427  48.983 -45.215  1.00  0.00     0.165 C 
HETATM   24  C1  UNL     1       8.658  49.933 -46.074  1.00  0.00     0.029 C 
ENDBRANCH  20  23
BRANCH  22  25
HETATM   25  N10 UNL     1      11.563  46.904 -44.706  1.00  0.00    -0.136 N 
ATOM     26  H10 UNL     1      11.371  46.141 -45.353  1.00  0.00     0.205 HD
BRANCH  25  27
HETATM   27  N11 UNL     1      11.605  46.559 -43.373  1.00  0.00    -0.331 N 
ATOM     28 2H11 UNL     1      10.748  46.132 -43.021  1.00  0.00     0.177 HD
ATOM     29 1H11 UNL     1      12.369  46.674 -42.708  1.00  0.00     0.177 HD
ENDBRANCH  25  27
ENDBRANCH  22  25
ENDBRANCH  15  16
ENDBRANCH  14  15
ENDBRANCH   1  14
BRANCH  10  30
HETATM   30  N8  UNL     1      18.606  45.589 -50.744  1.00  0.00    -0.234 N 
ATOM     31  H82 UNL     1      19.288  46.170 -51.234  1.00  0.00     0.174 HD
ATOM     32  H81 UNL     1      19.019  44.682 -50.529  1.00  0.00     0.174 HD
ENDBRANCH  10  30
TORSDOF 7
ENDMDL
MODEL 4
REMARK VINA RESULT: -6.954405504      2.955      3.644
REMARK  7 active torsions:
REMARK  status: ('A' for Active; 'I' for Inactive)
REMARK    1  A    between atoms: C2_2  and  N1_3 
REMARK    2  A    between atoms: N4_8  and  C3_9 
REMARK    3  A    between atoms: C3_9  and  S1_10 
REMARK    4  A    between atoms: S1_10  and  C4_11 
REMARK    5  A    between atoms: C7_20  and  N8_21 
REMARK    6  A    between atoms: C9_27  and  N10_28 
REMARK    7  A    between atoms: N10_28  and  N11_30 
ROOT
HETATM    1  C4  UNL     1      16.243  46.154 -46.493  1.00  0.00     0.103 A 
HETATM    2  N5  UNL     1      16.749  45.704 -45.300  1.00  0.00    -0.345 N 
ATOM      3  H5  UNL     1      16.208  45.883 -44.453  1.00  0.00     0.167 HD
HETATM    4  C5  UNL     1      17.898  45.051 -45.176  1.00  0.00     0.183 A 
HETATM    5  N6  UNL     1      18.675  44.772 -46.233  1.00  0.00    -0.336 N 
ATOM      6  H6  UNL     1      19.557  44.269 -46.135  1.00  0.00     0.168 HD
HETATM    7  C6  UNL     1      18.221  45.195 -47.437  1.00  0.00     0.152 A 
HETATM    8  N7  UNL     1      18.773  45.064 -48.650  1.00  0.00    -0.174 N 
ATOM      9  H7  UNL     1      19.660  44.605 -48.860  1.00  0.00     0.186 HD
HETATM   10  C7  UNL     1      17.958  45.642 -49.536  1.00  0.00     0.678 A 
HETATM   11  N9  UNL     1      16.883  46.145 -48.901  1.00  0.00    -0.185 N 
ATOM     12  H9  UNL     1      16.103  46.638 -49.336  1.00  0.00     0.184 HD
HETATM   13  C8  UNL     1      17.021  45.881 -47.593  1.00  0.00     0.127 A 
ENDROOT
BRANCH   1  14
HETATM   14  S1  UNL     1      14.704  47.012 -46.537  1.00  0.00    -0.087 SA
BRANCH  14  15
HETATM   15  C3  UNL     1      14.170  47.829 -45.078  1.00  0.00     0.250 C 
BRANCH  15  16
HETATM   16  N4  UNL     1      12.911  48.540 -45.396  1.00  0.00    -0.096 N 
HETATM   17  N3  UNL     1      12.754  49.700 -45.984  1.00  0.00    -0.210 N 
HETATM   18  N2  UNL     1      11.473  49.981 -46.080  1.00  0.00    -0.211 N 
ATOM     19  H3  UNL     1      13.512  50.296 -46.316  1.00  0.00     0.210 HD
HETATM   20  N1  UNL     1      10.763  48.973 -45.540  1.00  0.00    -0.106 N 
ATOM     21  H2  UNL     1      11.082  50.826 -46.497  1.00  0.00     0.210 HD
HETATM   22  C9  UNL     1      11.641  48.090 -45.119  1.00  0.00     0.733 A 
BRANCH  20  23
HETATM   23  C2  UNL     1       9.317  48.901 -45.465  1.00  0.00     0.165 C 
HETATM   24  C1  UNL     1       8.633  50.021 -46.180  1.00  0.00     0.029 C 
ENDBRANCH  20  23
BRANCH  22  25
HETATM   25  N10 UNL     1      11.449  46.973 -44.528  1.00  0.00    -0.136 N 
ATOM     26  H10 UNL     1      11.121  46.211 -45.120  1.00  0.00     0.205 HD
BRANCH  25  27
HETATM   27  N11 UNL     1      11.627  46.661 -43.199  1.00  0.00    -0.331 N 
ATOM     28 2H11 UNL     1      11.957  47.436 -42.623  1.00  0.00     0.177 HD
ATOM     29 1H11 UNL     1      11.472  45.771 -42.727  1.00  0.00     0.177 HD
ENDBRANCH  25  27
ENDBRANCH  22  25
ENDBRANCH  15  16
ENDBRANCH  14  15
ENDBRANCH   1  14
BRANCH  10  30
HETATM   30  N8  UNL     1      18.178  45.704 -50.820  1.00  0.00    -0.234 N 
ATOM     31  H82 UNL     1      17.820  45.049 -51.516  1.00  0.00     0.174 HD
ATOM     32  H81 UNL     1      18.739  46.421 -51.280  1.00  0.00     0.174 HD
ENDBRANCH  10  30
TORSDOF 7
ENDMDL
MODEL 5
REMARK VINA RESULT: -6.929657839      0.894      2.501
REMARK  7 active torsions:
REMARK  status: ('A' for Active; 'I' for Inactive)
REMARK    1  A    between atoms: C2_2  and  N1_3 
REMARK    2  A    between atoms: N4_8  and  C3_9 
REMARK    3  A    between atoms: C3_9  and  S1_10 
REMARK    4  A    between atoms: S1_10  and  C4_11 
REMARK    5  A    between atoms: C7_20  and  N8_21 
REMARK    6  A    between atoms: C9_27  and  N10_28 
REMARK    7  A    between atoms: N10_28  and  N11_30 
ROOT
HETATM    1  C4  UNL     1      15.111  48.829 -48.002  1.00  0.00     0.103 A 
HETATM    2  N5  UNL     1      15.232  50.116 -48.461  1.00  0.00    -0.345 N 
ATOM      3  H5  UNL     1      15.523  50.835 -47.797  1.00  0.00     0.167 HD
HETATM    4  C5  UNL     1      14.995  50.485 -49.714  1.00  0.00     0.183 A 
HETATM    5  N6  UNL     1      14.609  49.610 -50.653  1.00  0.00    -0.336 N 
ATOM      6  H6  UNL     1      14.428  49.897 -51.615  1.00  0.00     0.168 HD
HETATM    7  C6  UNL     1      14.473  48.324 -50.251  1.00  0.00     0.152 A 
HETATM    8  N7  UNL     1      14.105  47.245 -50.955  1.00  0.00    -0.174 N 
ATOM      9  H7  UNL     1      13.861  47.230 -51.945  1.00  0.00     0.186 HD
HETATM   10  C7  UNL     1      14.115  46.195 -50.131  1.00  0.00     0.678 A 
HETATM   11  N9  UNL     1      14.486  46.589 -48.899  1.00  0.00    -0.185 N 
ATOM     12  H9  UNL     1      14.577  45.992 -48.077  1.00  0.00     0.184 HD
HETATM   13  C8  UNL     1      14.715  47.911 -48.946  1.00  0.00     0.127 A 
ENDROOT
BRANCH   1  14
HETATM   14  S1  UNL     1      15.452  48.453 -46.314  1.00  0.00    -0.087 SA
BRANCH  14  15
HETATM   15  C3  UNL     1      14.213  47.627 -45.384  1.00  0.00     0.250 C 
BRANCH  15  16
HETATM   16  N4  UNL     1      12.958  48.400 -45.522  1.00  0.00    -0.096 N 
HETATM   17  N3  UNL     1      12.793  49.612 -45.991  1.00  0.00    -0.210 N 
HETATM   18  N2  UNL     1      11.519  49.938 -45.944  1.00  0.00    -0.211 N 
ATOM     19  H3  UNL     1      13.539  50.212 -46.341  1.00  0.00     0.210 HD
HETATM   20  N1  UNL     1      10.823  48.907 -45.427  1.00  0.00    -0.106 N 
ATOM     21  H2  UNL     1      11.124  50.827 -46.249  1.00  0.00     0.210 HD
HETATM   22  C9  UNL     1      11.702  47.965 -45.167  1.00  0.00     0.733 A 
BRANCH  20  23
HETATM   23  C2  UNL     1       9.388  48.872 -45.225  1.00  0.00     0.165 C 
HETATM   24  C1  UNL     1       8.650  49.866 -46.061  1.00  0.00     0.029 C 
ENDBRANCH  20  23
BRANCH  22  25
HETATM   25  N10 UNL     1      11.523  46.807 -44.658  1.00  0.00    -0.136 N 
ATOM     26  H10 UNL     1      11.264  46.071 -45.315  1.00  0.00     0.205 HD
BRANCH  25  27
HETATM   27  N11 UNL     1      11.631  46.419 -43.341  1.00  0.00    -0.331 N 
ATOM     28 2H11 UNL     1      11.658  47.190 -42.674  1.00  0.00     0.177 HD
ATOM     29 1H11 UNL     1      11.688  45.476 -42.957  1.00  0.00     0.177 HD
ENDBRANCH  25  27
ENDBRANCH  22  25
ENDBRANCH  15  16
ENDBRANCH  14  15
ENDBRANCH   1  14
BRANCH  10  30
HETATM   30  N8  UNL     1      13.809  44.975 -50.476  1.00  0.00    -0.234 N 
ATOM     31  H82 UNL     1      12.963  44.475 -50.202  1.00  0.00     0.174 HD
ATOM     32  H81 UNL     1      14.387  44.376 -51.066  1.00  0.00     0.174 HD
ENDBRANCH  10  30
TORSDOF 7
ENDMDL
