MODEL 1
REMARK VINA RESULT: -6.879631313      0.000      0.000
REMARK  8 active torsions:
REMARK  status: ('A' for Active; 'I' for Inactive)
REMARK    1  A    between atoms: O1_2  and  C2_3 
REMARK    2  A    between atoms: C2_3  and  O2_4 
REMARK    3  A    between atoms: O2_4  and  N1_5 
REMARK    4  A    between atoms: N1_5  and  C3_7 
REMARK    5  A    between atoms: C5_11  and  N3_12 
REMARK    6  A    between atoms: N3_12  and  N4_14 
REMARK    7  A    between atoms: C6_19  and  N6_20 
REMARK    8  A    between atoms: C9_26  and  S1_27 
ROOT
HETATM    1  C3  UNL     1      16.599  48.816 -56.613  1.00  0.00     0.703 A 
HETATM    2  N2  UNL     1      17.897  48.880 -56.300  1.00  0.00    -0.184 N 
ATOM      3  H2  UNL     1      18.553  49.140 -57.037  1.00  0.00     0.184 HD
HETATM    4  C4  UNL     1      18.395  48.624 -55.074  1.00  0.00     0.125 A 
HETATM    5  C5  UNL     1      19.743  48.710 -54.829  1.00  0.00     0.165 A 
HETATM    6  N5  UNL     1      20.153  48.441 -53.593  1.00  0.00    -0.173 N 
ATOM      7  H5  UNL     1      21.148  48.497 -53.377  1.00  0.00     0.186 HD
HETATM    8  C6  UNL     1      19.298  48.102 -52.628  1.00  0.00     0.680 A 
HETATM    9  N7  UNL     1      17.941  47.998 -52.812  1.00  0.00    -0.183 N 
HETATM   10  C7  UNL     1      17.067  47.633 -51.756  1.00  0.00     0.175 C 
HETATM   11  C8  UNL     1      17.494  48.263 -54.047  1.00  0.00     0.116 A 
HETATM   12  C9  UNL     1      16.161  48.192 -54.349  1.00  0.00     0.115 A 
HETATM   13  N8  UNL     1      15.773  48.474 -55.626  1.00  0.00    -0.182 N 
ATOM     14  H8  UNL     1      14.777  48.418 -55.840  1.00  0.00     0.185 HD
ENDROOT
BRANCH   1  15
HETATM   15  N1  UNL     1      16.162  49.073 -57.813  1.00  0.00    -0.094 N 
ATOM     16  H1  UNL     1      15.574  48.377 -58.274  1.00  0.00     0.213 HD
BRANCH  15  17
HETATM   17  O2  UNL     1      16.448  50.213 -58.480  1.00  0.00    -0.240 OA
BRANCH  17  18
HETATM   18  C2  UNL     1      15.561  51.229 -58.824  1.00  0.00     0.369 C 
BRANCH  18  19
HETATM   19  O1  UNL     1      15.067  50.924 -60.114  1.00  0.00    -0.369 OA
HETATM   20  C1  UNL     1      15.828  51.718 -60.990  1.00  0.00     0.204 C 
ENDBRANCH  18  19
ENDBRANCH  17  18
ENDBRANCH  15  17
ENDBRANCH   1  15
BRANCH  12  21
HETATM   21  S1  UNL     1      14.969  47.750 -53.127  1.00  0.00    -0.114 SA
HETATM   22  C10 UNL     1      13.284  47.888 -53.726  1.00  0.00     0.097 C 
ENDBRANCH  12  21
BRANCH   5  23
HETATM   23  N3  UNL     1      20.545  49.040 -55.779  1.00  0.00    -0.290 N 
ATOM     24  H3  UNL     1      20.931  48.318 -56.387  1.00  0.00     0.188 HD
BRANCH  23  25
HETATM   25  N4  UNL     1      20.893  50.379 -55.987  1.00  0.00    -0.344 N 
ATOM     26  H42 UNL     1      20.975  50.994 -55.178  1.00  0.00     0.176 HD
ATOM     27  H41 UNL     1      21.062  50.733 -56.928  1.00  0.00     0.176 HD
ENDBRANCH  23  25
ENDBRANCH   5  23
BRANCH   8  28
HETATM   28  N6  UNL     1      19.762  47.846 -51.424  1.00  0.00    -0.234 N 
ATOM     29  H62 UNL     1      19.349  48.363 -50.648  1.00  0.00     0.174 HD
ATOM     30  H61 UNL     1      20.503  47.154 -51.315  1.00  0.00     0.174 HD
ENDBRANCH   8  28
TORSDOF 8
ENDMDL
MODEL 2
REMARK VINA RESULT: -6.822291107      1.862      3.843
REMARK  8 active torsions:
REMARK  status: ('A' for Active; 'I' for Inactive)
REMARK    1  A    between atoms: O1_2  and  C2_3 
REMARK    2  A    between atoms: C2_3  and  O2_4 
REMARK    3  A    between atoms: O2_4  and  N1_5 
REMARK    4  A    between atoms: N1_5  and  C3_7 
REMARK    5  A    between atoms: C5_11  and  N3_12 
REMARK    6  A    between atoms: N3_12  and  N4_14 
REMARK    7  A    between atoms: C6_19  and  N6_20 
REMARK    8  A    between atoms: C9_26  and  S1_27 
ROOT
HETATM    1  C3  UNL     1      16.480  48.978 -56.973  1.00  0.00     0.703 A 
HETATM    2  N2  UNL     1      15.661  48.591 -55.990  1.00  0.00    -0.184 N 
ATOM      3  H2  UNL     1      14.676  48.449 -56.217  1.00  0.00     0.184 HD
HETATM    4  C4  UNL     1      16.051  48.378 -54.718  1.00  0.00     0.125 A 
HETATM    5  C5  UNL     1      15.149  47.982 -53.761  1.00  0.00     0.165 A 
HETATM    6  N5  UNL     1      15.615  47.793 -52.530  1.00  0.00    -0.173 N 
ATOM      7  H5  UNL     1      14.972  47.498 -51.796  1.00  0.00     0.186 HD
HETATM    8  C6  UNL     1      16.901  47.978 -52.230  1.00  0.00     0.680 A 
HETATM    9  N7  UNL     1      17.848  48.373 -53.142  1.00  0.00    -0.183 N 
HETATM   10  C7  UNL     1      19.207  48.558 -52.779  1.00  0.00     0.175 C 
HETATM   11  C8  UNL     1      17.412  48.572 -54.393  1.00  0.00     0.116 A 
HETATM   12  C9  UNL     1      18.266  48.967 -55.387  1.00  0.00     0.115 A 
HETATM   13  N8  UNL     1      17.757  49.153 -56.639  1.00  0.00    -0.182 N 
ATOM     14  H8  UNL     1      18.402  49.448 -57.373  1.00  0.00     0.185 HD
ENDROOT
BRANCH   1  15
HETATM   15  N1  UNL     1      16.057  49.172 -58.190  1.00  0.00    -0.094 N 
ATOM     16  H1  UNL     1      15.581  48.405 -58.666  1.00  0.00     0.213 HD
BRANCH  15  17
HETATM   17  O2  UNL     1      16.217  50.337 -58.856  1.00  0.00    -0.240 OA
BRANCH  17  18
HETATM   18  C2  UNL     1      15.550  51.536 -58.621  1.00  0.00     0.369 C 
BRANCH  18  19
HETATM   19  O1  UNL     1      14.906  51.892 -59.828  1.00  0.00    -0.369 OA
HETATM   20  C1  UNL     1      15.892  51.750 -60.821  1.00  0.00     0.204 C 
ENDBRANCH  18  19
ENDBRANCH  17  18
ENDBRANCH  15  17
ENDBRANCH   1  15
BRANCH  12  21
HETATM   21  S1  UNL     1      19.980  49.233 -55.069  1.00  0.00    -0.114 SA
HETATM   22  C10 UNL     1      20.439  50.964 -55.168  1.00  0.00     0.097 C 
ENDBRANCH  12  21
BRANCH   5  23
HETATM   23  N3  UNL     1      13.915  47.811 -54.079  1.00  0.00    -0.290 N 
ATOM     24  H3  UNL     1      13.575  48.143 -54.981  1.00  0.00     0.188 HD
BRANCH  23  25
HETATM   25  N4  UNL     1      13.032  47.174 -53.200  1.00  0.00    -0.344 N 
ATOM     26  H42 UNL     1      13.364  46.929 -52.267  1.00  0.00     0.176 HD
ATOM     27  H41 UNL     1      12.077  46.958 -53.485  1.00  0.00     0.176 HD
ENDBRANCH  23  25
ENDBRANCH   5  23
BRANCH   8  28
HETATM   28  N6  UNL     1      17.304  47.776 -50.994  1.00  0.00    -0.234 N 
ATOM     29  H62 UNL     1      16.772  48.229 -50.252  1.00  0.00     0.174 HD
ATOM     30  H61 UNL     1      18.119  47.185 -50.830  1.00  0.00     0.174 HD
ENDBRANCH   8  28
TORSDOF 8
ENDMDL
MODEL 3
REMARK VINA RESULT: -6.626235597      1.054      1.093
REMARK  8 active torsions:
REMARK  status: ('A' for Active; 'I' for Inactive)
REMARK    1  A    between atoms: O1_2  and  C2_3 
REMARK    2  A    between atoms: C2_3  and  O2_4 
REMARK    3  A    between atoms: O2_4  and  N1_5 
REMARK    4  A    between atoms: N1_5  and  C3_7 
REMARK    5  A    between atoms: C5_11  and  N3_12 
REMARK    6  A    between atoms: N3_12  and  N4_14 
REMARK    7  A    between atoms: C6_19  and  N6_20 
REMARK    8  A    between atoms: C9_26  and  S1_27 
ROOT
HETATM    1  C3  UNL     1      16.008  48.471 -55.733  1.00  0.00     0.703 A 
HETATM    2  N2  UNL     1      17.327  48.391 -55.524  1.00  0.00    -0.184 N 
ATOM      3  H2  UNL     1      17.942  48.423 -56.338  1.00  0.00     0.184 HD
HETATM    4  C4  UNL     1      17.895  48.271 -54.309  1.00  0.00     0.125 A 
HETATM    5  C5  UNL     1      19.260  48.194 -54.174  1.00  0.00     0.165 A 
HETATM    6  N5  UNL     1      19.741  48.077 -52.939  1.00  0.00    -0.173 N 
ATOM      7  H5  UNL     1      20.750  48.018 -52.804  1.00  0.00     0.186 HD
HETATM    8  C6  UNL     1      18.940  48.035 -51.874  1.00  0.00     0.680 A 
HETATM    9  N7  UNL     1      17.571  48.107 -51.946  1.00  0.00    -0.183 N 
HETATM   10  C7  UNL     1      16.755  48.059 -50.786  1.00  0.00     0.175 C 
HETATM   11  C8  UNL     1      17.053  48.226 -53.175  1.00  0.00     0.116 A 
HETATM   12  C9  UNL     1      15.700  48.307 -53.370  1.00  0.00     0.115 A 
HETATM   13  N8  UNL     1      15.238  48.426 -54.648  1.00  0.00    -0.182 N 
ATOM     14  H8  UNL     1      14.228  48.486 -54.782  1.00  0.00     0.185 HD
ENDROOT
BRANCH   1  15
HETATM   15  N1  UNL     1      15.503  48.587 -56.929  1.00  0.00    -0.094 N 
ATOM     16  H1  UNL     1      14.604  48.143 -57.119  1.00  0.00     0.213 HD
BRANCH  15  17
HETATM   17  O2  UNL     1      16.107  49.266 -57.929  1.00  0.00    -0.240 OA
BRANCH  17  18
HETATM   18  C2  UNL     1      15.976  50.620 -58.224  1.00  0.00     0.369 C 
BRANCH  18  19
HETATM   19  O1  UNL     1      16.410  50.794 -59.558  1.00  0.00    -0.369 OA
HETATM   20  C1  UNL     1      15.457  51.648 -60.141  1.00  0.00     0.204 C 
ENDBRANCH  18  19
ENDBRANCH  17  18
ENDBRANCH  15  17
ENDBRANCH   1  15
BRANCH  12  21
HETATM   21  S1  UNL     1      14.576  48.258 -52.012  1.00  0.00    -0.114 SA
HETATM   22  C10 UNL     1      12.928  48.804 -52.462  1.00  0.00     0.097 C 
ENDBRANCH  12  21
BRANCH   5  23
HETATM   23  N3  UNL     1      20.008  48.237 -55.218  1.00  0.00    -0.290 N 
ATOM     24  H3  UNL     1      20.265  47.370 -55.691  1.00  0.00     0.188 HD
BRANCH  23  25
HETATM   25  N4  UNL     1      20.475  49.459 -55.713  1.00  0.00    -0.344 N 
ATOM     26  H42 UNL     1      20.145  50.321 -55.278  1.00  0.00     0.176 HD
ATOM     27  H41 UNL     1      21.131  49.490 -56.494  1.00  0.00     0.176 HD
ENDBRANCH  23  25
ENDBRANCH   5  23
BRANCH   8  28
HETATM   28  N6  UNL     1      19.473  47.917 -50.678  1.00  0.00    -0.234 N 
ATOM     29  H62 UNL     1      20.460  47.664 -50.631  1.00  0.00     0.174 HD
ATOM     30  H61 UNL     1      18.890  48.081 -49.857  1.00  0.00     0.174 HD
ENDBRANCH   8  28
TORSDOF 8
ENDMDL
MODEL 4
REMARK VINA RESULT: -6.615576698      7.474      8.784
REMARK  8 active torsions:
REMARK  status: ('A' for Active; 'I' for Inactive)
REMARK    1  A    between atoms: O1_2  and  C2_3 
REMARK    2  A    between atoms: C2_3  and  O2_4 
REMARK    3  A    between atoms: O2_4  and  N1_5 
REMARK    4  A    between atoms: N1_5  and  C3_7 
REMARK    5  A    between atoms: C5_11  and  N3_12 
REMARK    6  A    between atoms: N3_12  and  N4_14 
REMARK    7  A    between atoms: C6_19  and  N6_20 
REMARK    8  A    between atoms: C9_26  and  S1_27 
ROOT
HETATM    1  C3  UNL     1      12.592  52.442 -49.871  1.00  0.00     0.703 A 
HETATM    2  N2  UNL     1      12.153  51.663 -48.878  1.00  0.00    -0.184 N 
ATOM      3  H2  UNL     1      11.145  51.610 -48.723  1.00  0.00     0.184 HD
HETATM    4  C4  UNL     1      12.953  50.943 -48.068  1.00  0.00     0.125 A 
HETATM    5  C5  UNL     1      12.427  50.165 -47.066  1.00  0.00     0.165 A 
HETATM    6  N5  UNL     1      13.286  49.486 -46.312  1.00  0.00    -0.173 N 
ATOM      7  H5  UNL     1      12.927  48.898 -45.560  1.00  0.00     0.186 HD
HETATM    8  C6  UNL     1      14.602  49.552 -46.511  1.00  0.00     0.680 A 
HETATM    9  N7  UNL     1      15.187  50.312 -47.495  1.00  0.00    -0.183 N 
HETATM   10  C7  UNL     1      16.594  50.355 -47.672  1.00  0.00     0.175 C 
HETATM   11  C8  UNL     1      14.350  51.010 -48.274  1.00  0.00     0.116 A 
HETATM   12  C9  UNL     1      14.818  51.802 -49.287  1.00  0.00     0.115 A 
HETATM   13  N8  UNL     1      13.912  52.486 -50.044  1.00  0.00    -0.182 N 
ATOM     14  H8  UNL     1      14.272  53.074 -50.796  1.00  0.00     0.185 HD
ENDROOT
BRANCH   1  15
HETATM   15  N1  UNL     1      11.779  53.121 -50.630  1.00  0.00    -0.094 N 
ATOM     16  H1  UNL     1      11.111  53.749 -50.184  1.00  0.00     0.213 HD
BRANCH  15  17
HETATM   17  O2  UNL     1      11.776  53.035 -51.979  1.00  0.00    -0.240 OA
BRANCH  17  18
HETATM   18  C2  UNL     1      12.519  53.803 -52.871  1.00  0.00     0.369 C 
BRANCH  18  19
HETATM   19  O1  UNL     1      11.598  54.566 -53.624  1.00  0.00    -0.369 OA
HETATM   20  C1  UNL     1      11.899  55.905 -53.317  1.00  0.00     0.204 C 
ENDBRANCH  18  19
ENDBRANCH  17  18
ENDBRANCH  15  17
ENDBRANCH   1  15
BRANCH  12  21
HETATM   21  S1  UNL     1      16.545  51.943 -49.614  1.00  0.00    -0.114 SA
HETATM   22  C10 UNL     1      17.156  53.614 -49.385  1.00  0.00     0.097 C 
ENDBRANCH  12  21
BRANCH   5  23
HETATM   23  N3  UNL     1      11.153  50.119 -46.896  1.00  0.00    -0.290 N 
ATOM     24  H3  UNL     1      10.652  50.958 -46.605  1.00  0.00     0.188 HD
BRANCH  23  25
HETATM   25  N4  UNL     1      10.447  48.930 -47.106  1.00  0.00    -0.344 N 
ATOM     26  H42 UNL     1      10.922  48.154 -47.567  1.00  0.00     0.176 HD
ATOM     27  H41 UNL     1       9.476  48.839 -46.805  1.00  0.00     0.176 HD
ENDBRANCH  23  25
ENDBRANCH   5  23
BRANCH   8  28
HETATM   28  N6  UNL     1      15.403  48.859 -45.732  1.00  0.00    -0.234 N 
ATOM     29  H62 UNL     1      15.595  47.895 -46.003  1.00  0.00     0.174 HD
ATOM     30  H61 UNL     1      15.794  49.304 -44.902  1.00  0.00     0.174 HD
ENDBRANCH   8  28
TORSDOF 8
ENDMDL
MODEL 5
REMARK VINA RESULT: -6.614834599      1.656      2.045
REMARK  8 active torsions:
REMARK  status: ('A' for Active; 'I' for Inactive)
REMARK    1  A    between atoms: O1_2  and  C2_3 
REMARK    2  A    between atoms: C2_3  and  O2_4 
REMARK    3  A    between atoms: O2_4  and  N1_5 
REMARK    4  A    between atoms: N1_5  and  C3_7 
REMARK    5  A    between atoms: C5_11  and  N3_12 
REMARK    6  A    between atoms: N3_12  and  N4_14 
REMARK    7  A    between atoms: C6_19  and  N6_20 
REMARK    8  A    between atoms: C9_26  and  S1_27 
ROOT
HETATM    1  C3  UNL     1      15.492  48.391 -55.351  1.00  0.00     0.703 A 
HETATM    2  N2  UNL     1      16.760  48.167 -54.992  1.00  0.00    -0.184 N 
ATOM      3  H2  UNL     1      17.456  48.077 -55.733  1.00  0.00     0.184 HD
HETATM    4  C4  UNL     1      17.179  48.054 -53.717  1.00  0.00     0.125 A 
HETATM    5  C5  UNL     1      18.501  47.822 -53.427  1.00  0.00     0.165 A 
HETATM    6  N5  UNL     1      18.831  47.723 -52.142  1.00  0.00    -0.173 N 
ATOM      7  H5  UNL     1      19.805  47.552 -51.893  1.00  0.00     0.186 HD
HETATM    8  C6  UNL     1      17.924  47.841 -51.173  1.00  0.00     0.680 A 
HETATM    9  N7  UNL     1      16.590  48.072 -51.399  1.00  0.00    -0.183 N 
HETATM   10  C7  UNL     1      15.657  48.191 -50.337  1.00  0.00     0.175 C 
HETATM   11  C8  UNL     1      16.222  48.178 -52.684  1.00  0.00     0.116 A 
HETATM   12  C9  UNL     1      14.919  48.408 -53.032  1.00  0.00     0.115 A 
HETATM   13  N8  UNL     1      14.612  48.504 -54.358  1.00  0.00    -0.182 N 
ATOM     14  H8  UNL     1      13.637  48.675 -54.606  1.00  0.00     0.185 HD
ENDROOT
BRANCH   1  15
HETATM   15  N1  UNL     1      15.133  48.494 -56.599  1.00  0.00    -0.094 N 
ATOM     16  H1  UNL     1      14.221  48.127 -56.873  1.00  0.00     0.213 HD
BRANCH  15  17
HETATM   17  O2  UNL     1      15.906  49.064 -57.550  1.00  0.00    -0.240 OA
BRANCH  17  18
HETATM   18  C2  UNL     1      16.012  50.420 -57.846  1.00  0.00     0.369 C 
BRANCH  18  19
HETATM   19  O1  UNL     1      16.323  50.518 -59.221  1.00  0.00    -0.369 OA
HETATM   20  C1  UNL     1      15.482  51.532 -59.712  1.00  0.00     0.204 C 
ENDBRANCH  18  19
ENDBRANCH  17  18
ENDBRANCH  15  17
ENDBRANCH   1  15
BRANCH  12  21
HETATM   21  S1  UNL     1      13.661  48.575 -51.807  1.00  0.00    -0.114 SA
HETATM   22  C10 UNL     1      12.961  50.226 -51.759  1.00  0.00     0.097 C 
ENDBRANCH  12  21
BRANCH   5  23
HETATM   23  N3  UNL     1      19.354  47.713 -54.382  1.00  0.00    -0.290 N 
ATOM     24  H3  UNL     1      19.054  47.858 -55.346  1.00  0.00     0.188 HD
BRANCH  23  25
HETATM   25  N4  UNL     1      20.691  47.397 -54.113  1.00  0.00    -0.344 N 
ATOM     26  H42 UNL     1      21.420  48.011 -54.475  1.00  0.00     0.176 HD
ATOM     27  H41 UNL     1      20.932  46.570 -53.568  1.00  0.00     0.176 HD
ENDBRANCH  23  25
ENDBRANCH   5  23
BRANCH   8  28
HETATM   28  N6  UNL     1      18.310  47.733 -49.920  1.00  0.00    -0.234 N 
ATOM     29  H62 UNL     1      18.961  48.436 -49.571  1.00  0.00     0.174 HD
ATOM     30  H61 UNL     1      17.949  46.965 -49.355  1.00  0.00     0.174 HD
ENDBRANCH   8  28
TORSDOF 8
ENDMDL
