MODEL 1
REMARK VINA RESULT: -6.857476352      0.000      0.000
REMARK  8 active torsions:
REMARK  status: ('A' for Active; 'I' for Inactive)
REMARK    1  A    between atoms: C3_3  and  S1_4 
REMARK    2  A    between atoms: S1_4  and  C4_5 
REMARK    3  A    between atoms: C4_5  and  N1_6 
REMARK    4  A    between atoms: N1_6  and  C5_8 
REMARK    5  A    between atoms: C7_12  and  C8_13 
REMARK    6  A    between atoms: C8_13  and  N3_14 
REMARK    7  A    between atoms: C8_13  and  O1_18 
REMARK    8  A    between atoms: C11_27  and  N7_28 
ROOT
HETATM    1  C1  UNL     1      16.510  48.672 -45.163  1.00  0.00     0.013 C 
HETATM    2  C2  UNL     1      15.636  48.800 -45.985  1.00  0.00    -0.107 C 
HETATM    3  C3  UNL     1      14.547  48.945 -46.978  1.00  0.00     0.168 C 
ENDROOT
BRANCH   3   4
HETATM    4  S1  UNL     1      14.879  47.844 -48.373  1.00  0.00    -0.137 SA
BRANCH   4   5
HETATM    5  C4  UNL     1      15.760  48.774 -49.672  1.00  0.00     0.213 C 
BRANCH   5   6
HETATM    6  N1  UNL     1      16.650  47.898 -50.327  1.00  0.00    -0.217 N 
ATOM      7  H1  UNL     1      17.254  47.359 -49.708  1.00  0.00     0.178 HD
BRANCH   6   8
HETATM    8  C5  UNL     1      16.818  47.671 -51.569  1.00  0.00     0.694 C 
HETATM    9  N2  UNL     1      15.688  47.663 -52.331  1.00  0.00    -0.185 N 
HETATM   10  C6  UNL     1      15.553  47.969 -53.655  1.00  0.00     0.123 A 
ATOM     11  H2  UNL     1      14.830  47.393 -51.850  1.00  0.00     0.184 HD
HETATM   12  C7  UNL     1      14.340  47.989 -54.320  1.00  0.00     0.112 A 
HETATM   13  C10 UNL     1      16.555  48.300 -54.546  1.00  0.00     0.167 A 
HETATM   14  N4  UNL     1      14.634  48.329 -55.581  1.00  0.00    -0.295 N 
HETATM   15  N5  UNL     1      15.940  48.514 -55.720  1.00  0.00    -0.278 N 
ATOM     16  H4  UNL     1      13.950  48.432 -56.331  1.00  0.00     0.187 HD
HETATM   17  C9  UNL     1      16.602  48.887 -56.940  1.00  0.00     0.179 C 
HETATM   18  N6  UNL     1      17.896  48.398 -54.310  1.00  0.00    -0.173 N 
HETATM   19  C11 UNL     1      18.540  47.839 -53.266  1.00  0.00     0.692 C 
ATOM     20  H6  UNL     1      18.453  48.936 -54.974  1.00  0.00     0.186 HD
HETATM   21  N8  UNL     1      18.045  47.456 -52.068  1.00  0.00    -0.023 N 
ATOM     22  H8  UNL     1      18.686  46.938 -51.467  1.00  0.00     0.203 HD
BRANCH  12  23
HETATM   23  C8  UNL     1      13.065  47.680 -53.661  1.00  0.00     0.371 C 
BRANCH  23  24
HETATM   24  N3  UNL     1      12.683  48.665 -52.670  1.00  0.00    -0.047 N 
ATOM     25  H33 UNL     1      13.089  48.442 -51.761  1.00  0.00     0.277 HD
ATOM     26  H32 UNL     1      13.146  49.557 -52.847  1.00  0.00     0.277 HD
ATOM     27  H31 UNL     1      11.673  48.789 -52.596  1.00  0.00     0.277 HD
ENDBRANCH  23  24
BRANCH  23  28
HETATM   28  O1  UNL     1      13.030  46.398 -53.123  1.00  0.00    -0.365 OA
ATOM     29  H1  UNL     1      12.158  46.021 -53.123  1.00  0.00     0.212 HD
ENDBRANCH  23  28
ENDBRANCH  12  23
BRANCH  19  30
HETATM   30  N7  UNL     1      19.797  47.655 -53.468  1.00  0.00    -0.234 N 
ATOM     31  H72 UNL     1      20.067  46.820 -53.987  1.00  0.00     0.174 HD
ATOM     32  H71 UNL     1      20.389  48.387 -53.075  1.00  0.00     0.174 HD
ENDBRANCH  19  30
ENDBRANCH   6   8
ENDBRANCH   5   6
ENDBRANCH   4   5
ENDBRANCH   3   4
TORSDOF 8
ENDMDL
MODEL 2
REMARK VINA RESULT: -6.839083592      4.543      7.476
REMARK  8 active torsions:
REMARK  status: ('A' for Active; 'I' for Inactive)
REMARK    1  A    between atoms: C3_3  and  S1_4 
REMARK    2  A    between atoms: S1_4  and  C4_5 
REMARK    3  A    between atoms: C4_5  and  N1_6 
REMARK    4  A    between atoms: N1_6  and  C5_8 
REMARK    5  A    between atoms: C7_12  and  C8_13 
REMARK    6  A    between atoms: C8_13  and  N3_14 
REMARK    7  A    between atoms: C8_13  and  O1_18 
REMARK    8  A    between atoms: C11_27  and  N7_28 
ROOT
HETATM    1  C1  UNL     1      11.916  55.786 -53.282  1.00  0.00     0.013 C 
HETATM    2  C2  UNL     1      12.459  55.004 -52.540  1.00  0.00    -0.107 C 
HETATM    3  C3  UNL     1      13.138  54.035 -51.649  1.00  0.00     0.168 C 
ENDROOT
BRANCH   3   4
HETATM    4  S1  UNL     1      11.951  52.765 -51.154  1.00  0.00    -0.137 SA
BRANCH   4   5
HETATM    5  C4  UNL     1      11.742  52.816 -49.343  1.00  0.00     0.213 C 
BRANCH   5   6
HETATM    6  N1  UNL     1      11.236  51.572 -48.914  1.00  0.00    -0.217 N 
ATOM      7  H1  UNL     1      10.235  51.444 -49.057  1.00  0.00     0.178 HD
BRANCH   6   8
HETATM    8  C5  UNL     1      11.830  50.582 -48.377  1.00  0.00     0.694 C 
HETATM    9  N2  UNL     1      12.630  49.848 -49.202  1.00  0.00    -0.185 N 
HETATM   10  C6  UNL     1      13.740  49.120 -48.884  1.00  0.00     0.123 A 
ATOM     11  H2  UNL     1      12.365  49.843 -50.187  1.00  0.00     0.184 HD
HETATM   12  C7  UNL     1      14.520  48.459 -49.815  1.00  0.00     0.112 A 
HETATM   13  C10 UNL     1      14.274  48.910 -47.627  1.00  0.00     0.167 A 
HETATM   14  N4  UNL     1      15.495  47.874 -49.109  1.00  0.00    -0.295 N 
HETATM   15  N5  UNL     1      15.355  48.137 -47.817  1.00  0.00    -0.278 N 
ATOM     16  H4  UNL     1      16.242  47.305 -49.508  1.00  0.00     0.187 HD
HETATM   17  C9  UNL     1      16.225  47.667 -46.773  1.00  0.00     0.179 C 
HETATM   18  N6  UNL     1      13.820  49.378 -46.428  1.00  0.00    -0.173 N 
HETATM   19  C11 UNL     1      12.569  49.825 -46.196  1.00  0.00     0.692 C 
ATOM     20  H6  UNL     1      14.477  49.391 -45.648  1.00  0.00     0.186 HD
HETATM   21  N8  UNL     1      11.660  50.302 -47.075  1.00  0.00    -0.023 N 
ATOM     22  H8  UNL     1      10.725  50.470 -46.703  1.00  0.00     0.203 HD
BRANCH  12  23
HETATM   23  C8  UNL     1      14.228  48.476 -51.255  1.00  0.00     0.371 C 
BRANCH  23  24
HETATM   24  N3  UNL     1      14.759  49.643 -51.930  1.00  0.00    -0.047 N 
ATOM     25  H33 UNL     1      14.112  49.975 -52.645  1.00  0.00     0.277 HD
ATOM     26  H32 UNL     1      14.756  50.454 -51.310  1.00  0.00     0.277 HD
ATOM     27  H31 UNL     1      15.688  49.491 -52.323  1.00  0.00     0.277 HD
ENDBRANCH  23  24
BRANCH  23  28
HETATM   28  O1  UNL     1      12.876  48.316 -51.535  1.00  0.00    -0.365 OA
ATOM     29  H1  UNL     1      12.413  49.143 -51.608  1.00  0.00     0.212 HD
ENDBRANCH  23  28
ENDBRANCH  12  23
BRANCH  19  30
HETATM   30  N7  UNL     1      12.220  49.778 -44.960  1.00  0.00    -0.234 N 
ATOM     31  H72 UNL     1      12.301  48.878 -44.487  1.00  0.00     0.174 HD
ATOM     32  H71 UNL     1      11.896  50.671 -44.587  1.00  0.00     0.174 HD
ENDBRANCH  19  30
ENDBRANCH   6   8
ENDBRANCH   5   6
ENDBRANCH   4   5
ENDBRANCH   3   4
TORSDOF 8
ENDMDL
MODEL 3
REMARK VINA RESULT: -6.672711000      5.849      8.051
REMARK  8 active torsions:
REMARK  status: ('A' for Active; 'I' for Inactive)
REMARK    1  A    between atoms: C3_3  and  S1_4 
REMARK    2  A    between atoms: S1_4  and  C4_5 
REMARK    3  A    between atoms: C4_5  and  N1_6 
REMARK    4  A    between atoms: N1_6  and  C5_8 
REMARK    5  A    between atoms: C7_12  and  C8_13 
REMARK    6  A    between atoms: C8_13  and  N3_14 
REMARK    7  A    between atoms: C8_13  and  O1_18 
REMARK    8  A    between atoms: C11_27  and  N7_28 
ROOT
HETATM    1  C1  UNL     1       9.406  58.405 -53.073  1.00  0.00     0.013 C 
HETATM    2  C2  UNL     1      10.504  57.954 -52.857  1.00  0.00    -0.107 C 
HETATM    3  C3  UNL     1      11.861  57.416 -52.608  1.00  0.00     0.168 C 
ENDROOT
BRANCH   3   4
HETATM    4  S1  UNL     1      11.978  55.766 -53.337  1.00  0.00    -0.137 SA
BRANCH   4   5
HETATM    5  C4  UNL     1      12.849  54.660 -52.177  1.00  0.00     0.213 C 
BRANCH   5   6
HETATM    6  N1  UNL     1      12.331  53.357 -52.324  1.00  0.00    -0.217 N 
ATOM      7  H1  UNL     1      12.117  53.088 -53.284  1.00  0.00     0.178 HD
BRANCH   6   8
HETATM    8  C5  UNL     1      12.089  52.463 -51.451  1.00  0.00     0.694 C 
HETATM    9  N2  UNL     1      12.485  51.197 -51.769  1.00  0.00    -0.185 N 
HETATM   10  C6  UNL     1      12.848  50.184 -50.929  1.00  0.00     0.123 A 
ATOM     11  H2  UNL     1      12.515  50.979 -52.765  1.00  0.00     0.184 HD
HETATM   12  C7  UNL     1      13.298  48.949 -51.362  1.00  0.00     0.112 A 
HETATM   13  C10 UNL     1      12.837  50.194 -49.548  1.00  0.00     0.167 A 
HETATM   14  N4  UNL     1      13.545  48.252 -50.247  1.00  0.00    -0.295 N 
HETATM   15  N5  UNL     1      13.275  48.982 -49.173  1.00  0.00    -0.278 N 
ATOM     16  H4  UNL     1      13.892  47.293 -50.225  1.00  0.00     0.187 HD
HETATM   17  C9  UNL     1      13.426  48.546 -47.811  1.00  0.00     0.179 C 
HETATM   18  N6  UNL     1      12.465  51.209 -48.715  1.00  0.00    -0.173 N 
HETATM   19  C11 UNL     1      11.695  52.258 -49.069  1.00  0.00     0.692 C 
ATOM     20  H6  UNL     1      12.794  51.171 -47.750  1.00  0.00     0.186 HD
HETATM   21  N8  UNL     1      11.478  52.776 -50.298  1.00  0.00    -0.023 N 
ATOM     22  H8  UNL     1      10.759  53.496 -50.356  1.00  0.00     0.203 HD
BRANCH  12  23
HETATM   23  C8  UNL     1      13.429  48.603 -52.783  1.00  0.00     0.371 C 
BRANCH  23  24
HETATM   24  N3  UNL     1      13.362  47.177 -53.030  1.00  0.00    -0.047 N 
ATOM     25  H33 UNL     1      14.093  46.684 -52.516  1.00  0.00     0.277 HD
ATOM     26  H32 UNL     1      12.539  46.769 -52.585  1.00  0.00     0.277 HD
ATOM     27  H31 UNL     1      13.394  46.940 -54.022  1.00  0.00     0.277 HD
ENDBRANCH  23  24
BRANCH  23  28
HETATM   28  O1  UNL     1      14.562  49.154 -53.372  1.00  0.00    -0.365 OA
ATOM     29  H1  UNL     1      14.708  48.840 -54.257  1.00  0.00     0.212 HD
ENDBRANCH  23  28
ENDBRANCH  12  23
BRANCH  19  30
HETATM   30  N7  UNL     1      11.097  52.822 -48.080  1.00  0.00    -0.234 N 
ATOM     31  H72 UNL     1      11.048  52.299 -47.206  1.00  0.00     0.174 HD
ATOM     32  H71 UNL     1      10.733  53.751 -48.293  1.00  0.00     0.174 HD
ENDBRANCH  19  30
ENDBRANCH   6   8
ENDBRANCH   5   6
ENDBRANCH   4   5
ENDBRANCH   3   4
TORSDOF 8
ENDMDL
MODEL 4
REMARK VINA RESULT: -6.634813142      3.303      7.597
REMARK  8 active torsions:
REMARK  status: ('A' for Active; 'I' for Inactive)
REMARK    1  A    between atoms: C3_3  and  S1_4 
REMARK    2  A    between atoms: S1_4  and  C4_5 
REMARK    3  A    between atoms: C4_5  and  N1_6 
REMARK    4  A    between atoms: N1_6  and  C5_8 
REMARK    5  A    between atoms: C7_12  and  C8_13 
REMARK    6  A    between atoms: C8_13  and  N3_14 
REMARK    7  A    between atoms: C8_13  and  O1_18 
REMARK    8  A    between atoms: C11_27  and  N7_28 
ROOT
HETATM    1  C1  UNL     1      16.172  51.709 -61.005  1.00  0.00     0.013 C 
HETATM    2  C2  UNL     1      15.624  51.695 -59.930  1.00  0.00    -0.107 C 
HETATM    3  C3  UNL     1      14.953  51.703 -58.610  1.00  0.00     0.168 C 
ENDROOT
BRANCH   3   4
HETATM    4  S1  UNL     1      16.104  51.072 -57.367  1.00  0.00    -0.137 SA
BRANCH   4   5
HETATM    5  C4  UNL     1      16.295  49.272 -57.588  1.00  0.00     0.213 C 
BRANCH   5   6
HETATM    6  N1  UNL     1      15.363  48.616 -56.757  1.00  0.00    -0.217 N 
ATOM      7  H1  UNL     1      14.455  48.442 -57.187  1.00  0.00     0.178 HD
BRANCH   6   8
HETATM    8  C5  UNL     1      15.474  48.206 -55.557  1.00  0.00     0.694 C 
HETATM    9  N2  UNL     1      16.747  48.104 -55.079  1.00  0.00    -0.185 N 
HETATM   10  C6  UNL     1      17.182  48.213 -53.789  1.00  0.00     0.123 A 
ATOM     11  H2  UNL     1      17.470  47.923 -55.776  1.00  0.00     0.184 HD
HETATM   12  C7  UNL     1      18.514  48.155 -53.419  1.00  0.00     0.112 A 
HETATM   13  C10 UNL     1      16.413  48.393 -52.657  1.00  0.00     0.167 A 
HETATM   14  N4  UNL     1      18.517  48.301 -52.088  1.00  0.00    -0.295 N 
HETATM   15  N5  UNL     1      17.280  48.441 -51.633  1.00  0.00    -0.278 N 
ATOM     16  H4  UNL     1      19.354  48.303 -51.505  1.00  0.00     0.187 HD
HETATM   17  C9  UNL     1      16.916  48.619 -50.253  1.00  0.00     0.179 C 
HETATM   18  N6  UNL     1      15.055  48.502 -52.568  1.00  0.00    -0.173 N 
HETATM   19  C11 UNL     1      14.182  48.092 -53.510  1.00  0.00     0.692 C 
ATOM     20  H6  UNL     1      14.671  48.927 -51.723  1.00  0.00     0.186 HD
HETATM   21  N8  UNL     1      14.388  47.899 -54.832  1.00  0.00    -0.023 N 
ATOM     22  H8  UNL     1      13.620  47.464 -55.343  1.00  0.00     0.203 HD
BRANCH  12  23
HETATM   23  C8  UNL     1      19.603  47.969 -54.386  1.00  0.00     0.371 C 
BRANCH  23  24
HETATM   24  N3  UNL     1      20.917  48.014 -53.779  1.00  0.00    -0.047 N 
ATOM     25  H33 UNL     1      20.846  48.117 -52.767  1.00  0.00     0.277 HD
ATOM     26  H32 UNL     1      21.370  47.101 -53.824  1.00  0.00     0.277 HD
ATOM     27  H31 UNL     1      21.518  48.736 -54.176  1.00  0.00     0.277 HD
ENDBRANCH  23  24
BRANCH  23  28
HETATM   28  O1  UNL     1      19.525  48.844 -55.464  1.00  0.00    -0.365 OA
ATOM     29  H1  UNL     1      20.148  49.559 -55.404  1.00  0.00     0.212 HD
ENDBRANCH  23  28
ENDBRANCH  12  23
BRANCH  19  30
HETATM   30  N7  UNL     1      13.001  47.859 -53.060  1.00  0.00    -0.234 N 
ATOM     31  H72 UNL     1      12.916  47.634 -52.069  1.00  0.00     0.174 HD
ATOM     32  H71 UNL     1      12.268  47.931 -53.767  1.00  0.00     0.174 HD
ENDBRANCH  19  30
ENDBRANCH   6   8
ENDBRANCH   5   6
ENDBRANCH   4   5
ENDBRANCH   3   4
TORSDOF 8
ENDMDL
MODEL 5
REMARK VINA RESULT: -6.614866854      3.294      7.567
REMARK  8 active torsions:
REMARK  status: ('A' for Active; 'I' for Inactive)
REMARK    1  A    between atoms: C3_3  and  S1_4 
REMARK    2  A    between atoms: S1_4  and  C4_5 
REMARK    3  A    between atoms: C4_5  and  N1_6 
REMARK    4  A    between atoms: N1_6  and  C5_8 
REMARK    5  A    between atoms: C7_12  and  C8_13 
REMARK    6  A    between atoms: C8_13  and  N3_14 
REMARK    7  A    between atoms: C8_13  and  O1_18 
REMARK    8  A    between atoms: C11_27  and  N7_28 
ROOT
HETATM    1  C1  UNL     1      16.041  51.686 -60.855  1.00  0.00     0.013 C 
HETATM    2  C2  UNL     1      15.570  51.661 -59.744  1.00  0.00    -0.107 C 
HETATM    3  C3  UNL     1      14.994  51.655 -58.380  1.00  0.00     0.168 C 
ENDROOT
BRANCH   3   4
HETATM    4  S1  UNL     1      16.217  50.979 -57.233  1.00  0.00    -0.137 SA
BRANCH   4   5
HETATM    5  C4  UNL     1      16.728  49.326 -57.811  1.00  0.00     0.213 C 
BRANCH   5   6
HETATM    6  N1  UNL     1      17.433  48.685 -56.771  1.00  0.00    -0.217 N 
ATOM      7  H1  UNL     1      18.433  48.577 -56.935  1.00  0.00     0.178 HD
BRANCH   6   8
HETATM    8  C5  UNL     1      17.019  48.219 -55.661  1.00  0.00     0.694 C 
HETATM    9  N2  UNL     1      17.964  48.067 -54.690  1.00  0.00    -0.185 N 
HETATM   10  C6  UNL     1      17.805  48.109 -53.335  1.00  0.00     0.123 A 
ATOM     11  H2  UNL     1      18.915  47.901 -55.019  1.00  0.00     0.184 HD
HETATM   12  C7  UNL     1      18.850  48.004 -52.434  1.00  0.00     0.112 A 
HETATM   13  C10 UNL     1      16.625  48.254 -52.632  1.00  0.00     0.167 A 
HETATM   14  N4  UNL     1      18.284  48.090 -51.224  1.00  0.00    -0.295 N 
HETATM   15  N5  UNL     1      16.971  48.238 -51.335  1.00  0.00    -0.278 N 
ATOM     16  H4  UNL     1      18.790  48.047 -50.340  1.00  0.00     0.187 HD
HETATM   17  C9  UNL     1      16.051  48.362 -50.236  1.00  0.00     0.179 C 
HETATM   18  N6  UNL     1      15.360  48.391 -53.127  1.00  0.00    -0.173 N 
HETATM   19  C11 UNL     1      14.975  48.043 -54.371  1.00  0.00     0.692 C 
ATOM     20  H6  UNL     1      14.652  48.785 -52.507  1.00  0.00     0.186 HD
HETATM   21  N8  UNL     1      15.726  47.904 -55.486  1.00  0.00    -0.023 N 
ATOM     22  H8  UNL     1      15.250  47.511 -56.297  1.00  0.00     0.203 HD
BRANCH  12  23
HETATM   23  C8  UNL     1      20.248  47.837 -52.851  1.00  0.00     0.371 C 
BRANCH  23  24
HETATM   24  N3  UNL     1      20.906  49.092 -53.155  1.00  0.00    -0.047 N 
ATOM     25  H33 UNL     1      20.257  49.873 -53.062  1.00  0.00     0.277 HD
ATOM     26  H32 UNL     1      21.573  49.339 -52.424  1.00  0.00     0.277 HD
ATOM     27  H31 UNL     1      21.353  49.098 -54.071  1.00  0.00     0.277 HD
ENDBRANCH  23  24
BRANCH  23  28
HETATM   28  O1  UNL     1      20.396  46.935 -53.898  1.00  0.00    -0.365 OA
ATOM     29  H1  UNL     1      20.472  47.360 -54.744  1.00  0.00     0.212 HD
ENDBRANCH  23  28
ENDBRANCH  12  23
BRANCH  19  30
HETATM   30  N7  UNL     1      13.714  47.817 -54.482  1.00  0.00    -0.234 N 
ATOM     31  H72 UNL     1      13.329  47.048 -53.933  1.00  0.00     0.174 HD
ATOM     32  H71 UNL     1      13.235  48.451 -55.121  1.00  0.00     0.174 HD
ENDBRANCH  19  30
ENDBRANCH   6   8
ENDBRANCH   5   6
ENDBRANCH   4   5
ENDBRANCH   3   4
TORSDOF 8
ENDMDL
