MODEL 1
REMARK VINA RESULT: -7.424166132      0.000      0.000
REMARK  9 active torsions:
REMARK  status: ('A' for Active; 'I' for Inactive)
REMARK    1  A    between atoms: S1_2  and  C2_3 
REMARK    2  A    between atoms: C3_6  and  N2_7 
REMARK    3  A    between atoms: N2_7  and  C4_9 
REMARK    4  A    between atoms: C4_9  and  C5_10 
REMARK    5  A    between atoms: C4_9  and  S3_24 
REMARK    6  A    between atoms: C5_10  and  S2_11 
REMARK    7  A    between atoms: S2_11  and  C6_12 
REMARK    8  A    between atoms: C13_30  and  N8_31 
REMARK    9  A    between atoms: N8_31  and  N9_33 
ROOT
HETATM    1  N2  UNL     1      35.877  55.465  16.900  1.00  0.00    -0.212 N 
ATOM      2  H2  UNL     1      35.385  55.528  16.009  1.00  0.00     0.179 HD
ENDROOT
BRANCH   1   3
HETATM    3  C3  UNL     1      35.636  56.276  17.866  1.00  0.00     0.685 C 
HETATM    4  N1  UNL     1      36.653  56.983  18.417  1.00  0.00    -0.170 N 
HETATM    5  C2  UNL     1      36.624  57.777  19.523  1.00  0.00     0.160 C 
ATOM      6  H1  UNL     1      37.554  56.911  17.944  1.00  0.00     0.186 HD
HETATM    7  N10 UNL     1      35.670  57.739  20.471  1.00  0.00    -0.317 N 
HETATM    8  C13 UNL     1      34.435  57.207  20.466  1.00  0.00     0.191 C 
ATOM      9  H10 UNL     1      35.928  58.194  21.347  1.00  0.00     0.169 HD
HETATM   10  C12 UNL     1      33.764  56.646  19.378  1.00  0.00     0.307 C 
HETATM   11  N7  UNL     1      34.333  56.303  18.203  1.00  0.00    -0.149 N 
HETATM   12  O1  UNL     1      32.546  56.451  19.520  1.00  0.00    -0.263 OA
HETATM   13  C11 UNL     1      33.437  55.911  17.148  1.00  0.00     0.179 C 
BRANCH   5  14
HETATM   14  S1  UNL     1      37.955  58.951  19.716  1.00  0.00    -0.098 SA
HETATM   15  C1  UNL     1      39.216  58.563  18.460  1.00  0.00     0.099 C 
ENDBRANCH   5  14
BRANCH   8  16
HETATM   16  N8  UNL     1      33.777  57.199  21.572  1.00  0.00    -0.287 N 
ATOM     17  H8  UNL     1      33.532  58.107  21.965  1.00  0.00     0.188 HD
BRANCH  16  18
HETATM   18  N9  UNL     1      33.373  56.096  22.275  1.00  0.00    -0.343 N 
ATOM     19  H92 UNL     1      34.114  55.581  22.751  1.00  0.00     0.176 HD
ATOM     20  H91 UNL     1      32.419  55.746  22.366  1.00  0.00     0.176 HD
ENDBRANCH  16  18
ENDBRANCH   8  16
ENDBRANCH   1   3
BRANCH   1  21
HETATM   21  C4  UNL     1      36.903  54.437  17.147  1.00  0.00     0.170 C 
BRANCH  21  22
HETATM   22  C5  UNL     1      38.146  54.714  16.362  1.00  0.00     0.119 C 
BRANCH  22  23
HETATM   23  S2  UNL     1      37.779  55.654  14.889  1.00  0.00    -0.091 SA
BRANCH  23  24
HETATM   24  C6  UNL     1      38.017  54.756  13.371  1.00  0.00     0.147 A 
HETATM   25  N3  UNL     1      38.788  55.296  12.376  1.00  0.00    -0.323 N 
HETATM   26  C7  UNL     1      39.003  54.627  11.238  1.00  0.00     0.103 A 
ATOM     27  H3  UNL     1      39.203  56.219  12.504  1.00  0.00     0.169 HD
HETATM   28  N4  UNL     1      39.728  55.109  10.273  1.00  0.00    -0.385 N 
HETATM   29  C8  UNL     1      38.455  53.387  11.046  1.00  0.00     0.093 A 
ATOM     30  H42 UNL     1      40.136  56.034  10.416  1.00  0.00     0.157 HD
ATOM     31  H41 UNL     1      39.893  54.599   9.405  1.00  0.00     0.157 HD
HETATM   32  C9  UNL     1      37.687  52.860  12.047  1.00  0.00     0.121 A 
HETATM   33  N5  UNL     1      37.110  51.580  11.869  1.00  0.00    -0.083 NA
HETATM   34  N6  UNL     1      37.480  53.548  13.188  1.00  0.00    -0.325 N 
ATOM     35  H6  UNL     1      36.903  53.139  13.923  1.00  0.00     0.169 HD
ENDBRANCH  23  24
ENDBRANCH  22  23
ENDBRANCH  21  22
BRANCH  21  36
HETATM   36  S3  UNL     1      36.318  52.776  16.962  1.00  0.00    -0.147 SA
HETATM   37  C10 UNL     1      37.065  51.676  18.209  1.00  0.00     0.092 C 
ENDBRANCH  21  36
ENDBRANCH   1  21
TORSDOF 9
ENDMDL
MODEL 2
REMARK VINA RESULT: -7.339578722      0.827      1.743
REMARK  9 active torsions:
REMARK  status: ('A' for Active; 'I' for Inactive)
REMARK    1  A    between atoms: S1_2  and  C2_3 
REMARK    2  A    between atoms: C3_6  and  N2_7 
REMARK    3  A    between atoms: N2_7  and  C4_9 
REMARK    4  A    between atoms: C4_9  and  C5_10 
REMARK    5  A    between atoms: C4_9  and  S3_24 
REMARK    6  A    between atoms: C5_10  and  S2_11 
REMARK    7  A    between atoms: S2_11  and  C6_12 
REMARK    8  A    between atoms: C13_30  and  N8_31 
REMARK    9  A    between atoms: N8_31  and  N9_33 
ROOT
HETATM    1  N2  UNL     1      35.650  55.612  17.091  1.00  0.00    -0.212 N 
ATOM      2  H2  UNL     1      34.909  55.237  16.500  1.00  0.00     0.179 HD
ENDROOT
BRANCH   1   3
HETATM    3  C3  UNL     1      35.393  56.335  18.121  1.00  0.00     0.685 C 
HETATM    4  N1  UNL     1      36.400  56.992  18.748  1.00  0.00    -0.170 N 
HETATM    5  C2  UNL     1      36.352  57.685  19.919  1.00  0.00     0.160 C 
ATOM      6  H1  UNL     1      37.308  56.963  18.284  1.00  0.00     0.186 HD
HETATM    7  N10 UNL     1      35.385  57.563  20.846  1.00  0.00    -0.317 N 
HETATM    8  C13 UNL     1      34.151  57.031  20.776  1.00  0.00     0.191 C 
ATOM      9  H10 UNL     1      35.629  57.939  21.762  1.00  0.00     0.169 HD
HETATM   10  C12 UNL     1      33.498  56.568  19.632  1.00  0.00     0.307 C 
HETATM   11  N7  UNL     1      34.084  56.331  18.440  1.00  0.00    -0.149 N 
HETATM   12  O1  UNL     1      32.278  56.361  19.739  1.00  0.00    -0.263 OA
HETATM   13  C11 UNL     1      33.205  56.033  17.341  1.00  0.00     0.179 C 
BRANCH   5  14
HETATM   14  S1  UNL     1      37.678  58.838  20.234  1.00  0.00    -0.098 SA
HETATM   15  C1  UNL     1      38.735  58.880  18.752  1.00  0.00     0.099 C 
ENDBRANCH   5  14
BRANCH   8  16
HETATM   16  N8  UNL     1      33.478  56.925  21.866  1.00  0.00    -0.287 N 
ATOM     17  H8  UNL     1      33.274  57.792  22.365  1.00  0.00     0.188 HD
BRANCH  16  18
HETATM   18  N9  UNL     1      33.006  55.768  22.427  1.00  0.00    -0.343 N 
ATOM     19  H92 UNL     1      33.004  54.952  21.816  1.00  0.00     0.176 HD
ATOM     20  H91 UNL     1      32.664  55.649  23.380  1.00  0.00     0.176 HD
ENDBRANCH  16  18
ENDBRANCH   8  16
ENDBRANCH   1   3
BRANCH   1  21
HETATM   21  C4  UNL     1      37.072  55.353  16.810  1.00  0.00     0.170 C 
BRANCH  21  22
HETATM   22  C5  UNL     1      37.436  55.781  15.424  1.00  0.00     0.119 C 
BRANCH  22  23
HETATM   23  S2  UNL     1      38.818  54.836  14.803  1.00  0.00    -0.091 SA
BRANCH  23  24
HETATM   24  C6  UNL     1      38.545  54.110  13.201  1.00  0.00     0.147 A 
HETATM   25  N3  UNL     1      37.571  53.159  13.043  1.00  0.00    -0.323 N 
HETATM   26  C7  UNL     1      37.330  52.619  11.844  1.00  0.00     0.103 A 
ATOM     27  H3  UNL     1      37.024  52.859  13.850  1.00  0.00     0.169 HD
HETATM   28  N4  UNL     1      36.415  51.715  11.658  1.00  0.00    -0.385 N 
HETATM   29  C8  UNL     1      38.054  53.008  10.748  1.00  0.00     0.093 A 
ATOM     30  H42 UNL     1      35.876  51.425  12.474  1.00  0.00     0.157 HD
ATOM     31  H41 UNL     1      36.231  51.304  10.742  1.00  0.00     0.157 HD
HETATM   32  C9  UNL     1      39.023  53.957  10.920  1.00  0.00     0.121 A 
HETATM   33  N5  UNL     1      39.783  54.374   9.801  1.00  0.00    -0.083 NA
HETATM   34  N6  UNL     1      39.253  54.490  12.137  1.00  0.00    -0.325 N 
ATOM     35  H6  UNL     1      39.982  55.197  12.245  1.00  0.00     0.169 HD
ENDBRANCH  23  24
ENDBRANCH  22  23
ENDBRANCH  21  22
BRANCH  21  36
HETATM   36  S3  UNL     1      37.592  53.703  17.189  1.00  0.00    -0.147 SA
HETATM   37  C10 UNL     1      36.320  52.489  16.710  1.00  0.00     0.092 C 
ENDBRANCH  21  36
ENDBRANCH   1  21
TORSDOF 9
ENDMDL
MODEL 3
REMARK VINA RESULT: -7.227696816      2.588      4.724
REMARK  9 active torsions:
REMARK  status: ('A' for Active; 'I' for Inactive)
REMARK    1  A    between atoms: S1_2  and  C2_3 
REMARK    2  A    between atoms: C3_6  and  N2_7 
REMARK    3  A    between atoms: N2_7  and  C4_9 
REMARK    4  A    between atoms: C4_9  and  C5_10 
REMARK    5  A    between atoms: C4_9  and  S3_24 
REMARK    6  A    between atoms: C5_10  and  S2_11 
REMARK    7  A    between atoms: S2_11  and  C6_12 
REMARK    8  A    between atoms: C13_30  and  N8_31 
REMARK    9  A    between atoms: N8_31  and  N9_33 
ROOT
HETATM    1  N2  UNL     1      39.342  55.090  15.647  1.00  0.00    -0.212 N 
ATOM      2  H2  UNL     1      40.204  55.509  15.998  1.00  0.00     0.179 HD
ENDROOT
BRANCH   1   3
HETATM    3  C3  UNL     1      38.322  54.906  16.405  1.00  0.00     0.685 C 
HETATM    4  N1  UNL     1      37.705  53.699  16.418  1.00  0.00    -0.170 N 
HETATM    5  C2  UNL     1      36.544  53.354  17.040  1.00  0.00     0.160 C 
ATOM      6  H1  UNL     1      38.170  52.956  15.897  1.00  0.00     0.186 HD
HETATM    7  N10 UNL     1      35.615  54.226  17.472  1.00  0.00    -0.317 N 
HETATM    8  C13 UNL     1      35.677  55.551  17.693  1.00  0.00     0.191 C 
ATOM      9  H10 UNL     1      34.704  53.809  17.665  1.00  0.00     0.169 HD
HETATM   10  C12 UNL     1      36.814  56.361  17.645  1.00  0.00     0.307 C 
HETATM   11  N7  UNL     1      38.002  56.005  17.115  1.00  0.00    -0.149 N 
HETATM   12  O1  UNL     1      36.704  57.497  18.133  1.00  0.00    -0.263 OA
HETATM   13  C11 UNL     1      39.097  56.915  17.329  1.00  0.00     0.179 C 
BRANCH   5  14
HETATM   14  S1  UNL     1      36.245  51.612  17.293  1.00  0.00    -0.098 SA
HETATM   15  C1  UNL     1      37.043  51.139  18.861  1.00  0.00     0.099 C 
ENDBRANCH   5  14
BRANCH   8  16
HETATM   16  N8  UNL     1      34.584  56.166  17.981  1.00  0.00    -0.287 N 
ATOM     17  H8  UNL     1      34.137  56.684  17.225  1.00  0.00     0.188 HD
BRANCH  16  18
HETATM   18  N9  UNL     1      33.960  56.196  19.200  1.00  0.00    -0.343 N 
ATOM     19  H92 UNL     1      33.436  55.357  19.446  1.00  0.00     0.176 HD
ATOM     20  H91 UNL     1      33.969  56.965  19.870  1.00  0.00     0.176 HD
ENDBRANCH  16  18
ENDBRANCH   8  16
ENDBRANCH   1   3
BRANCH   1  21
HETATM   21  C4  UNL     1      39.203  54.664  14.245  1.00  0.00     0.170 C 
BRANCH  21  22
HETATM   22  C5  UNL     1      40.119  53.524  13.931  1.00  0.00     0.119 C 
BRANCH  22  23
HETATM   23  S2  UNL     1      39.221  51.983  13.849  1.00  0.00    -0.091 SA
BRANCH  23  24
HETATM   24  C6  UNL     1      38.439  51.677  12.280  1.00  0.00     0.147 A 
HETATM   25  N3  UNL     1      37.793  50.488  12.063  1.00  0.00    -0.323 N 
HETATM   26  C7  UNL     1      37.176  50.247  10.902  1.00  0.00     0.103 A 
ATOM     27  H3  UNL     1      37.782  49.779  12.796  1.00  0.00     0.169 HD
HETATM   28  N4  UNL     1      36.554  49.131  10.662  1.00  0.00    -0.385 N 
HETATM   29  C8  UNL     1      37.178  51.185   9.904  1.00  0.00     0.093 A 
ATOM     30  H42 UNL     1      36.553  48.432  11.405  1.00  0.00     0.157 HD
ATOM     31  H41 UNL     1      36.083  48.947   9.776  1.00  0.00     0.157 HD
HETATM   32  C9  UNL     1      37.828  52.367  10.133  1.00  0.00     0.121 A 
HETATM   33  N5  UNL     1      37.843  53.351   9.117  1.00  0.00    -0.083 NA
HETATM   34  N6  UNL     1      38.445  52.594  11.311  1.00  0.00    -0.325 N 
ATOM     35  H6  UNL     1      38.926  53.481  11.462  1.00  0.00     0.169 HD
ENDBRANCH  23  24
ENDBRANCH  22  23
ENDBRANCH  21  22
BRANCH  21  36
HETATM   36  S3  UNL     1      39.314  55.989  13.075  1.00  0.00    -0.147 SA
HETATM   37  C10 UNL     1      39.810  55.372  11.433  1.00  0.00     0.092 C 
ENDBRANCH  21  36
ENDBRANCH   1  21
TORSDOF 9
ENDMDL
MODEL 4
REMARK VINA RESULT: -7.227530561      2.829      8.191
REMARK  9 active torsions:
REMARK  status: ('A' for Active; 'I' for Inactive)
REMARK    1  A    between atoms: S1_2  and  C2_3 
REMARK    2  A    between atoms: C3_6  and  N2_7 
REMARK    3  A    between atoms: N2_7  and  C4_9 
REMARK    4  A    between atoms: C4_9  and  C5_10 
REMARK    5  A    between atoms: C4_9  and  S3_24 
REMARK    6  A    between atoms: C5_10  and  S2_11 
REMARK    7  A    between atoms: S2_11  and  C6_12 
REMARK    8  A    between atoms: C13_30  and  N8_31 
REMARK    9  A    between atoms: N8_31  and  N9_33 
ROOT
HETATM    1  N2  UNL     1      38.760  56.154  16.055  1.00  0.00    -0.212 N 
ATOM      2  H2  UNL     1      39.336  56.705  15.419  1.00  0.00     0.179 HD
ENDROOT
BRANCH   1   3
HETATM    3  C3  UNL     1      38.490  54.920  15.825  1.00  0.00     0.685 C 
HETATM    4  N1  UNL     1      38.351  54.060  16.864  1.00  0.00    -0.170 N 
HETATM    5  C2  UNL     1      38.204  52.706  16.822  1.00  0.00     0.160 C 
ATOM      6  H1  UNL     1      38.356  54.479  17.794  1.00  0.00     0.186 HD
HETATM    7  N10 UNL     1      38.513  51.932  15.766  1.00  0.00    -0.317 N 
HETATM    8  C13 UNL     1      38.726  52.238  14.474  1.00  0.00     0.191 C 
ATOM      9  H10 UNL     1      38.599  50.939  15.983  1.00  0.00     0.169 HD
HETATM   10  C12 UNL     1      38.547  53.481  13.862  1.00  0.00     0.307 C 
HETATM   11  N7  UNL     1      38.379  54.652  14.510  1.00  0.00    -0.149 N 
HETATM   12  O1  UNL     1      38.547  53.490  12.621  1.00  0.00    -0.263 OA
HETATM   13  C11 UNL     1      38.028  55.788  13.699  1.00  0.00     0.179 C 
BRANCH   5  14
HETATM   14  S1  UNL     1      37.554  51.914  18.284  1.00  0.00    -0.098 SA
HETATM   15  C1  UNL     1      35.980  51.120  17.826  1.00  0.00     0.099 C 
ENDBRANCH   5  14
BRANCH   8  16
HETATM   16  N8  UNL     1      39.142  51.304  13.694  1.00  0.00    -0.287 N 
ATOM     17  H8  UNL     1      40.101  50.985  13.833  1.00  0.00     0.188 HD
BRANCH  16  18
HETATM   18  N9  UNL     1      38.430  50.694  12.696  1.00  0.00    -0.343 N 
ATOM     19  H92 UNL     1      37.418  50.694  12.815  1.00  0.00     0.176 HD
ATOM     20  H91 UNL     1      38.810  50.248  11.861  1.00  0.00     0.176 HD
ENDBRANCH  16  18
ENDBRANCH   8  16
ENDBRANCH   1   3
BRANCH   1  21
HETATM   21  C4  UNL     1      38.193  56.732  17.285  1.00  0.00     0.170 C 
BRANCH  21  22
HETATM   22  C5  UNL     1      36.823  57.282  17.043  1.00  0.00     0.119 C 
BRANCH  22  23
HETATM   23  S2  UNL     1      35.567  56.141  17.599  1.00  0.00    -0.091 SA
BRANCH  23  24
HETATM   24  C6  UNL     1      34.968  56.460  19.245  1.00  0.00     0.147 A 
HETATM   25  N3  UNL     1      35.764  57.125  20.140  1.00  0.00    -0.323 N 
HETATM   26  C7  UNL     1      35.324  57.400  21.373  1.00  0.00     0.103 A 
ATOM     27  H3  UNL     1      36.702  57.415  19.864  1.00  0.00     0.169 HD
HETATM   28  N4  UNL     1      36.051  58.029  22.248  1.00  0.00    -0.385 N 
HETATM   29  C8  UNL     1      34.068  57.021  21.765  1.00  0.00     0.093 A 
ATOM     30  H42 UNL     1      36.987  58.311  21.956  1.00  0.00     0.157 HD
ATOM     31  H41 UNL     1      35.716  58.239  23.188  1.00  0.00     0.157 HD
HETATM   32  C9  UNL     1      33.285  56.357  20.861  1.00  0.00     0.121 A 
HETATM   33  N5  UNL     1      31.983  55.955  21.245  1.00  0.00    -0.083 NA
HETATM   34  N6  UNL     1      33.744  56.088  19.622  1.00  0.00    -0.325 N 
ATOM     35  H6  UNL     1      33.145  55.590  18.963  1.00  0.00     0.169 HD
ENDBRANCH  23  24
ENDBRANCH  22  23
ENDBRANCH  21  22
BRANCH  21  36
HETATM   36  S3  UNL     1      39.268  57.875  18.106  1.00  0.00    -0.147 SA
HETATM   37  C10 UNL     1      38.319  59.227  18.878  1.00  0.00     0.092 C 
ENDBRANCH  21  36
ENDBRANCH   1  21
TORSDOF 9
ENDMDL
MODEL 5
REMARK VINA RESULT: -7.206287299      1.492      2.322
REMARK  9 active torsions:
REMARK  status: ('A' for Active; 'I' for Inactive)
REMARK    1  A    between atoms: S1_2  and  C2_3 
REMARK    2  A    between atoms: C3_6  and  N2_7 
REMARK    3  A    between atoms: N2_7  and  C4_9 
REMARK    4  A    between atoms: C4_9  and  C5_10 
REMARK    5  A    between atoms: C4_9  and  S3_24 
REMARK    6  A    between atoms: C5_10  and  S2_11 
REMARK    7  A    between atoms: S2_11  and  C6_12 
REMARK    8  A    between atoms: C13_30  and  N8_31 
REMARK    9  A    between atoms: N8_31  and  N9_33 
ROOT
HETATM    1  N2  UNL     1      36.394  55.234  16.314  1.00  0.00    -0.212 N 
ATOM      2  H2  UNL     1      35.587  55.015  15.729  1.00  0.00     0.179 HD
ENDROOT
BRANCH   1   3
HETATM    3  C3  UNL     1      36.327  56.096  17.263  1.00  0.00     0.685 C 
HETATM    4  N1  UNL     1      37.408  56.863  17.549  1.00  0.00    -0.170 N 
HETATM    5  C2  UNL     1      37.578  57.723  18.591  1.00  0.00     0.160 C 
ATOM      6  H1  UNL     1      38.192  56.787  16.902  1.00  0.00     0.186 HD
HETATM    7  N10 UNL     1      36.845  57.717  19.720  1.00  0.00    -0.317 N 
HETATM    8  C13 UNL     1      35.658  57.152  20.004  1.00  0.00     0.191 C 
ATOM      9  H10 UNL     1      37.262  58.232  20.495  1.00  0.00     0.169 HD
HETATM   10  C12 UNL     1      34.798  56.507  19.113  1.00  0.00     0.307 C 
HETATM   11  N7  UNL     1      35.122  56.109  17.865  1.00  0.00    -0.149 N 
HETATM   12  O1  UNL     1      33.645  56.289  19.518  1.00  0.00    -0.263 OA
HETATM   13  C11 UNL     1      34.042  55.629  17.044  1.00  0.00     0.179 C 
BRANCH   5  14
HETATM   14  S1  UNL     1      38.874  58.941  18.436  1.00  0.00    -0.098 SA
HETATM   15  C1  UNL     1      39.566  59.223  20.097  1.00  0.00     0.099 C 
ENDBRANCH   5  14
BRANCH   8  16
HETATM   16  N8  UNL     1      35.246  57.194  21.222  1.00  0.00    -0.287 N 
ATOM     17  H8  UNL     1      35.548  56.436  21.833  1.00  0.00     0.188 HD
BRANCH  16  18
HETATM   18  N9  UNL     1      34.444  58.153  21.781  1.00  0.00    -0.343 N 
ATOM     19  H92 UNL     1      33.943  58.747  21.121  1.00  0.00     0.176 HD
ATOM     20  H91 UNL     1      34.305  58.326  22.776  1.00  0.00     0.176 HD
ENDBRANCH  16  18
ENDBRANCH   8  16
ENDBRANCH   1   3
BRANCH   1  21
HETATM   21  C4  UNL     1      37.696  54.577  16.114  1.00  0.00     0.170 C 
BRANCH  21  22
HETATM   22  C5  UNL     1      38.090  54.584  14.671  1.00  0.00     0.119 C 
BRANCH  22  23
HETATM   23  S2  UNL     1      38.725  52.991  14.172  1.00  0.00    -0.091 SA
BRANCH  23  24
HETATM   24  C6  UNL     1      38.315  52.533  12.502  1.00  0.00     0.147 A 
HETATM   25  N3  UNL     1      37.742  51.313  12.253  1.00  0.00    -0.323 N 
HETATM   26  C7  UNL     1      37.401  50.959  11.010  1.00  0.00     0.103 A 
ATOM     27  H3  UNL     1      37.573  50.669  13.025  1.00  0.00     0.169 HD
HETATM   28  N4  UNL     1      36.856  49.811  10.738  1.00  0.00    -0.385 N 
HETATM   29  C8  UNL     1      37.619  51.809   9.959  1.00  0.00     0.093 A 
ATOM     30  H42 UNL     1      36.694  49.177  11.521  1.00  0.00     0.157 HD
ATOM     31  H41 UNL     1      36.595  49.540   9.790  1.00  0.00     0.157 HD
HETATM   32  C9  UNL     1      38.193  53.023  10.221  1.00  0.00     0.121 A 
HETATM   33  N5  UNL     1      38.428  53.918   9.150  1.00  0.00    -0.083 NA
HETATM   34  N6  UNL     1      38.531  53.364  11.481  1.00  0.00    -0.325 N 
ATOM     35  H6  UNL     1      38.959  54.274  11.657  1.00  0.00     0.169 HD
ENDBRANCH  23  24
ENDBRANCH  22  23
ENDBRANCH  21  22
BRANCH  21  36
HETATM   36  S3  UNL     1      37.817  52.976  16.861  1.00  0.00    -0.147 SA
HETATM   37  C10 UNL     1      36.182  52.177  16.969  1.00  0.00     0.092 C 
ENDBRANCH  21  36
ENDBRANCH   1  21
TORSDOF 9
ENDMDL
