MODEL 1
REMARK VINA RESULT: -6.609610403      0.000      0.000
REMARK  18 active torsions:
REMARK  status: ('A' for Active; 'I' for Inactive)
REMARK    1  A    between atoms: C8_8  and  O1_9 
REMARK    2  A    between atoms: O1_9  and  C9_10 
REMARK    3  A    between atoms: C9_10  and  C10_11 
REMARK    4  A    between atoms: C10_11  and  O2_12 
REMARK    5  A    between atoms: C10_11  and  C11_14 
REMARK    6  A    between atoms: C11_14  and  O3_15 
REMARK    7  A    between atoms: C15_21  and  C16_22 
REMARK    8  A    between atoms: C16_22  and  O4_23 
REMARK    9  A    between atoms: C16_22  and  N1_25 
REMARK   10  A    between atoms: N1_25  and  C17_28 
REMARK   11  A    between atoms: C17_28  and  O5_29 
REMARK   12  A    between atoms: C17_28  and  C18_31 
REMARK   13  A    between atoms: C18_31  and  O6_32 
REMARK   14  A    between atoms: C18_31  and  C19_34 
REMARK   15  A    between atoms: C19_34  and  O7_35 
REMARK   16  A    between atoms: C19_34  and  C20_37 
REMARK   17  A    between atoms: C20_37  and  O8_38 
REMARK   18  A    between atoms: C20_37  and  C21_40 
ROOT
HETATM    1  C1  UNL     1      63.518  18.608  34.083  1.00  0.00     0.048 C 
HETATM    2  C2  UNL     1      64.817  18.027  33.665  1.00  0.00    -0.061 A 
HETATM    3  C3  UNL     1      65.647  17.593  34.670  1.00  0.00     0.007 A 
HETATM    4  C4  UNL     1      66.866  17.050  34.343  1.00  0.00     0.001 A 
HETATM    5  C5  UNL     1      67.220  16.959  33.036  1.00  0.00     0.012 A 
HETATM    6  C6  UNL     1      66.412  17.386  31.974  1.00  0.00    -0.022 A 
HETATM    7  C7  UNL     1      66.911  17.189  30.639  1.00  0.00     0.018 A 
HETATM    8  C8  UNL     1      66.459  16.051  29.914  1.00  0.00     0.082 A 
HETATM    9  C12 UNL     1      66.995  15.814  28.671  1.00  0.00     0.056 A 
HETATM   10  C13 UNL     1      67.946  16.631  28.103  1.00  0.00     0.014 A 
HETATM   11 BR1  UNL     1      68.680  16.269  26.368  1.00  0.00    -0.051 Br
HETATM   12  C14 UNL     1      68.375  17.728  28.807  1.00  0.00     0.031 A 
HETATM   13  C15 UNL     1      67.847  17.993  30.068  1.00  0.00     0.013 A 
HETATM   14  C22 UNL     1      65.204  17.920  32.343  1.00  0.00     0.019 A 
ENDROOT
BRANCH  13  15
HETATM   15  C16 UNL     1      68.251  19.254  30.785  1.00  0.00     0.357 C 
BRANCH  15  16
HETATM   16  O4  UNL     1      67.274  20.240  30.725  1.00  0.00    -0.366 OA
ATOM     17  H4  UNL     1      67.459  20.898  30.066  1.00  0.00     0.212 HD
ENDBRANCH  15  16
BRANCH  15  18
HETATM   18  N1  UNL     1      69.440  19.711  30.054  1.00  0.00    -0.016 N 
ATOM     19  H12 UNL     1      70.223  19.876  30.687  1.00  0.00     0.283 HD
ATOM     20  H11 UNL     1      69.842  18.959  29.495  1.00  0.00     0.283 HD
BRANCH  18  21
HETATM   21  C17 UNL     1      69.156  20.905  29.226  1.00  0.00     0.353 C 
BRANCH  21  22
HETATM   22  O5  UNL     1      69.401  22.041  29.981  1.00  0.00    -0.368 OA
ATOM     23  H5  UNL     1      68.693  22.659  29.842  1.00  0.00     0.212 HD
ENDBRANCH  21  22
BRANCH  21  24
HETATM   24  C18 UNL     1      70.241  20.823  28.156  1.00  0.00     0.205 C 
BRANCH  24  25
HETATM   25  O6  UNL     1      70.443  22.169  27.735  1.00  0.00    -0.389 OA
ATOM     26  H6  UNL     1      70.769  22.100  26.846  1.00  0.00     0.210 HD
ENDBRANCH  24  25
BRANCH  24  27
HETATM   27  C19 UNL     1      71.573  20.344  28.680  1.00  0.00     0.185 C 
BRANCH  27  28
HETATM   28  O7  UNL     1      72.099  19.341  27.895  1.00  0.00    -0.390 OA
ATOM     29  H7  UNL     1      72.473  18.644  28.419  1.00  0.00     0.210 HD
ENDBRANCH  27  28
BRANCH  27  30
HETATM   30  C20 UNL     1      72.480  21.560  28.737  1.00  0.00     0.214 C 
BRANCH  30  31
HETATM   31  O8  UNL     1      73.493  21.451  27.775  1.00  0.00    -0.387 OA
ATOM     32  H8  UNL     1      74.292  21.131  28.177  1.00  0.00     0.210 HD
ENDBRANCH  30  31
BRANCH  30  33
HETATM   33  C21 UNL     1      73.117  21.803  30.069  1.00  0.00     0.384 C 
HETATM   34  F1  UNL     1      73.373  23.108  30.347  1.00  0.00    -0.212 F 
HETATM   35  F2  UNL     1      72.266  21.218  31.019  1.00  0.00    -0.212 F 
ENDBRANCH  30  33
ENDBRANCH  27  30
ENDBRANCH  24  27
ENDBRANCH  21  24
ENDBRANCH  18  21
ENDBRANCH  15  18
ENDBRANCH  13  15
BRANCH   8  36
HETATM   36  O1  UNL     1      65.550  15.301  30.495  1.00  0.00    -0.348 OA
BRANCH  36  37
HETATM   37  C9  UNL     1      65.134  14.095  30.889  1.00  0.00     0.209 C 
BRANCH  37  38
HETATM   38  C10 UNL     1      65.320  13.650  32.306  1.00  0.00     0.166 C 
BRANCH  38  39
HETATM   39  O2  UNL     1      66.679  13.606  32.683  1.00  0.00    -0.391 OA
ATOM     40  H2  UNL     1      66.877  14.202  33.395  1.00  0.00     0.210 HD
ENDBRANCH  38  39
BRANCH  38  41
HETATM   41  C11 UNL     1      64.494  14.291  33.357  1.00  0.00     0.198 C 
BRANCH  41  42
HETATM   42  O3  UNL     1      63.447  14.994  32.755  1.00  0.00    -0.398 OA
ATOM     43  H3  UNL     1      63.086  15.612  33.380  1.00  0.00     0.209 HD
ENDBRANCH  41  42
ENDBRANCH  38  41
ENDBRANCH  37  38
ENDBRANCH  36  37
ENDBRANCH   8  36
TORSDOF 18
ENDMDL
MODEL 2
REMARK VINA RESULT: -6.382646551      1.347      1.803
REMARK  18 active torsions:
REMARK  status: ('A' for Active; 'I' for Inactive)
REMARK    1  A    between atoms: C8_8  and  O1_9 
REMARK    2  A    between atoms: O1_9  and  C9_10 
REMARK    3  A    between atoms: C9_10  and  C10_11 
REMARK    4  A    between atoms: C10_11  and  O2_12 
REMARK    5  A    between atoms: C10_11  and  C11_14 
REMARK    6  A    between atoms: C11_14  and  O3_15 
REMARK    7  A    between atoms: C15_21  and  C16_22 
REMARK    8  A    between atoms: C16_22  and  O4_23 
REMARK    9  A    between atoms: C16_22  and  N1_25 
REMARK   10  A    between atoms: N1_25  and  C17_28 
REMARK   11  A    between atoms: C17_28  and  O5_29 
REMARK   12  A    between atoms: C17_28  and  C18_31 
REMARK   13  A    between atoms: C18_31  and  O6_32 
REMARK   14  A    between atoms: C18_31  and  C19_34 
REMARK   15  A    between atoms: C19_34  and  O7_35 
REMARK   16  A    between atoms: C19_34  and  C20_37 
REMARK   17  A    between atoms: C20_37  and  O8_38 
REMARK   18  A    between atoms: C20_37  and  C21_40 
ROOT
HETATM    1  C1  UNL     1      64.859  17.537  34.952  1.00  0.00     0.048 C 
HETATM    2  C2  UNL     1      66.135  17.283  34.239  1.00  0.00    -0.061 A 
HETATM    3  C3  UNL     1      67.243  17.068  35.023  1.00  0.00     0.007 A 
HETATM    4  C4  UNL     1      68.454  16.832  34.418  1.00  0.00     0.001 A 
HETATM    5  C5  UNL     1      68.524  16.819  33.062  1.00  0.00     0.012 A 
HETATM    6  C6  UNL     1      67.427  17.032  32.219  1.00  0.00    -0.022 A 
HETATM    7  C7  UNL     1      67.654  16.951  30.801  1.00  0.00     0.018 A 
HETATM    8  C8  UNL     1      67.336  15.732  30.138  1.00  0.00     0.082 A 
HETATM    9  C12 UNL     1      67.627  15.622  28.800  1.00  0.00     0.056 A 
HETATM   10  C13 UNL     1      68.211  16.639  28.079  1.00  0.00     0.014 A 
HETATM   11 BR1  UNL     1      68.612  16.452  26.212  1.00  0.00    -0.051 Br
HETATM   12  C14 UNL     1      68.512  17.813  28.725  1.00  0.00     0.031 A 
HETATM   13  C15 UNL     1      68.225  17.953  30.079  1.00  0.00     0.013 A 
HETATM   14  C22 UNL     1      66.237  17.263  32.861  1.00  0.00     0.019 A 
ENDROOT
BRANCH  13  15
HETATM   15  C16 UNL     1      68.467  19.279  30.750  1.00  0.00     0.357 C 
BRANCH  15  16
HETATM   16  O4  UNL     1      67.406  20.161  30.589  1.00  0.00    -0.366 OA
ATOM     17  H4  UNL     1      67.002  20.402  31.414  1.00  0.00     0.212 HD
ENDBRANCH  15  16
BRANCH  15  18
HETATM   18  N1  UNL     1      69.647  19.814  30.060  1.00  0.00    -0.016 N 
ATOM     19  H12 UNL     1      70.408  19.995  30.714  1.00  0.00     0.283 HD
ATOM     20  H11 UNL     1      70.095  19.101  29.485  1.00  0.00     0.283 HD
BRANCH  18  21
HETATM   21  C17 UNL     1      69.323  21.021  29.264  1.00  0.00     0.353 C 
BRANCH  21  22
HETATM   22  O5  UNL     1      69.576  22.144  30.035  1.00  0.00    -0.368 OA
ATOM     23  H5  UNL     1      69.762  22.876  29.457  1.00  0.00     0.212 HD
ENDBRANCH  21  22
BRANCH  21  24
HETATM   24  C18 UNL     1      70.375  20.974  28.161  1.00  0.00     0.205 C 
BRANCH  24  25
HETATM   25  O6  UNL     1      70.524  22.326  27.739  1.00  0.00    -0.389 OA
ATOM     26  H6  UNL     1      71.071  22.731  28.402  1.00  0.00     0.210 HD
ENDBRANCH  24  25
BRANCH  24  27
HETATM   27  C19 UNL     1      71.736  20.534  28.641  1.00  0.00     0.185 C 
BRANCH  27  28
HETATM   28  O7  UNL     1      72.247  19.517  27.863  1.00  0.00    -0.390 OA
ATOM     29  H7  UNL     1      72.393  19.800  26.968  1.00  0.00     0.210 HD
ENDBRANCH  27  28
BRANCH  27  30
HETATM   30  C20 UNL     1      72.623  21.766  28.624  1.00  0.00     0.214 C 
BRANCH  30  31
HETATM   31  O8  UNL     1      73.680  21.587  27.721  1.00  0.00    -0.387 OA
ATOM     32  H8  UNL     1      74.435  21.224  28.169  1.00  0.00     0.210 HD
ENDBRANCH  30  31
BRANCH  30  33
HETATM   33  C21 UNL     1      73.196  22.142  29.954  1.00  0.00     0.384 C 
HETATM   34  F1  UNL     1      72.897  23.402  30.365  1.00  0.00    -0.212 F 
HETATM   35  F2  UNL     1      72.746  21.169  30.860  1.00  0.00    -0.212 F 
ENDBRANCH  30  33
ENDBRANCH  27  30
ENDBRANCH  24  27
ENDBRANCH  21  24
ENDBRANCH  18  21
ENDBRANCH  15  18
ENDBRANCH  13  15
BRANCH   8  36
HETATM   36  O1  UNL     1      66.779  14.791  30.865  1.00  0.00    -0.348 OA
BRANCH  36  37
HETATM   37  C9  UNL     1      66.789  13.538  31.328  1.00  0.00     0.209 C 
BRANCH  37  38
HETATM   38  C10 UNL     1      67.888  12.594  30.950  1.00  0.00     0.166 C 
BRANCH  38  39
HETATM   39  O2  UNL     1      67.906  12.316  29.567  1.00  0.00    -0.391 OA
ATOM     40  H2  UNL     1      68.539  12.846  29.098  1.00  0.00     0.210 HD
ENDBRANCH  38  39
BRANCH  38  41
HETATM   41  C11 UNL     1      69.254  12.867  31.458  1.00  0.00     0.198 C 
BRANCH  41  42
HETATM   42  O3  UNL     1      69.166  13.629  32.626  1.00  0.00    -0.398 OA
ATOM     43  H3  UNL     1      69.677  13.212  33.311  1.00  0.00     0.209 HD
ENDBRANCH  41  42
ENDBRANCH  38  41
ENDBRANCH  37  38
ENDBRANCH  36  37
ENDBRANCH   8  36
TORSDOF 18
ENDMDL
MODEL 3
REMARK VINA RESULT: -6.258946356      7.479      9.411
REMARK  18 active torsions:
REMARK  status: ('A' for Active; 'I' for Inactive)
REMARK    1  A    between atoms: C8_8  and  O1_9 
REMARK    2  A    between atoms: O1_9  and  C9_10 
REMARK    3  A    between atoms: C9_10  and  C10_11 
REMARK    4  A    between atoms: C10_11  and  O2_12 
REMARK    5  A    between atoms: C10_11  and  C11_14 
REMARK    6  A    between atoms: C11_14  and  O3_15 
REMARK    7  A    between atoms: C15_21  and  C16_22 
REMARK    8  A    between atoms: C16_22  and  O4_23 
REMARK    9  A    between atoms: C16_22  and  N1_25 
REMARK   10  A    between atoms: N1_25  and  C17_28 
REMARK   11  A    between atoms: C17_28  and  O5_29 
REMARK   12  A    between atoms: C17_28  and  C18_31 
REMARK   13  A    between atoms: C18_31  and  O6_32 
REMARK   14  A    between atoms: C18_31  and  C19_34 
REMARK   15  A    between atoms: C19_34  and  O7_35 
REMARK   16  A    between atoms: C19_34  and  C20_37 
REMARK   17  A    between atoms: C20_37  and  O8_38 
REMARK   18  A    between atoms: C20_37  and  C21_40 
ROOT
HETATM    1  C1  UNL     1      70.789  28.101  33.958  1.00  0.00     0.048 C 
HETATM    2  C2  UNL     1      71.970  27.214  34.091  1.00  0.00    -0.061 A 
HETATM    3  C3  UNL     1      73.198  27.795  33.893  1.00  0.00     0.007 A 
HETATM    4  C4  UNL     1      74.329  27.022  33.998  1.00  0.00     0.001 A 
HETATM    5  C5  UNL     1      74.202  25.702  34.294  1.00  0.00     0.012 A 
HETATM    6  C6  UNL     1      72.974  25.061  34.504  1.00  0.00    -0.022 A 
HETATM    7  C7  UNL     1      73.004  23.665  34.845  1.00  0.00     0.018 A 
HETATM    8  C8  UNL     1      72.899  23.305  36.218  1.00  0.00     0.082 A 
HETATM    9  C12 UNL     1      73.009  21.978  36.556  1.00  0.00     0.056 A 
HETATM   10  C13 UNL     1      73.216  20.987  35.623  1.00  0.00     0.014 A 
HETATM   11 BR1  UNL     1      73.373  19.143  36.127  1.00  0.00    -0.051 Br
HETATM   12  C14 UNL     1      73.314  21.341  34.300  1.00  0.00     0.031 A 
HETATM   13  C15 UNL     1      73.203  22.679  33.929  1.00  0.00     0.013 A 
HETATM   14  C22 UNL     1      71.871  25.869  34.391  1.00  0.00     0.019 A 
ENDROOT
BRANCH  13  15
HETATM   15  C16 UNL     1      73.211  23.040  32.468  1.00  0.00     0.357 C 
BRANCH  15  16
HETATM   16  O4  UNL     1      71.951  23.384  31.995  1.00  0.00    -0.366 OA
ATOM     17  H4  UNL     1      71.785  24.318  32.040  1.00  0.00     0.212 HD
ENDBRANCH  15  16
BRANCH  15  18
HETATM   18  N1  UNL     1      73.656  21.811  31.801  1.00  0.00    -0.016 N 
ATOM     19  H12 UNL     1      74.120  21.181  32.456  1.00  0.00     0.283 HD
ATOM     20  H11 UNL     1      72.865  21.221  31.545  1.00  0.00     0.283 HD
BRANCH  18  21
HETATM   21  C17 UNL     1      74.516  22.096  30.629  1.00  0.00     0.353 C 
BRANCH  21  22
HETATM   22  O5  UNL     1      75.650  21.303  30.704  1.00  0.00    -0.368 OA
ATOM     23  H5  UNL     1      76.253  21.567  30.019  1.00  0.00     0.212 HD
ENDBRANCH  21  22
BRANCH  21  24
HETATM   24  C18 UNL     1      73.668  21.576  29.472  1.00  0.00     0.205 C 
BRANCH  24  25
HETATM   25  O6  UNL     1      72.567  20.917  30.091  1.00  0.00    -0.389 OA
ATOM     26  H6  UNL     1      72.803  19.997  30.092  1.00  0.00     0.210 HD
ENDBRANCH  24  25
BRANCH  24  27
HETATM   27  C19 UNL     1      73.074  22.669  28.618  1.00  0.00     0.185 C 
BRANCH  27  28
HETATM   28  O7  UNL     1      72.123  23.393  29.305  1.00  0.00    -0.390 OA
ATOM     29  H7  UNL     1      72.413  23.608  30.183  1.00  0.00     0.210 HD
ENDBRANCH  27  28
BRANCH  27  30
HETATM   30  C20 UNL     1      74.231  23.539  28.159  1.00  0.00     0.214 C 
BRANCH  30  31
HETATM   31  O8  UNL     1      73.751  24.762  27.670  1.00  0.00    -0.387 OA
ATOM     32  H8  UNL     1      74.471  25.368  27.542  1.00  0.00     0.210 HD
ENDBRANCH  30  31
BRANCH  30  33
HETATM   33  C21 UNL     1      75.100  22.920  27.110  1.00  0.00     0.384 C 
HETATM   34  F1  UNL     1      75.144  23.599  25.934  1.00  0.00    -0.212 F 
HETATM   35  F2  UNL     1      76.372  22.785  27.690  1.00  0.00    -0.212 F 
ENDBRANCH  30  33
ENDBRANCH  27  30
ENDBRANCH  24  27
ENDBRANCH  21  24
ENDBRANCH  18  21
ENDBRANCH  15  18
ENDBRANCH  13  15
BRANCH   8  36
HETATM   36  O1  UNL     1      72.700  24.283  37.072  1.00  0.00    -0.348 OA
BRANCH  36  37
HETATM   37  C9  UNL     1      71.907  24.895  37.956  1.00  0.00     0.209 C 
BRANCH  37  38
HETATM   38  C10 UNL     1      70.449  24.564  38.029  1.00  0.00     0.166 C 
BRANCH  38  39
HETATM   39  O2  UNL     1      69.957  24.589  39.352  1.00  0.00    -0.391 OA
ATOM     40  H2  UNL     1      69.116  25.026  39.417  1.00  0.00     0.210 HD
ENDBRANCH  38  39
BRANCH  38  41
HETATM   41  C11 UNL     1      69.524  25.258  37.101  1.00  0.00     0.198 C 
BRANCH  41  42
HETATM   42  O3  UNL     1      68.872  24.311  36.308  1.00  0.00    -0.398 OA
ATOM     43  H3  UNL     1      68.558  24.730  35.515  1.00  0.00     0.209 HD
ENDBRANCH  41  42
ENDBRANCH  38  41
ENDBRANCH  37  38
ENDBRANCH  36  37
ENDBRANCH   8  36
TORSDOF 18
ENDMDL
MODEL 4
REMARK VINA RESULT: -5.947243924      5.910      9.589
REMARK  18 active torsions:
REMARK  status: ('A' for Active; 'I' for Inactive)
REMARK    1  A    between atoms: C8_8  and  O1_9 
REMARK    2  A    between atoms: O1_9  and  C9_10 
REMARK    3  A    between atoms: C9_10  and  C10_11 
REMARK    4  A    between atoms: C10_11  and  O2_12 
REMARK    5  A    between atoms: C10_11  and  C11_14 
REMARK    6  A    between atoms: C11_14  and  O3_15 
REMARK    7  A    between atoms: C15_21  and  C16_22 
REMARK    8  A    between atoms: C16_22  and  O4_23 
REMARK    9  A    between atoms: C16_22  and  N1_25 
REMARK   10  A    between atoms: N1_25  and  C17_28 
REMARK   11  A    between atoms: C17_28  and  O5_29 
REMARK   12  A    between atoms: C17_28  and  C18_31 
REMARK   13  A    between atoms: C18_31  and  O6_32 
REMARK   14  A    between atoms: C18_31  and  C19_34 
REMARK   15  A    between atoms: C19_34  and  O7_35 
REMARK   16  A    between atoms: C19_34  and  C20_37 
REMARK   17  A    between atoms: C20_37  and  O8_38 
REMARK   18  A    between atoms: C20_37  and  C21_40 
ROOT
HETATM    1  C1  UNL     1      70.188  28.968  33.902  1.00  0.00     0.048 C 
HETATM    2  C2  UNL     1      71.428  28.157  33.956  1.00  0.00    -0.061 A 
HETATM    3  C3  UNL     1      72.610  28.830  33.763  1.00  0.00     0.007 A 
HETATM    4  C4  UNL     1      73.791  28.130  33.798  1.00  0.00     0.001 A 
HETATM    5  C5  UNL     1      73.760  26.790  34.020  1.00  0.00     0.012 A 
HETATM    6  C6  UNL     1      72.584  26.057  34.222  1.00  0.00    -0.022 A 
HETATM    7  C7  UNL     1      72.716  24.649  34.481  1.00  0.00     0.018 A 
HETATM    8  C8  UNL     1      72.671  24.207  35.834  1.00  0.00     0.082 A 
HETATM    9  C12 UNL     1      72.879  22.874  36.092  1.00  0.00     0.056 A 
HETATM   10  C13 UNL     1      73.126  21.953  35.099  1.00  0.00     0.014 A 
HETATM   11 BR1  UNL     1      73.418  20.098  35.493  1.00  0.00    -0.051 Br
HETATM   12  C14 UNL     1      73.164  22.386  33.797  1.00  0.00     0.031 A 
HETATM   13  C15 UNL     1      72.954  23.731  33.506  1.00  0.00     0.013 A 
HETATM   14  C22 UNL     1      71.427  26.793  34.181  1.00  0.00     0.019 A 
ENDROOT
BRANCH  13  15
HETATM   15  C16 UNL     1      72.899  24.173  32.068  1.00  0.00     0.357 C 
BRANCH  15  16
HETATM   16  O4  UNL     1      71.609  24.481  31.653  1.00  0.00    -0.366 OA
ATOM     17  H4  UNL     1      71.594  24.958  30.832  1.00  0.00     0.212 HD
ENDBRANCH  15  16
BRANCH  15  18
HETATM   18  N1  UNL     1      73.379  23.005  31.320  1.00  0.00    -0.016 N 
ATOM     19  H12 UNL     1      74.371  22.838  31.490  1.00  0.00     0.283 HD
ATOM     20  H11 UNL     1      73.002  22.139  31.704  1.00  0.00     0.283 HD
BRANCH  18  21
HETATM   21  C17 UNL     1      73.094  23.120  29.871  1.00  0.00     0.353 C 
BRANCH  21  22
HETATM   22  O5  UNL     1      74.292  23.276  29.192  1.00  0.00    -0.368 OA
ATOM     23  H5  UNL     1      74.324  24.151  28.824  1.00  0.00     0.212 HD
ENDBRANCH  21  22
BRANCH  21  24
HETATM   24  C18 UNL     1      72.553  21.733  29.536  1.00  0.00     0.205 C 
BRANCH  24  25
HETATM   25  O6  UNL     1      73.162  20.864  30.486  1.00  0.00    -0.389 OA
ATOM     26  H6  UNL     1      73.878  20.451  30.016  1.00  0.00     0.210 HD
ENDBRANCH  24  25
BRANCH  24  27
HETATM   27  C19 UNL     1      71.064  21.599  29.740  1.00  0.00     0.185 C 
BRANCH  27  28
HETATM   28  O7  UNL     1      70.438  22.827  29.741  1.00  0.00    -0.390 OA
ATOM     29  H7  UNL     1      70.523  23.264  30.579  1.00  0.00     0.210 HD
ENDBRANCH  27  28
BRANCH  27  30
HETATM   30  C20 UNL     1      70.553  20.698  28.631  1.00  0.00     0.214 C 
BRANCH  30  31
HETATM   31  O8  UNL     1      70.298  21.451  27.477  1.00  0.00    -0.387 OA
ATOM     32  H8  UNL     1      69.368  21.451  27.285  1.00  0.00     0.210 HD
ENDBRANCH  30  31
BRANCH  30  33
HETATM   33  C21 UNL     1      69.318  19.925  28.973  1.00  0.00     0.384 C 
HETATM   34  F1  UNL     1      69.283  18.661  28.475  1.00  0.00    -0.212 F 
HETATM   35  F2  UNL     1      69.223  19.944  30.373  1.00  0.00    -0.212 F 
ENDBRANCH  30  33
ENDBRANCH  27  30
ENDBRANCH  24  27
ENDBRANCH  21  24
ENDBRANCH  18  21
ENDBRANCH  15  18
ENDBRANCH  13  15
BRANCH   8  36
HETATM   36  O1  UNL     1      72.431  25.120  36.747  1.00  0.00    -0.348 OA
BRANCH  36  37
HETATM   37  C9  UNL     1      71.596  25.670  37.632  1.00  0.00     0.209 C 
BRANCH  37  38
HETATM   38  C10 UNL     1      70.202  25.149  37.790  1.00  0.00     0.166 C 
BRANCH  38  39
HETATM   39  O2  UNL     1      69.652  25.453  39.053  1.00  0.00    -0.391 OA
ATOM     40  H2  UNL     1      69.515  24.678  39.585  1.00  0.00     0.210 HD
ENDBRANCH  38  39
BRANCH  38  41
HETATM   41  C11 UNL     1      69.226  25.415  36.705  1.00  0.00     0.198 C 
BRANCH  41  42
HETATM   42  O3  UNL     1      68.726  24.201  36.228  1.00  0.00    -0.398 OA
ATOM     43  H3  UNL     1      69.452  23.644  35.969  1.00  0.00     0.209 HD
ENDBRANCH  41  42
ENDBRANCH  38  41
ENDBRANCH  37  38
ENDBRANCH  36  37
ENDBRANCH   8  36
TORSDOF 18
ENDMDL
MODEL 5
REMARK VINA RESULT: -5.944337824      7.099      8.873
REMARK  18 active torsions:
REMARK  status: ('A' for Active; 'I' for Inactive)
REMARK    1  A    between atoms: C8_8  and  O1_9 
REMARK    2  A    between atoms: O1_9  and  C9_10 
REMARK    3  A    between atoms: C9_10  and  C10_11 
REMARK    4  A    between atoms: C10_11  and  O2_12 
REMARK    5  A    between atoms: C10_11  and  C11_14 
REMARK    6  A    between atoms: C11_14  and  O3_15 
REMARK    7  A    between atoms: C15_21  and  C16_22 
REMARK    8  A    between atoms: C16_22  and  O4_23 
REMARK    9  A    between atoms: C16_22  and  N1_25 
REMARK   10  A    between atoms: N1_25  and  C17_28 
REMARK   11  A    between atoms: C17_28  and  O5_29 
REMARK   12  A    between atoms: C17_28  and  C18_31 
REMARK   13  A    between atoms: C18_31  and  O6_32 
REMARK   14  A    between atoms: C18_31  and  C19_34 
REMARK   15  A    between atoms: C19_34  and  O7_35 
REMARK   16  A    between atoms: C19_34  and  C20_37 
REMARK   17  A    between atoms: C20_37  and  O8_38 
REMARK   18  A    between atoms: C20_37  and  C21_40 
ROOT
HETATM    1  C1  UNL     1      76.113  18.513  37.593  1.00  0.00     0.048 C 
HETATM    2  C2  UNL     1      74.840  19.034  37.037  1.00  0.00    -0.061 A 
HETATM    3  C3  UNL     1      73.827  18.122  36.867  1.00  0.00     0.007 A 
HETATM    4  C4  UNL     1      72.626  18.545  36.352  1.00  0.00     0.001 A 
HETATM    5  C5  UNL     1      72.472  19.853  36.022  1.00  0.00     0.012 A 
HETATM    6  C6  UNL     1      73.472  20.822  36.175  1.00  0.00    -0.022 A 
HETATM    7  C7  UNL     1      73.146  22.175  35.814  1.00  0.00     0.018 A 
HETATM    8  C8  UNL     1      72.765  23.074  36.849  1.00  0.00     0.082 A 
HETATM    9  C12 UNL     1      72.374  24.344  36.500  1.00  0.00     0.056 A 
HETATM   10  C13 UNL     1      72.336  24.779  35.194  1.00  0.00     0.014 A 
HETATM   11 BR1  UNL     1      71.778  26.557  34.739  1.00  0.00    -0.051 Br
HETATM   12  C14 UNL     1      72.707  23.907  34.201  1.00  0.00     0.031 A 
HETATM   13  C15 UNL     1      73.111  22.615  34.527  1.00  0.00     0.013 A 
HETATM   14  C22 UNL     1      74.654  20.359  36.693  1.00  0.00     0.019 A 
ENDROOT
BRANCH  13  15
HETATM   15  C16 UNL     1      73.611  21.704  33.438  1.00  0.00     0.357 C 
BRANCH  15  16
HETATM   16  O4  UNL     1      74.929  21.966  33.084  1.00  0.00    -0.366 OA
ATOM     17  H4  UNL     1      75.000  22.443  32.266  1.00  0.00     0.212 HD
ENDBRANCH  15  16
BRANCH  15  18
HETATM   18  N1  UNL     1      72.738  22.004  32.297  1.00  0.00    -0.016 N 
ATOM     19  H12 UNL     1      71.968  21.338  32.234  1.00  0.00     0.283 HD
ATOM     20  H11 UNL     1      72.201  22.856  32.455  1.00  0.00     0.283 HD
BRANCH  18  21
HETATM   21  C17 UNL     1      73.494  22.073  31.024  1.00  0.00     0.353 C 
BRANCH  21  22
HETATM   22  O5  UNL     1      73.937  20.801  30.699  1.00  0.00    -0.368 OA
ATOM     23  H5  UNL     1      73.653  20.595  29.815  1.00  0.00     0.212 HD
ENDBRANCH  21  22
BRANCH  21  24
HETATM   24  C18 UNL     1      72.406  22.451  30.022  1.00  0.00     0.205 C 
BRANCH  24  25
HETATM   25  O6  UNL     1      72.358  23.875  30.053  1.00  0.00    -0.389 OA
ATOM     26  H6  UNL     1      71.493  24.082  30.386  1.00  0.00     0.210 HD
ENDBRANCH  24  25
BRANCH  24  27
HETATM   27  C19 UNL     1      72.738  22.075  28.599  1.00  0.00     0.185 C 
BRANCH  27  28
HETATM   28  O7  UNL     1      71.640  22.186  27.774  1.00  0.00    -0.390 OA
ATOM     29  H7  UNL     1      71.800  21.797  26.922  1.00  0.00     0.210 HD
ENDBRANCH  27  28
BRANCH  27  30
HETATM   30  C20 UNL     1      73.874  22.982  28.163  1.00  0.00     0.214 C 
BRANCH  30  31
HETATM   31  O8  UNL     1      73.417  23.902  27.210  1.00  0.00    -0.387 OA
ATOM     32  H8  UNL     1      73.699  23.641  26.341  1.00  0.00     0.210 HD
ENDBRANCH  30  31
BRANCH  30  33
HETATM   33  C21 UNL     1      75.063  22.269  27.600  1.00  0.00     0.384 C 
HETATM   34  F1  UNL     1      74.935  20.919  27.530  1.00  0.00    -0.212 F 
HETATM   35  F2  UNL     1      75.301  22.844  26.342  1.00  0.00    -0.212 F 
ENDBRANCH  30  33
ENDBRANCH  27  30
ENDBRANCH  24  27
ENDBRANCH  21  24
ENDBRANCH  18  21
ENDBRANCH  15  18
ENDBRANCH  13  15
BRANCH   8  36
HETATM   36  O1  UNL     1      72.818  22.617  38.079  1.00  0.00    -0.348 OA
BRANCH  36  37
HETATM   37  C9  UNL     1      72.221  22.407  39.255  1.00  0.00     0.209 C 
BRANCH  37  38
HETATM   38  C10 UNL     1      71.225  21.301  39.418  1.00  0.00     0.166 C 
BRANCH  38  39
HETATM   39  O2  UNL     1      70.269  21.281  38.381  1.00  0.00    -0.391 OA
ATOM     40  H2  UNL     1      69.818  22.112  38.287  1.00  0.00     0.210 HD
ENDBRANCH  38  39
BRANCH  38  41
HETATM   41  C11 UNL     1      71.732  19.937  39.705  1.00  0.00     0.198 C 
BRANCH  41  42
HETATM   42  O3  UNL     1      73.120  19.985  39.861  1.00  0.00    -0.398 OA
ATOM     43  H3  UNL     1      73.331  19.969  40.787  1.00  0.00     0.209 HD
ENDBRANCH  41  42
ENDBRANCH  38  41
ENDBRANCH  37  38
ENDBRANCH  36  37
ENDBRANCH   8  36
TORSDOF 18
ENDMDL
