MODEL 1
REMARK VINA RESULT: -7.479075742      0.000      0.000
REMARK  14 active torsions:
REMARK  status: ('A' for Active; 'I' for Inactive)
REMARK       I    between atoms: C2_2  and  N1_4 
REMARK    1  A    between atoms: N1_4  and  C4_6 
REMARK    2  A    between atoms: C4_6  and  C5_7 
REMARK    3  A    between atoms: C4_6  and  C26_38 
REMARK       I    between atoms: C5_7  and  N2_9 
REMARK    4  A    between atoms: N2_9  and  C6_11 
REMARK    5  A    between atoms: C6_11  and  C7_12 
REMARK    6  A    between atoms: C6_11  and  C14_19 
REMARK    7  A    between atoms: C7_12  and  C8_13 
REMARK    8  A    between atoms: C14_19  and  O3_20 
REMARK    9  A    between atoms: C14_19  and  C15_22 
REMARK   10  A    between atoms: C15_22  and  O4_23 
REMARK   11  A    between atoms: C15_22  and  C16_25 
REMARK       I    between atoms: C16_25  and  N3_27 
REMARK   12  A    between atoms: N3_27  and  C17_29 
REMARK   13  A    between atoms: C17_29  and  C19_31 
REMARK   14  A    between atoms: C19_31  and  C20_32 
ROOT
HETATM    1  C6  UNL     1      38.526  27.072  22.143  1.00  0.00     0.116 C 
ENDROOT
BRANCH   1   2
HETATM    2  N2  UNL     1      38.000  25.973  21.418  1.00  0.00    -0.352 N 
HETATM    3  C5  UNL     1      37.727  24.690  21.857  1.00  0.00     0.241 C 
HETATM    4  O2  UNL     1      37.942  24.416  23.106  1.00  0.00    -0.271 OA
ATOM      5  H2  UNL     1      37.793  26.153  20.436  1.00  0.00     0.163 HD
BRANCH   3   6
HETATM    6  C4  UNL     1      37.210  23.510  21.147  1.00  0.00     0.182 C 
BRANCH   6   7
HETATM    7  N1  UNL     1      35.818  23.385  21.597  1.00  0.00    -0.343 N 
HETATM    8  C2  UNL     1      35.442  22.184  22.225  1.00  0.00     0.216 C 
HETATM    9  C1  UNL     1      36.401  21.060  22.442  1.00  0.00     0.117 C 
HETATM   10  O1  UNL     1      34.232  22.066  22.618  1.00  0.00    -0.274 OA
HETATM   11  C3  UNL     1      34.821  24.397  21.439  1.00  0.00     0.153 C 
ENDBRANCH   6   7
BRANCH   6  12
HETATM   12  C26 UNL     1      37.378  23.569  19.700  1.00  0.00     0.018 C 
HETATM   13  C27 UNL     1      38.672  22.924  19.287  1.00  0.00     0.007 C 
HETATM   14  C28 UNL     1      38.283  21.605  18.602  1.00  0.00     0.000 C 
HETATM   15  C29 UNL     1      37.058  22.063  17.838  1.00  0.00     0.000 C 
HETATM   16  C30 UNL     1      36.328  22.890  18.879  1.00  0.00     0.007 C 
ENDBRANCH   6  12
ENDBRANCH   3   6
ENDBRANCH   1   2
BRANCH   1  17
HETATM   17  C7  UNL     1      37.550  27.880  22.964  1.00  0.00     0.032 C 
BRANCH  17  18
HETATM   18  C8  UNL     1      36.128  27.740  22.483  1.00  0.00    -0.013 C 
HETATM   19  C9  UNL     1      35.259  27.317  23.648  1.00  0.00     0.005 C 
HETATM   20  C10 UNL     1      33.793  27.533  23.392  1.00  0.00     0.000 C 
HETATM   21  C11 UNL     1      33.492  27.839  21.938  1.00  0.00     0.000 C 
HETATM   22  C12 UNL     1      34.200  29.126  21.616  1.00  0.00     0.000 C 
HETATM   23  C13 UNL     1      35.665  29.024  21.832  1.00  0.00     0.005 C 
ENDBRANCH  17  18
ENDBRANCH   1  17
BRANCH   1  24
HETATM   24  C14 UNL     1      39.389  27.967  21.311  1.00  0.00     0.178 C 
BRANCH  24  25
HETATM   25  O3  UNL     1      40.587  28.281  21.986  1.00  0.00    -0.390 OA
ATOM     26  H3  UNL     1      41.253  27.625  21.818  1.00  0.00     0.210 HD
ENDBRANCH  24  25
BRANCH  24  27
HETATM   27  C15 UNL     1      39.755  27.424  19.971  1.00  0.00     0.240 C 
BRANCH  27  28
HETATM   28  O4  UNL     1      40.352  26.176  19.984  1.00  0.00    -0.383 OA
ATOM     29  H4  UNL     1      39.754  25.443  20.068  1.00  0.00     0.210 HD
ENDBRANCH  27  28
BRANCH  27  30
HETATM   30  C16 UNL     1      38.576  27.362  19.059  1.00  0.00     0.249 C 
HETATM   31  O5  UNL     1      38.501  26.417  18.243  1.00  0.00    -0.271 OA
HETATM   32  N3  UNL     1      37.556  28.329  19.096  1.00  0.00    -0.355 N 
ATOM     33  H3  UNL     1      37.619  29.097  19.763  1.00  0.00     0.162 HD
BRANCH  32  34
HETATM   34  C17 UNL     1      36.427  28.254  18.209  1.00  0.00     0.080 C 
HETATM   35  C18 UNL     1      35.459  27.166  18.612  1.00  0.00     0.032 C 
BRANCH  34  36
HETATM   36  C19 UNL     1      35.812  29.544  17.833  1.00  0.00     0.029 C 
BRANCH  36  37
HETATM   37  C20 UNL     1      34.377  29.775  17.995  1.00  0.00    -0.013 C 
HETATM   38  C21 UNL     1      33.958  30.977  18.791  1.00  0.00     0.005 C 
HETATM   39  C22 UNL     1      32.439  31.195  18.682  1.00  0.00     0.000 C 
HETATM   40  C23 UNL     1      31.766  29.868  18.549  1.00  0.00     0.000 C 
HETATM   41  C24 UNL     1      32.138  29.204  17.239  1.00  0.00     0.000 C 
HETATM   42  C25 UNL     1      33.520  29.686  16.759  1.00  0.00     0.005 C 
ENDBRANCH  36  37
ENDBRANCH  34  36
ENDBRANCH  32  34
ENDBRANCH  27  30
ENDBRANCH  24  27
ENDBRANCH   1  24
TORSDOF 14
ENDMDL
MODEL 2
REMARK VINA RESULT: -7.112100535      1.518      2.426
REMARK  14 active torsions:
REMARK  status: ('A' for Active; 'I' for Inactive)
REMARK       I    between atoms: C2_2  and  N1_4 
REMARK    1  A    between atoms: N1_4  and  C4_6 
REMARK    2  A    between atoms: C4_6  and  C5_7 
REMARK    3  A    between atoms: C4_6  and  C26_38 
REMARK       I    between atoms: C5_7  and  N2_9 
REMARK    4  A    between atoms: N2_9  and  C6_11 
REMARK    5  A    between atoms: C6_11  and  C7_12 
REMARK    6  A    between atoms: C6_11  and  C14_19 
REMARK    7  A    between atoms: C7_12  and  C8_13 
REMARK    8  A    between atoms: C14_19  and  O3_20 
REMARK    9  A    between atoms: C14_19  and  C15_22 
REMARK   10  A    between atoms: C15_22  and  O4_23 
REMARK   11  A    between atoms: C15_22  and  C16_25 
REMARK       I    between atoms: C16_25  and  N3_27 
REMARK   12  A    between atoms: N3_27  and  C17_29 
REMARK   13  A    between atoms: C17_29  and  C19_31 
REMARK   14  A    between atoms: C19_31  and  C20_32 
ROOT
HETATM    1  C6  UNL     1      38.280  27.473  22.729  1.00  0.00     0.116 C 
ENDROOT
BRANCH   1   2
HETATM    2  N2  UNL     1      37.892  26.369  21.928  1.00  0.00    -0.352 N 
HETATM    3  C5  UNL     1      37.358  25.154  22.317  1.00  0.00     0.241 C 
HETATM    4  O2  UNL     1      37.140  24.964  23.582  1.00  0.00    -0.271 OA
ATOM      5  H2  UNL     1      38.024  26.488  20.924  1.00  0.00     0.163 HD
BRANCH   3   6
HETATM    6  C4  UNL     1      36.965  23.971  21.536  1.00  0.00     0.182 C 
BRANCH   6   7
HETATM    7  N1  UNL     1      37.830  22.893  22.033  1.00  0.00    -0.343 N 
HETATM    8  C2  UNL     1      38.999  22.609  21.305  1.00  0.00     0.216 C 
HETATM    9  C1  UNL     1      39.377  23.361  20.071  1.00  0.00     0.117 C 
HETATM   10  O1  UNL     1      39.756  21.672  21.728  1.00  0.00    -0.274 OA
HETATM   11  C3  UNL     1      37.564  22.113  23.200  1.00  0.00     0.153 C 
ENDBRANCH   6   7
BRANCH   6  12
HETATM   12  C26 UNL     1      35.539  23.677  21.585  1.00  0.00     0.018 C 
HETATM   13  C27 UNL     1      34.730  24.926  21.366  1.00  0.00     0.007 C 
HETATM   14  C28 UNL     1      34.116  24.788  19.964  1.00  0.00     0.000 C 
HETATM   15  C29 UNL     1      33.771  23.314  19.978  1.00  0.00     0.000 C 
HETATM   16  C30 UNL     1      35.024  22.702  20.574  1.00  0.00     0.007 C 
ENDBRANCH   6  12
ENDBRANCH   3   6
ENDBRANCH   1   2
BRANCH   1  17
HETATM   17  C7  UNL     1      37.174  28.351  23.265  1.00  0.00     0.032 C 
BRANCH  17  18
HETATM   18  C8  UNL     1      35.889  28.207  22.490  1.00  0.00    -0.013 C 
HETATM   19  C9  UNL     1      34.761  27.940  23.463  1.00  0.00     0.005 C 
HETATM   20  C10 UNL     1      33.402  28.174  22.863  1.00  0.00     0.000 C 
HETATM   21  C11 UNL     1      33.449  28.334  21.356  1.00  0.00     0.000 C 
HETATM   22  C12 UNL     1      34.281  29.556  21.081  1.00  0.00     0.000 C 
HETATM   23  C13 UNL     1      35.654  29.429  21.631  1.00  0.00     0.005 C 
ENDBRANCH  17  18
ENDBRANCH   1  17
BRANCH   1  24
HETATM   24  C14 UNL     1      39.362  28.299  22.109  1.00  0.00     0.178 C 
BRANCH  24  25
HETATM   25  O3  UNL     1      40.517  28.306  22.919  1.00  0.00    -0.390 OA
ATOM     26  H3  UNL     1      41.245  28.717  22.468  1.00  0.00     0.210 HD
ENDBRANCH  24  25
BRANCH  24  27
HETATM   27  C15 UNL     1      39.773  27.876  20.739  1.00  0.00     0.240 C 
BRANCH  27  28
HETATM   28  O4  UNL     1      40.052  26.527  20.599  1.00  0.00    -0.383 OA
ATOM     29  H4  UNL     1      40.954  26.282  20.764  1.00  0.00     0.210 HD
ENDBRANCH  27  28
BRANCH  27  30
HETATM   30  C16 UNL     1      38.752  28.244  19.717  1.00  0.00     0.249 C 
HETATM   31  O5  UNL     1      38.281  29.403  19.734  1.00  0.00    -0.271 OA
HETATM   32  N3  UNL     1      38.311  27.331  18.744  1.00  0.00    -0.355 N 
ATOM     33  H3  UNL     1      38.698  26.388  18.731  1.00  0.00     0.162 HD
BRANCH  32  34
HETATM   34  C17 UNL     1      37.324  27.704  17.766  1.00  0.00     0.080 C 
HETATM   35  C18 UNL     1      37.669  27.190  16.387  1.00  0.00     0.032 C 
BRANCH  34  36
HETATM   36  C19 UNL     1      35.914  27.533  18.173  1.00  0.00     0.029 C 
BRANCH  36  37
HETATM   37  C20 UNL     1      34.921  28.577  17.922  1.00  0.00    -0.013 C 
HETATM   38  C21 UNL     1      35.432  29.935  17.538  1.00  0.00     0.005 C 
HETATM   39  C22 UNL     1      34.271  30.846  17.101  1.00  0.00     0.000 C 
HETATM   40  C23 UNL     1      33.048  30.481  17.878  1.00  0.00     0.000 C 
HETATM   41  C24 UNL     1      32.578  29.087  17.517  1.00  0.00     0.000 C 
HETATM   42  C25 UNL     1      33.758  28.224  17.031  1.00  0.00     0.005 C 
ENDBRANCH  36  37
ENDBRANCH  34  36
ENDBRANCH  32  34
ENDBRANCH  27  30
ENDBRANCH  24  27
ENDBRANCH   1  24
TORSDOF 14
ENDMDL
MODEL 3
REMARK VINA RESULT: -7.104206741      1.779      3.594
REMARK  14 active torsions:
REMARK  status: ('A' for Active; 'I' for Inactive)
REMARK       I    between atoms: C2_2  and  N1_4 
REMARK    1  A    between atoms: N1_4  and  C4_6 
REMARK    2  A    between atoms: C4_6  and  C5_7 
REMARK    3  A    between atoms: C4_6  and  C26_38 
REMARK       I    between atoms: C5_7  and  N2_9 
REMARK    4  A    between atoms: N2_9  and  C6_11 
REMARK    5  A    between atoms: C6_11  and  C7_12 
REMARK    6  A    between atoms: C6_11  and  C14_19 
REMARK    7  A    between atoms: C7_12  and  C8_13 
REMARK    8  A    between atoms: C14_19  and  O3_20 
REMARK    9  A    between atoms: C14_19  and  C15_22 
REMARK   10  A    between atoms: C15_22  and  O4_23 
REMARK   11  A    between atoms: C15_22  and  C16_25 
REMARK       I    between atoms: C16_25  and  N3_27 
REMARK   12  A    between atoms: N3_27  and  C17_29 
REMARK   13  A    between atoms: C17_29  and  C19_31 
REMARK   14  A    between atoms: C19_31  and  C20_32 
ROOT
HETATM    1  C6  UNL     1      35.621  26.904  22.983  1.00  0.00     0.116 C 
ENDROOT
BRANCH   1   2
HETATM    2  N2  UNL     1      36.091  25.819  22.201  1.00  0.00    -0.352 N 
HETATM    3  C5  UNL     1      35.660  24.505  22.184  1.00  0.00     0.241 C 
HETATM    4  O2  UNL     1      34.670  24.180  22.957  1.00  0.00    -0.271 OA
ATOM      5  H2  UNL     1      36.853  26.038  21.560  1.00  0.00     0.163 HD
BRANCH   3   6
HETATM    6  C4  UNL     1      36.126  23.339  21.417  1.00  0.00     0.182 C 
BRANCH   6   7
HETATM    7  N1  UNL     1      37.504  23.121  21.873  1.00  0.00    -0.343 N 
HETATM    8  C2  UNL     1      38.515  23.083  20.896  1.00  0.00     0.216 C 
HETATM    9  C1  UNL     1      38.229  23.259  19.441  1.00  0.00     0.117 C 
HETATM   10  O1  UNL     1      39.717  22.891  21.283  1.00  0.00    -0.274 OA
HETATM   11  C3  UNL     1      37.888  22.941  23.237  1.00  0.00     0.153 C 
ENDBRANCH   6   7
BRANCH   6  12
HETATM   12  C26 UNL     1      35.258  22.174  21.526  1.00  0.00     0.018 C 
HETATM   13  C27 UNL     1      35.051  21.536  20.179  1.00  0.00     0.007 C 
HETATM   14  C28 UNL     1      35.844  20.220  20.212  1.00  0.00     0.000 C 
HETATM   15  C29 UNL     1      35.549  19.777  21.630  1.00  0.00     0.000 C 
HETATM   16  C30 UNL     1      35.737  21.065  22.409  1.00  0.00     0.007 C 
ENDBRANCH   6  12
ENDBRANCH   3   6
ENDBRANCH   1   2
BRANCH   1  17
HETATM   17  C7  UNL     1      34.132  27.156  22.978  1.00  0.00     0.032 C 
BRANCH  17  18
HETATM   18  C8  UNL     1      33.637  27.693  21.659  1.00  0.00    -0.013 C 
HETATM   19  C9  UNL     1      32.957  26.572  20.903  1.00  0.00     0.005 C 
HETATM   20  C10 UNL     1      32.088  27.067  19.779  1.00  0.00     0.000 C 
HETATM   21  C11 UNL     1      32.317  28.533  19.466  1.00  0.00     0.000 C 
HETATM   22  C12 UNL     1      31.936  29.299  20.703  1.00  0.00     0.000 C 
HETATM   23  C13 UNL     1      32.740  28.889  21.881  1.00  0.00     0.005 C 
ENDBRANCH  17  18
ENDBRANCH   1  17
BRANCH   1  24
HETATM   24  C14 UNL     1      36.377  28.172  22.745  1.00  0.00     0.178 C 
BRANCH  24  25
HETATM   25  O3  UNL     1      36.061  29.138  23.723  1.00  0.00    -0.390 OA
ATOM     26  H3  UNL     1      36.425  29.985  23.494  1.00  0.00     0.210 HD
ENDBRANCH  24  25
BRANCH  24  27
HETATM   27  C15 UNL     1      37.861  28.028  22.715  1.00  0.00     0.240 C 
BRANCH  27  28
HETATM   28  O4  UNL     1      38.349  26.856  23.265  1.00  0.00    -0.383 OA
ATOM     29  H4  UNL     1      38.408  26.848  24.213  1.00  0.00     0.210 HD
ENDBRANCH  27  28
BRANCH  27  30
HETATM   30  C16 UNL     1      38.399  28.147  21.329  1.00  0.00     0.249 C 
HETATM   31  O5  UNL     1      38.553  29.289  20.844  1.00  0.00    -0.271 OA
HETATM   32  N3  UNL     1      38.736  27.017  20.563  1.00  0.00    -0.355 N 
ATOM     33  H3  UNL     1      38.612  26.087  20.962  1.00  0.00     0.162 HD
BRANCH  32  34
HETATM   34  C17 UNL     1      39.253  27.150  19.228  1.00  0.00     0.080 C 
HETATM   35  C18 UNL     1      40.547  26.391  19.042  1.00  0.00     0.032 C 
BRANCH  34  36
HETATM   36  C19 UNL     1      38.268  27.005  18.135  1.00  0.00     0.029 C 
BRANCH  36  37
HETATM   37  C20 UNL     1      37.296  28.059  17.847  1.00  0.00    -0.013 C 
HETATM   38  C21 UNL     1      36.956  28.307  16.406  1.00  0.00     0.005 C 
HETATM   39  C22 UNL     1      35.772  29.282  16.291  1.00  0.00     0.000 C 
HETATM   40  C23 UNL     1      35.825  30.249  17.429  1.00  0.00     0.000 C 
HETATM   41  C24 UNL     1      35.591  29.540  18.748  1.00  0.00     0.000 C 
HETATM   42  C25 UNL     1      36.025  28.065  18.657  1.00  0.00     0.005 C 
ENDBRANCH  36  37
ENDBRANCH  34  36
ENDBRANCH  32  34
ENDBRANCH  27  30
ENDBRANCH  24  27
ENDBRANCH   1  24
TORSDOF 14
ENDMDL
MODEL 4
REMARK VINA RESULT: -7.011276044      1.352      1.987
REMARK  14 active torsions:
REMARK  status: ('A' for Active; 'I' for Inactive)
REMARK       I    between atoms: C2_2  and  N1_4 
REMARK    1  A    between atoms: N1_4  and  C4_6 
REMARK    2  A    between atoms: C4_6  and  C5_7 
REMARK    3  A    between atoms: C4_6  and  C26_38 
REMARK       I    between atoms: C5_7  and  N2_9 
REMARK    4  A    between atoms: N2_9  and  C6_11 
REMARK    5  A    between atoms: C6_11  and  C7_12 
REMARK    6  A    between atoms: C6_11  and  C14_19 
REMARK    7  A    between atoms: C7_12  and  C8_13 
REMARK    8  A    between atoms: C14_19  and  O3_20 
REMARK    9  A    between atoms: C14_19  and  C15_22 
REMARK   10  A    between atoms: C15_22  and  O4_23 
REMARK   11  A    between atoms: C15_22  and  C16_25 
REMARK       I    between atoms: C16_25  and  N3_27 
REMARK   12  A    between atoms: N3_27  and  C17_29 
REMARK   13  A    between atoms: C17_29  and  C19_31 
REMARK   14  A    between atoms: C19_31  and  C20_32 
ROOT
HETATM    1  C6  UNL     1      38.840  26.682  21.340  1.00  0.00     0.116 C 
ENDROOT
BRANCH   1   2
HETATM    2  N2  UNL     1      38.011  25.668  20.797  1.00  0.00    -0.352 N 
HETATM    3  C5  UNL     1      37.940  24.328  21.130  1.00  0.00     0.241 C 
HETATM    4  O2  UNL     1      38.701  23.898  22.088  1.00  0.00    -0.271 OA
ATOM      5  H2  UNL     1      37.377  25.970  20.056  1.00  0.00     0.163 HD
BRANCH   3   6
HETATM    6  C4  UNL     1      37.123  23.233  20.583  1.00  0.00     0.182 C 
BRANCH   6   7
HETATM    7  N1  UNL     1      35.769  23.490  21.090  1.00  0.00    -0.343 N 
HETATM    8  C2  UNL     1      35.262  22.615  22.067  1.00  0.00     0.216 C 
HETATM    9  C1  UNL     1      36.049  21.460  22.592  1.00  0.00     0.117 C 
HETATM   10  O1  UNL     1      34.084  22.830  22.511  1.00  0.00    -0.274 OA
HETATM   11  C3  UNL     1      34.932  24.564  20.656  1.00  0.00     0.153 C 
ENDBRANCH   6   7
BRANCH   6  12
HETATM   12  C26 UNL     1      37.214  23.093  19.136  1.00  0.00     0.018 C 
HETATM   13  C27 UNL     1      38.417  22.274  18.754  1.00  0.00     0.007 C 
HETATM   14  C28 UNL     1      37.868  20.924  18.265  1.00  0.00     0.000 C 
HETATM   15  C29 UNL     1      36.651  21.403  17.502  1.00  0.00     0.000 C 
HETATM   16  C30 UNL     1      36.061  22.423  18.457  1.00  0.00     0.007 C 
ENDBRANCH   6  12
ENDBRANCH   3   6
ENDBRANCH   1   2
BRANCH   1  17
HETATM   17  C7  UNL     1      38.254  27.523  22.448  1.00  0.00     0.032 C 
BRANCH  17  18
HETATM   18  C8  UNL     1      36.759  27.367  22.569  1.00  0.00    -0.013 C 
HETATM   19  C9  UNL     1      36.464  26.253  23.551  1.00  0.00     0.005 C 
HETATM   20  C10 UNL     1      35.045  26.273  24.049  1.00  0.00     0.000 C 
HETATM   21  C11 UNL     1      34.157  27.203  23.247  1.00  0.00     0.000 C 
HETATM   22  C12 UNL     1      34.717  28.588  23.423  1.00  0.00     0.000 C 
HETATM   23  C13 UNL     1      36.122  28.683  22.957  1.00  0.00     0.005 C 
ENDBRANCH  17  18
ENDBRANCH   1  17
BRANCH   1  24
HETATM   24  C14 UNL     1      39.477  27.544  20.297  1.00  0.00     0.178 C 
BRANCH  24  25
HETATM   25  O3  UNL     1      40.729  27.022  19.909  1.00  0.00    -0.390 OA
ATOM     26  H3  UNL     1      41.405  27.688  19.959  1.00  0.00     0.210 HD
ENDBRANCH  24  25
BRANCH  24  27
HETATM   27  C15 UNL     1      38.668  27.742  19.061  1.00  0.00     0.240 C 
BRANCH  27  28
HETATM   28  O4  UNL     1      37.895  26.658  18.682  1.00  0.00    -0.383 OA
ATOM     29  H4  UNL     1      37.601  26.667  17.780  1.00  0.00     0.210 HD
ENDBRANCH  27  28
BRANCH  27  30
HETATM   30  C16 UNL     1      37.773  28.930  19.172  1.00  0.00     0.249 C 
HETATM   31  O5  UNL     1      38.222  29.969  19.702  1.00  0.00    -0.271 OA
HETATM   32  N3  UNL     1      36.449  28.910  18.699  1.00  0.00    -0.355 N 
ATOM     33  H3  UNL     1      36.085  28.062  18.265  1.00  0.00     0.162 HD
BRANCH  32  34
HETATM   34  C17 UNL     1      35.600  30.065  18.815  1.00  0.00     0.080 C 
HETATM   35  C18 UNL     1      34.985  30.453  17.490  1.00  0.00     0.032 C 
BRANCH  34  36
HETATM   36  C19 UNL     1      34.678  30.076  19.971  1.00  0.00     0.029 C 
BRANCH  36  37
HETATM   37  C20 UNL     1      33.378  29.411  19.909  1.00  0.00    -0.013 C 
HETATM   38  C21 UNL     1      33.375  27.914  19.792  1.00  0.00     0.005 C 
HETATM   39  C22 UNL     1      31.948  27.362  19.958  1.00  0.00     0.000 C 
HETATM   40  C23 UNL     1      30.975  28.355  19.410  1.00  0.00     0.000 C 
HETATM   41  C24 UNL     1      30.978  29.624  20.238  1.00  0.00     0.000 C 
HETATM   42  C25 UNL     1      32.343  29.823  20.924  1.00  0.00     0.005 C 
ENDBRANCH  36  37
ENDBRANCH  34  36
ENDBRANCH  32  34
ENDBRANCH  27  30
ENDBRANCH  24  27
ENDBRANCH   1  24
TORSDOF 14
ENDMDL
MODEL 5
REMARK VINA RESULT: -6.998125524      1.787      3.131
REMARK  14 active torsions:
REMARK  status: ('A' for Active; 'I' for Inactive)
REMARK       I    between atoms: C2_2  and  N1_4 
REMARK    1  A    between atoms: N1_4  and  C4_6 
REMARK    2  A    between atoms: C4_6  and  C5_7 
REMARK    3  A    between atoms: C4_6  and  C26_38 
REMARK       I    between atoms: C5_7  and  N2_9 
REMARK    4  A    between atoms: N2_9  and  C6_11 
REMARK    5  A    between atoms: C6_11  and  C7_12 
REMARK    6  A    between atoms: C6_11  and  C14_19 
REMARK    7  A    between atoms: C7_12  and  C8_13 
REMARK    8  A    between atoms: C14_19  and  O3_20 
REMARK    9  A    between atoms: C14_19  and  C15_22 
REMARK   10  A    between atoms: C15_22  and  O4_23 
REMARK   11  A    between atoms: C15_22  and  C16_25 
REMARK       I    between atoms: C16_25  and  N3_27 
REMARK   12  A    between atoms: N3_27  and  C17_29 
REMARK   13  A    between atoms: C17_29  and  C19_31 
REMARK   14  A    between atoms: C19_31  and  C20_32 
ROOT
HETATM    1  C6  UNL     1      35.621  26.834  23.054  1.00  0.00     0.116 C 
ENDROOT
BRANCH   1   2
HETATM    2  N2  UNL     1      36.121  25.747  22.292  1.00  0.00    -0.352 N 
HETATM    3  C5  UNL     1      35.680  24.438  22.248  1.00  0.00     0.241 C 
HETATM    4  O2  UNL     1      34.649  24.119  22.968  1.00  0.00    -0.271 OA
ATOM      5  H2  UNL     1      36.917  25.962  21.692  1.00  0.00     0.163 HD
BRANCH   3   6
HETATM    6  C4  UNL     1      36.174  23.270  21.501  1.00  0.00     0.182 C 
BRANCH   6   7
HETATM    7  N1  UNL     1      37.519  23.029  22.036  1.00  0.00    -0.343 N 
HETATM    8  C2  UNL     1      38.578  22.926  21.116  1.00  0.00     0.216 C 
HETATM    9  C1  UNL     1      38.373  23.058  19.643  1.00  0.00     0.117 C 
HETATM   10  O1  UNL     1      39.751  22.714  21.573  1.00  0.00    -0.274 OA
HETATM   11  C3  UNL     1      37.826  22.887  23.425  1.00  0.00     0.153 C 
ENDBRANCH   6   7
BRANCH   6  12
HETATM   12  C26 UNL     1      35.284  22.118  21.549  1.00  0.00     0.018 C 
HETATM   13  C27 UNL     1      35.095  21.533  20.176  1.00  0.00     0.007 C 
HETATM   14  C28 UNL     1      35.865  20.203  20.176  1.00  0.00     0.000 C 
HETATM   15  C29 UNL     1      35.533  19.714  21.570  1.00  0.00     0.000 C 
HETATM   16  C30 UNL     1      35.726  20.969  22.400  1.00  0.00     0.007 C 
ENDBRANCH   6  12
ENDBRANCH   3   6
ENDBRANCH   1   2
BRANCH   1  17
HETATM   17  C7  UNL     1      34.125  27.037  23.056  1.00  0.00     0.032 C 
BRANCH  17  18
HETATM   18  C8  UNL     1      33.603  27.539  21.733  1.00  0.00    -0.013 C 
HETATM   19  C9  UNL     1      32.961  26.384  20.994  1.00  0.00     0.005 C 
HETATM   20  C10 UNL     1      32.069  26.834  19.870  1.00  0.00     0.000 C 
HETATM   21  C11 UNL     1      32.242  28.303  19.538  1.00  0.00     0.000 C 
HETATM   22  C12 UNL     1      31.839  29.069  20.768  1.00  0.00     0.000 C 
HETATM   23  C13 UNL     1      32.664  28.703  21.946  1.00  0.00     0.005 C 
ENDBRANCH  17  18
ENDBRANCH   1  17
BRANCH   1  24
HETATM   24  C14 UNL     1      36.332  28.121  22.780  1.00  0.00     0.178 C 
BRANCH  24  25
HETATM   25  O3  UNL     1      36.099  29.055  23.812  1.00  0.00    -0.390 OA
ATOM     26  H3  UNL     1      36.517  28.780  24.619  1.00  0.00     0.210 HD
ENDBRANCH  24  25
BRANCH  24  27
HETATM   27  C15 UNL     1      37.808  28.003  22.604  1.00  0.00     0.240 C 
BRANCH  27  28
HETATM   28  O4  UNL     1      38.367  26.834  23.091  1.00  0.00    -0.383 OA
ATOM     29  H4  UNL     1      38.754  26.901  23.956  1.00  0.00     0.210 HD
ENDBRANCH  27  28
BRANCH  27  30
HETATM   30  C16 UNL     1      38.207  28.144  21.174  1.00  0.00     0.249 C 
HETATM   31  O5  UNL     1      39.425  28.131  20.889  1.00  0.00    -0.271 OA
HETATM   32  N3  UNL     1      37.257  28.288  20.148  1.00  0.00    -0.355 N 
ATOM     33  H3  UNL     1      36.265  28.297  20.383  1.00  0.00     0.162 HD
BRANCH  32  34
HETATM   34  C17 UNL     1      37.659  28.424  18.774  1.00  0.00     0.080 C 
HETATM   35  C18 UNL     1      37.309  27.202  17.956  1.00  0.00     0.032 C 
BRANCH  34  36
HETATM   36  C19 UNL     1      37.358  29.723  18.137  1.00  0.00     0.029 C 
BRANCH  36  37
HETATM   37  C20 UNL     1      36.033  30.007  17.585  1.00  0.00    -0.013 C 
HETATM   38  C21 UNL     1      34.960  30.422  18.549  1.00  0.00     0.005 C 
HETATM   39  C22 UNL     1      33.705  30.889  17.792  1.00  0.00     0.000 C 
HETATM   40  C23 UNL     1      33.585  30.110  16.522  1.00  0.00     0.000 C 
HETATM   41  C24 UNL     1      34.726  30.437  15.581  1.00  0.00     0.000 C 
HETATM   42  C25 UNL     1      35.968  30.895  16.370  1.00  0.00     0.005 C 
ENDBRANCH  36  37
ENDBRANCH  34  36
ENDBRANCH  32  34
ENDBRANCH  27  30
ENDBRANCH  24  27
ENDBRANCH   1  24
TORSDOF 14
ENDMDL
