MODEL 1
REMARK VINA RESULT: -4.634332518      0.000      0.000
REMARK  3 active torsions:
REMARK  status: ('A' for Active; 'I' for Inactive)
REMARK    1  A    between atoms: N1_1  and  C1_5 
REMARK    2  A    between atoms: C1_5  and  O1_6 
REMARK    3  A    between atoms: N2_12  and  O2_13 
ROOT
HETATM    1  C1  UNL     1       5.049  32.510   0.075  1.00  0.00     0.304 C 
HETATM    2  C2  UNL     1       4.000  32.992  -0.834  1.00  0.00     0.088 C 
HETATM    3  C3  UNL     1       2.619  32.542  -0.602  1.00  0.00     0.007 C 
HETATM    4  C4  UNL     1       2.443  31.306   0.205  1.00  0.00     0.017 C 
HETATM    5  C5  UNL     1       3.775  30.557   0.199  1.00  0.00     0.126 C 
HETATM    6  N2  UNL     1       4.661  31.426   0.933  1.00  0.00    -0.140 NA
ENDROOT
BRANCH   1   7
HETATM    7  N1  UNL     1       6.210  32.043  -0.695  1.00  0.00    -0.031 N 
ATOM      8  H13 UNL     1       6.126  32.189  -1.701  1.00  0.00     0.279 HD
ATOM      9  H12 UNL     1       7.048  32.610  -0.567  1.00  0.00     0.279 HD
ATOM     10  H11 UNL     1       6.326  31.067  -0.427  1.00  0.00     0.279 HD
ENDBRANCH   1   7
BRANCH   1  11
HETATM   11  O1  UNL     1       5.555  33.530   0.911  1.00  0.00    -0.352 OA
ATOM     12  H1  UNL     1       4.951  34.255   0.804  1.00  0.00     0.214 HD
ENDBRANCH   1  11
BRANCH   6  13
HETATM   13  O2  UNL     1       5.633  30.840   1.578  1.00  0.00    -0.309 OA
ATOM     14  H2  UNL     1       5.375  30.337   2.341  1.00  0.00     0.237 HD
ENDBRANCH   6  13
TORSDOF 3
ENDMDL
MODEL 2
REMARK VINA RESULT: -4.553596143      1.722      2.052
REMARK  3 active torsions:
REMARK  status: ('A' for Active; 'I' for Inactive)
REMARK    1  A    between atoms: N1_1  and  C1_5 
REMARK    2  A    between atoms: C1_5  and  O1_6 
REMARK    3  A    between atoms: N2_12  and  O2_13 
ROOT
HETATM    1  C1  UNL     1       5.203  30.462   0.964  1.00  0.00     0.304 C 
HETATM    2  C2  UNL     1       4.706  31.547   0.107  1.00  0.00     0.088 C 
HETATM    3  C3  UNL     1       3.251  31.735  -0.003  1.00  0.00     0.007 C 
HETATM    4  C4  UNL     1       2.396  30.574   0.360  1.00  0.00     0.017 C 
HETATM    5  C5  UNL     1       3.271  29.323   0.312  1.00  0.00     0.126 C 
HETATM    6  N2  UNL     1       4.208  29.518   1.390  1.00  0.00    -0.140 NA
ENDROOT
BRANCH   1   7
HETATM    7  N1  UNL     1       6.238  29.694   0.257  1.00  0.00    -0.031 N 
ATOM      8  H13 UNL     1       6.926  29.262   0.874  1.00  0.00     0.279 HD
ATOM      9  H12 UNL     1       5.898  28.828  -0.161  1.00  0.00     0.279 HD
ATOM     10  H11 UNL     1       6.637  30.349  -0.414  1.00  0.00     0.279 HD
ENDBRANCH   1   7
BRANCH   1  11
HETATM   11  O1  UNL     1       5.839  30.938   2.131  1.00  0.00    -0.352 OA
ATOM     12  H1  UNL     1       5.147  30.992   2.781  1.00  0.00     0.214 HD
ENDBRANCH   1  11
BRANCH   6  13
HETATM   13  O2  UNL     1       4.664  28.434   1.956  1.00  0.00    -0.309 OA
ATOM     14  H2  UNL     1       4.424  28.313   2.867  1.00  0.00     0.237 HD
ENDBRANCH   6  13
TORSDOF 3
ENDMDL
MODEL 3
REMARK VINA RESULT: -4.294266906      2.726      3.448
REMARK  3 active torsions:
REMARK  status: ('A' for Active; 'I' for Inactive)
REMARK    1  A    between atoms: N1_1  and  C1_5 
REMARK    2  A    between atoms: C1_5  and  O1_6 
REMARK    3  A    between atoms: N2_12  and  O2_13 
ROOT
HETATM    1  C1  UNL     1       4.684  29.742   0.841  1.00  0.00     0.304 C 
HETATM    2  C2  UNL     1       3.782  28.670   0.400  1.00  0.00     0.088 C 
HETATM    3  C3  UNL     1       3.046  27.915   1.425  1.00  0.00     0.007 C 
HETATM    4  C4  UNL     1       3.592  27.955   2.808  1.00  0.00     0.017 C 
HETATM    5  C5  UNL     1       5.051  28.399   2.715  1.00  0.00     0.126 C 
HETATM    6  N2  UNL     1       4.967  29.760   2.248  1.00  0.00    -0.140 NA
ENDROOT
BRANCH   1   7
HETATM    7  N1  UNL     1       5.978  29.629   0.153  1.00  0.00    -0.031 N 
ATOM      8  H13 UNL     1       5.904  29.354  -0.826  1.00  0.00     0.279 HD
ATOM      9  H12 UNL     1       6.438  30.524  -0.014  1.00  0.00     0.279 HD
ATOM     10  H11 UNL     1       6.522  28.984   0.724  1.00  0.00     0.279 HD
ENDBRANCH   1   7
BRANCH   1  11
HETATM   11  O1  UNL     1       4.206  31.028   0.505  1.00  0.00    -0.352 OA
ATOM     12  H1  UNL     1       4.016  30.982  -0.425  1.00  0.00     0.214 HD
ENDBRANCH   1  11
BRANCH   6  13
HETATM   13  O2  UNL     1       5.933  30.555   2.621  1.00  0.00    -0.309 OA
ATOM     14  H2  UNL     1       5.704  31.203   3.276  1.00  0.00     0.237 HD
ENDBRANCH   6  13
TORSDOF 3
ENDMDL
MODEL 4
REMARK VINA RESULT: -4.225992374      5.468      5.974
REMARK  3 active torsions:
REMARK  status: ('A' for Active; 'I' for Inactive)
REMARK    1  A    between atoms: N1_1  and  C1_5 
REMARK    2  A    between atoms: C1_5  and  O1_6 
REMARK    3  A    between atoms: N2_12  and  O2_13 
ROOT
HETATM    1  C1  UNL     1       4.320  27.512   3.073  1.00  0.00     0.304 C 
HETATM    2  C2  UNL     1       4.947  28.660   3.743  1.00  0.00     0.088 C 
HETATM    3  C3  UNL     1       4.371  29.120   5.016  1.00  0.00     0.007 C 
HETATM    4  C4  UNL     1       2.966  28.725   5.298  1.00  0.00     0.017 C 
HETATM    5  C5  UNL     1       2.324  28.324   3.972  1.00  0.00     0.126 C 
HETATM    6  N2  UNL     1       3.037  27.130   3.591  1.00  0.00    -0.140 NA
ENDROOT
BRANCH   1   7
HETATM    7  N1  UNL     1       4.128  27.804   1.645  1.00  0.00    -0.031 N 
ATOM      8  H13 UNL     1       4.585  28.661   1.332  1.00  0.00     0.279 HD
ATOM      9  H12 UNL     1       4.630  27.172   1.022  1.00  0.00     0.279 HD
ATOM     10  H11 UNL     1       3.118  27.801   1.511  1.00  0.00     0.279 HD
ENDBRANCH   1   7
BRANCH   1  11
HETATM   11  O1  UNL     1       5.131  26.356   3.101  1.00  0.00    -0.352 OA
ATOM     12  H1  UNL     1       5.724  26.492   3.830  1.00  0.00     0.214 HD
ENDBRANCH   1  11
BRANCH   6  13
HETATM   13  O2  UNL     1       2.370  26.270   2.871  1.00  0.00    -0.309 OA
ATOM     14  H2  UNL     1       1.427  26.279   2.987  1.00  0.00     0.237 HD
ENDBRANCH   6  13
TORSDOF 3
ENDMDL
MODEL 5
REMARK VINA RESULT: -4.177120691      4.743      5.432
REMARK  3 active torsions:
REMARK  status: ('A' for Active; 'I' for Inactive)
REMARK    1  A    between atoms: N1_1  and  C1_5 
REMARK    2  A    between atoms: C1_5  and  O1_6 
REMARK    3  A    between atoms: N2_12  and  O2_13 
ROOT
HETATM    1  C1  UNL     1       4.375  27.786   2.915  1.00  0.00     0.304 C 
HETATM    2  C2  UNL     1       4.054  28.417   4.203  1.00  0.00     0.088 C 
HETATM    3  C3  UNL     1       2.653  28.406   4.652  1.00  0.00     0.007 C 
HETATM    4  C4  UNL     1       1.616  28.194   3.607  1.00  0.00     0.017 C 
HETATM    5  C5  UNL     1       2.254  28.504   2.254  1.00  0.00     0.126 C 
HETATM    6  N2  UNL     1       3.242  27.466   2.093  1.00  0.00    -0.140 NA
ENDROOT
BRANCH   1   7
HETATM    7  N1  UNL     1       5.236  28.672   2.119  1.00  0.00    -0.031 N 
ATOM      8  H13 UNL     1       6.227  28.437   2.164  1.00  0.00     0.279 HD
ATOM      9  H12 UNL     1       5.134  28.553   1.112  1.00  0.00     0.279 HD
ATOM     10  H11 UNL     1       5.019  29.612   2.449  1.00  0.00     0.279 HD
ENDBRANCH   1   7
BRANCH   1  11
HETATM   11  O1  UNL     1       5.119  26.595   3.063  1.00  0.00    -0.352 OA
ATOM     12  H1  UNL     1       5.043  26.372   3.983  1.00  0.00     0.214 HD
ENDBRANCH   1  11
BRANCH   6  13
HETATM   13  O2  UNL     1       3.514  27.119   0.865  1.00  0.00    -0.309 OA
ATOM     14  H2  UNL     1       2.764  27.009   0.293  1.00  0.00     0.237 HD
ENDBRANCH   6  13
TORSDOF 3
ENDMDL
