MODEL 1
REMARK VINA RESULT: -9.524076556      0.000      0.000
REMARK  15 active torsions:
REMARK  status: ('A' for Active; 'I' for Inactive)
REMARK    1  A    between atoms: C2_2  and  C3_6 
REMARK       I    between atoms: C3_6  and  N2_8 
REMARK    2  A    between atoms: N2_8  and  C4_10 
REMARK    3  A    between atoms: C4_10  and  C5_11 
REMARK    4  A    between atoms: C4_10  and  N13_44 
REMARK    5  A    between atoms: C5_11  and  N3_12 
REMARK    6  A    between atoms: N3_12  and  C6_14 
REMARK    7  A    between atoms: N5_18  and  C8_19 
REMARK    8  A    between atoms: C8_19  and  C9_20 
REMARK    9  A    between atoms: C11_24  and  N7_25 
REMARK   10  A    between atoms: C12_30  and  N9_31 
REMARK   11  A    between atoms: N11_37  and  C16_38 
REMARK   12  A    between atoms: N13_44  and  C18_46 
REMARK   13  A    between atoms: C20_52  and  C21_53 
REMARK   14  A    between atoms: C21_53  and  O5_54 
REMARK   15  A    between atoms: O5_54  and  C22_55 
ROOT
HETATM    1  C6  UNL     1      -9.760   7.234  24.996  1.00  0.00     0.191 A 
HETATM    2  N4  UNL     1      -9.850   6.836  26.211  1.00  0.00    -0.348 N 
ATOM      3  H4  UNL     1      -9.144   6.297  26.711  1.00  0.00     0.163 HD
HETATM    4  C7  UNL     1     -11.123   7.279  26.765  1.00  0.00     0.237 A 
HETATM    5  N5  UNL     1     -11.769   8.068  25.733  1.00  0.00    -0.205 NA
HETATM    6  N12 UNL     1     -10.932   7.954  24.622  1.00  0.00    -0.288 N 
ATOM      7  H12 UNL     1     -11.128   8.326  23.692  1.00  0.00     0.184 HD
ENDROOT
BRANCH   1   8
HETATM    8  N3  UNL     1      -8.654   7.005  24.093  1.00  0.00    -0.337 N 
ATOM      9  H3  UNL     1      -8.710   7.326  23.126  1.00  0.00     0.168 HD
BRANCH   8  10
HETATM   10  C5  UNL     1      -7.501   6.341  24.547  1.00  0.00     0.110 C 
BRANCH  10  11
HETATM   11  C4  UNL     1      -7.137   5.017  23.971  1.00  0.00     0.220 C 
BRANCH  11  12
HETATM   12  N2  UNL     1      -5.676   5.109  23.705  1.00  0.00    -0.331 N 
HETATM   13  C3  UNL     1      -5.147   5.411  22.435  1.00  0.00     0.265 C 
HETATM   14  O1  UNL     1      -5.916   5.618  21.447  1.00  0.00    -0.266 OA
ATOM     15  H2  UNL     1      -5.029   4.946  24.476  1.00  0.00     0.165 HD
BRANCH  13  16
HETATM   16  C2  UNL     1      -3.712   5.502  22.184  1.00  0.00     0.067 C 
HETATM   17  C1  UNL     1      -3.173   6.104  20.966  1.00  0.00     0.074 C 
HETATM   18  N1  UNL     1      -2.909   5.016  23.109  1.00  0.00    -0.398 N 
ATOM     19  H12 UNL     1      -1.906   5.080  22.933  1.00  0.00     0.156 HD
ATOM     20  H11 UNL     1      -3.285   4.596  23.960  1.00  0.00     0.156 HD
ENDBRANCH  13  16
ENDBRANCH  11  12
BRANCH  11  21
HETATM   21  N13 UNL     1      -7.273   3.939  24.892  1.00  0.00    -0.382 N 
ATOM     22  H13 UNL     1      -6.549   3.222  24.934  1.00  0.00     0.156 HD
BRANCH  21  23
HETATM   23  C18 UNL     1      -8.382   3.847  25.739  1.00  0.00     0.208 C 
HETATM   24  C19 UNL     1      -8.931   2.494  26.044  1.00  0.00     0.265 C 
HETATM   25  O4  UNL     1      -9.638   1.628  25.462  1.00  0.00    -0.269 OA
HETATM   26  N14 UNL     1      -8.312   2.569  27.313  1.00  0.00    -0.242 N 
HETATM   27  N15 UNL     1      -7.873   1.977  28.509  1.00  0.00    -0.300 N 
HETATM   28  C24 UNL     1      -8.046   4.003  27.225  1.00  0.00     0.204 C 
HETATM   29  C20 UNL     1      -6.646   1.973  28.892  1.00  0.00     0.037 C 
ATOM     30  H15 UNL     1      -8.566   1.526  29.106  1.00  0.00     0.186 HD
HETATM   31  C23 UNL     1      -5.614   2.616  28.042  1.00  0.00     0.132 C 
HETATM   32  S1  UNL     1      -6.276   4.244  27.538  1.00  0.00    -0.133 SA
BRANCH  29  33
HETATM   33  C21 UNL     1      -6.229   1.352  30.138  1.00  0.00     0.234 C 
BRANCH  33  34
HETATM   34  O5  UNL     1      -5.129   0.510  30.100  1.00  0.00    -0.301 OA
BRANCH  34  35
HETATM   35  C22 UNL     1      -5.056  -0.721  30.719  1.00  0.00     0.372 C 
HETATM   36  N16 UNL     1      -6.241  -1.280  31.284  1.00  0.00    -0.032 NA
HETATM   37  O6  UNL     1      -3.970  -1.347  30.793  1.00  0.00    -0.242 OA
ENDBRANCH  34  35
ENDBRANCH  33  34
ENDBRANCH  29  33
ENDBRANCH  21  23
ENDBRANCH  11  21
ENDBRANCH  10  11
ENDBRANCH   8  10
ENDBRANCH   1   8
BRANCH   5  38
HETATM   38  C8  UNL     1     -13.061   7.482  25.465  1.00  0.00     0.178 C 
BRANCH  38  39
HETATM   39  C9  UNL     1     -14.060   8.099  26.370  1.00  0.00     0.094 A 
HETATM   40  N6  UNL     1     -13.912   9.322  26.913  1.00  0.00    -0.348 N 
HETATM   41  C10 UNL     1     -14.830   9.870  27.714  1.00  0.00     0.123 A 
ATOM     42  H6  UNL     1     -13.066   9.851  26.703  1.00  0.00     0.166 HD
HETATM   43  C11 UNL     1     -14.610  11.117  28.227  1.00  0.00     0.145 A 
HETATM   44  C15 UNL     1     -15.995   9.209  28.036  1.00  0.00     0.163 A 
HETATM   45  N8  UNL     1     -15.547  11.659  29.038  1.00  0.00    -0.175 N 
HETATM   46  C12 UNL     1     -16.680  11.012  29.352  1.00  0.00     0.682 A 
ATOM     47  H8  UNL     1     -15.387  12.589  29.423  1.00  0.00     0.186 HD
HETATM   48  N10 UNL     1     -16.902   9.783  28.848  1.00  0.00    -0.173 N 
ATOM     49  H10 UNL     1     -17.760   9.285  29.082  1.00  0.00     0.186 HD
HETATM   50  N11 UNL     1     -16.180   7.974  27.510  1.00  0.00    -0.236 N 
HETATM   51  C17 UNL     1     -15.225   7.437  26.693  1.00  0.00     0.279 A 
HETATM   52  O3  UNL     1     -15.451   6.279  26.228  1.00  0.00    -0.265 OA
BRANCH  43  53
HETATM   53  N7  UNL     1     -13.551  11.798  27.958  1.00  0.00    -0.383 N 
ATOM     54  H72 UNL     1     -13.368  12.065  26.990  1.00  0.00     0.157 HD
ATOM     55  H71 UNL     1     -12.881  12.074  28.675  1.00  0.00     0.157 HD
ENDBRANCH  43  53
BRANCH  46  56
HETATM   56  N9  UNL     1     -17.606  11.654  30.213  1.00  0.00    -0.226 N 
HETATM   57  C13 UNL     1     -19.016  11.426  30.039  1.00  0.00     0.168 C 
HETATM   58  C14 UNL     1     -17.112  12.525  31.245  1.00  0.00     0.168 C 
ENDBRANCH  46  56
BRANCH  50  59
HETATM   59  C16 UNL     1     -17.346   7.228  27.792  1.00  0.00     0.364 C 
HETATM   60  O2  UNL     1     -18.472   7.663  27.391  1.00  0.00    -0.283 OA
ENDBRANCH  50  59
ENDBRANCH  38  39
ENDBRANCH   5  38
TORSDOF 15
ENDMDL
MODEL 2
REMARK VINA RESULT: -9.468911844      2.106      5.631
REMARK  15 active torsions:
REMARK  status: ('A' for Active; 'I' for Inactive)
REMARK    1  A    between atoms: C2_2  and  C3_6 
REMARK       I    between atoms: C3_6  and  N2_8 
REMARK    2  A    between atoms: N2_8  and  C4_10 
REMARK    3  A    between atoms: C4_10  and  C5_11 
REMARK    4  A    between atoms: C4_10  and  N13_44 
REMARK    5  A    between atoms: C5_11  and  N3_12 
REMARK    6  A    between atoms: N3_12  and  C6_14 
REMARK    7  A    between atoms: N5_18  and  C8_19 
REMARK    8  A    between atoms: C8_19  and  C9_20 
REMARK    9  A    between atoms: C11_24  and  N7_25 
REMARK   10  A    between atoms: C12_30  and  N9_31 
REMARK   11  A    between atoms: N11_37  and  C16_38 
REMARK   12  A    between atoms: N13_44  and  C18_46 
REMARK   13  A    between atoms: C20_52  and  C21_53 
REMARK   14  A    between atoms: C21_53  and  O5_54 
REMARK   15  A    between atoms: O5_54  and  C22_55 
ROOT
HETATM    1  C6  UNL     1      -9.942   7.016  26.080  1.00  0.00     0.191 A 
HETATM    2  N4  UNL     1     -10.287   5.888  25.579  1.00  0.00    -0.348 N 
ATOM      3  H4  UNL     1      -9.653   5.210  25.157  1.00  0.00     0.163 HD
HETATM    4  C7  UNL     1     -11.729   5.730  25.708  1.00  0.00     0.237 A 
HETATM    5  N5  UNL     1     -12.209   6.894  26.427  1.00  0.00    -0.205 NA
HETATM    6  N12 UNL     1     -11.086   7.710  26.574  1.00  0.00    -0.288 N 
ATOM      7  H12 UNL     1     -11.083   8.650  26.970  1.00  0.00     0.184 HD
ENDROOT
BRANCH   1   8
HETATM    8  N3  UNL     1      -8.601   7.554  26.154  1.00  0.00    -0.337 N 
ATOM      9  H3  UNL     1      -8.280   8.219  25.450  1.00  0.00     0.168 HD
BRANCH   8  10
HETATM   10  C5  UNL     1      -7.741   7.161  27.194  1.00  0.00     0.110 C 
BRANCH  10  11
HETATM   11  C4  UNL     1      -6.720   6.106  26.948  1.00  0.00     0.220 C 
BRANCH  11  12
HETATM   12  N2  UNL     1      -7.438   4.823  27.173  1.00  0.00    -0.331 N 
HETATM   13  C3  UNL     1      -6.785   3.641  27.575  1.00  0.00     0.265 C 
HETATM   14  O1  UNL     1      -5.530   3.628  27.762  1.00  0.00    -0.266 OA
ATOM     15  H2  UNL     1      -8.448   4.797  27.031  1.00  0.00     0.165 HD
BRANCH  13  16
HETATM   16  C2  UNL     1      -7.498   2.387  27.797  1.00  0.00     0.067 C 
HETATM   17  C1  UNL     1      -7.028   1.385  28.751  1.00  0.00     0.074 C 
HETATM   18  N1  UNL     1      -8.597   2.190  27.097  1.00  0.00    -0.398 N 
ATOM     19  H12 UNL     1      -9.095   1.313  27.252  1.00  0.00     0.156 HD
ATOM     20  H11 UNL     1      -8.925   2.890  26.431  1.00  0.00     0.156 HD
ENDBRANCH  13  16
ENDBRANCH  11  12
BRANCH  11  21
HETATM   21  N13 UNL     1      -6.280   6.045  25.595  1.00  0.00    -0.382 N 
ATOM     22  H13 UNL     1      -5.477   6.603  25.304  1.00  0.00     0.156 HD
BRANCH  21  23
HETATM   23  C18 UNL     1      -6.929   5.234  24.658  1.00  0.00     0.208 C 
HETATM   24  C19 UNL     1      -7.447   5.865  23.411  1.00  0.00     0.265 C 
HETATM   25  O4  UNL     1      -8.429   6.581  23.075  1.00  0.00    -0.269 OA
HETATM   26  N14 UNL     1      -6.346   5.315  22.717  1.00  0.00    -0.242 N 
HETATM   27  N15 UNL     1      -5.513   5.235  21.588  1.00  0.00    -0.300 N 
HETATM   28  C24 UNL     1      -5.980   4.398  23.794  1.00  0.00     0.204 C 
HETATM   29  C20 UNL     1      -4.249   5.465  21.619  1.00  0.00     0.037 C 
ATOM     30  H15 UNL     1      -5.935   4.981  20.695  1.00  0.00     0.186 HD
HETATM   31  C23 UNL     1      -3.608   5.842  22.903  1.00  0.00     0.132 C 
HETATM   32  S1  UNL     1      -4.228   4.682  24.172  1.00  0.00    -0.133 SA
BRANCH  29  33
HETATM   33  C21 UNL     1      -3.418   5.370  20.431  1.00  0.00     0.234 C 
BRANCH  33  34
HETATM   34  O5  UNL     1      -2.609   6.453  20.124  1.00  0.00    -0.301 OA
BRANCH  34  35
HETATM   35  C22 UNL     1      -1.231   6.418  20.071  1.00  0.00     0.372 C 
HETATM   36  N16 UNL     1      -0.524   7.605  19.712  1.00  0.00    -0.032 NA
HETATM   37  O6  UNL     1      -0.598   5.365  20.329  1.00  0.00    -0.242 OA
ENDBRANCH  34  35
ENDBRANCH  33  34
ENDBRANCH  29  33
ENDBRANCH  21  23
ENDBRANCH  11  21
ENDBRANCH  10  11
ENDBRANCH   8  10
ENDBRANCH   1   8
BRANCH   5  38
HETATM   38  C8  UNL     1     -13.210   7.542  25.612  1.00  0.00     0.178 C 
BRANCH  38  39
HETATM   39  C9  UNL     1     -14.215   8.170  26.504  1.00  0.00     0.094 A 
HETATM   40  N6  UNL     1     -14.055   9.386  27.060  1.00  0.00    -0.348 N 
HETATM   41  C10 UNL     1     -14.977   9.943  27.849  1.00  0.00     0.123 A 
ATOM     42  H6  UNL     1     -13.196   9.901  26.871  1.00  0.00     0.166 HD
HETATM   43  C11 UNL     1     -14.745  11.182  28.376  1.00  0.00     0.145 A 
HETATM   44  C15 UNL     1     -16.160   9.300  28.144  1.00  0.00     0.163 A 
HETATM   45  N8  UNL     1     -15.688  11.733  29.175  1.00  0.00    -0.175 N 
HETATM   46  C12 UNL     1     -16.837  11.105  29.463  1.00  0.00     0.682 A 
ATOM     47  H8  UNL     1     -15.518  12.657  29.571  1.00  0.00     0.186 HD
HETATM   48  N10 UNL     1     -17.071   9.883  28.944  1.00  0.00    -0.173 N 
ATOM     49  H10 UNL     1     -17.942   9.399  29.158  1.00  0.00     0.186 HD
HETATM   50  N11 UNL     1     -16.357   8.073  27.604  1.00  0.00    -0.236 N 
HETATM   51  C17 UNL     1     -15.397   7.526  26.801  1.00  0.00     0.279 A 
HETATM   52  O3  UNL     1     -15.635   6.376  26.321  1.00  0.00    -0.265 OA
BRANCH  43  53
HETATM   53  N7  UNL     1     -13.670  11.846  28.133  1.00  0.00    -0.383 N 
ATOM     54  H72 UNL     1     -13.523  12.221  27.195  1.00  0.00     0.157 HD
ATOM     55  H71 UNL     1     -12.952  12.005  28.840  1.00  0.00     0.157 HD
ENDBRANCH  43  53
BRANCH  46  56
HETATM   56  N9  UNL     1     -17.768  11.755  30.312  1.00  0.00    -0.226 N 
HETATM   57  C13 UNL     1     -19.176  11.520  30.138  1.00  0.00     0.168 C 
HETATM   58  C14 UNL     1     -17.279  12.643  31.333  1.00  0.00     0.168 C 
ENDBRANCH  46  56
BRANCH  50  59
HETATM   59  C16 UNL     1     -17.541   7.346  27.858  1.00  0.00     0.364 C 
HETATM   60  O2  UNL     1     -18.576   7.582  27.159  1.00  0.00    -0.283 OA
ENDBRANCH  50  59
ENDBRANCH  38  39
ENDBRANCH   5  38
TORSDOF 15
ENDMDL
MODEL 3
REMARK VINA RESULT: -9.341644751      1.512      1.675
REMARK  15 active torsions:
REMARK  status: ('A' for Active; 'I' for Inactive)
REMARK    1  A    between atoms: C2_2  and  C3_6 
REMARK       I    between atoms: C3_6  and  N2_8 
REMARK    2  A    between atoms: N2_8  and  C4_10 
REMARK    3  A    between atoms: C4_10  and  C5_11 
REMARK    4  A    between atoms: C4_10  and  N13_44 
REMARK    5  A    between atoms: C5_11  and  N3_12 
REMARK    6  A    between atoms: N3_12  and  C6_14 
REMARK    7  A    between atoms: N5_18  and  C8_19 
REMARK    8  A    between atoms: C8_19  and  C9_20 
REMARK    9  A    between atoms: C11_24  and  N7_25 
REMARK   10  A    between atoms: C12_30  and  N9_31 
REMARK   11  A    between atoms: N11_37  and  C16_38 
REMARK   12  A    between atoms: N13_44  and  C18_46 
REMARK   13  A    between atoms: C20_52  and  C21_53 
REMARK   14  A    between atoms: C21_53  and  O5_54 
REMARK   15  A    between atoms: O5_54  and  C22_55 
ROOT
HETATM    1  C6  UNL     1      -9.752   6.824  25.281  1.00  0.00     0.191 A 
HETATM    2  N4  UNL     1     -10.219   5.693  25.664  1.00  0.00    -0.348 N 
ATOM      3  H4  UNL     1      -9.739   4.797  25.582  1.00  0.00     0.163 HD
HETATM    4  C7  UNL     1     -11.545   5.893  26.233  1.00  0.00     0.237 A 
HETATM    5  N5  UNL     1     -11.793   7.321  26.209  1.00  0.00    -0.205 NA
HETATM    6  N12 UNL     1     -10.693   7.863  25.541  1.00  0.00    -0.288 N 
ATOM      7  H12 UNL     1     -10.582   8.843  25.280  1.00  0.00     0.184 HD
ENDROOT
BRANCH   1   8
HETATM    8  N3  UNL     1      -8.465   7.063  24.665  1.00  0.00    -0.337 N 
ATOM      9  H3  UNL     1      -7.885   7.841  24.981  1.00  0.00     0.168 HD
BRANCH   8  10
HETATM   10  C5  UNL     1      -8.013   6.223  23.633  1.00  0.00     0.110 C 
BRANCH  10  11
HETATM   11  C4  UNL     1      -6.944   5.224  23.909  1.00  0.00     0.220 C 
BRANCH  11  12
HETATM   12  N2  UNL     1      -5.732   5.772  23.242  1.00  0.00    -0.331 N 
HETATM   13  C3  UNL     1      -4.462   5.173  23.353  1.00  0.00     0.265 C 
HETATM   14  O1  UNL     1      -4.302   4.120  24.043  1.00  0.00    -0.266 OA
ATOM     15  H2  UNL     1      -5.825   6.618  22.681  1.00  0.00     0.165 HD
BRANCH  13  16
HETATM   16  C2  UNL     1      -3.278   5.715  22.693  1.00  0.00     0.067 C 
HETATM   17  C1  UNL     1      -3.357   6.426  21.419  1.00  0.00     0.074 C 
HETATM   18  N1  UNL     1      -2.120   5.537  23.297  1.00  0.00    -0.398 N 
ATOM     19  H12 UNL     1      -1.293   5.916  22.835  1.00  0.00     0.156 HD
ATOM     20  H11 UNL     1      -2.066   5.041  24.187  1.00  0.00     0.156 HD
ENDBRANCH  13  16
ENDBRANCH  11  12
BRANCH  11  21
HETATM   21  N13 UNL     1      -6.593   5.133  25.286  1.00  0.00    -0.382 N 
ATOM     22  H13 UNL     1      -5.865   5.742  25.658  1.00  0.00     0.156 HD
BRANCH  21  23
HETATM   23  C18 UNL     1      -7.229   4.223  26.137  1.00  0.00     0.208 C 
HETATM   24  C19 UNL     1      -6.788   2.799  26.111  1.00  0.00     0.265 C 
HETATM   25  O4  UNL     1      -6.939   1.796  25.362  1.00  0.00    -0.269 OA
HETATM   26  N14 UNL     1      -6.096   3.028  27.322  1.00  0.00    -0.242 N 
HETATM   27  N15 UNL     1      -5.161   2.650  28.300  1.00  0.00    -0.300 N 
HETATM   28  C24 UNL     1      -6.762   4.300  27.594  1.00  0.00     0.204 C 
HETATM   29  C20 UNL     1      -4.127   3.351  28.604  1.00  0.00     0.037 C 
ATOM     30  H15 UNL     1      -5.310   1.772  28.795  1.00  0.00     0.186 HD
HETATM   31  C23 UNL     1      -3.880   4.631  27.897  1.00  0.00     0.132 C 
HETATM   32  S1  UNL     1      -5.465   5.540  27.866  1.00  0.00    -0.133 SA
BRANCH  29  33
HETATM   33  C21 UNL     1      -3.182   2.929  29.625  1.00  0.00     0.234 C 
BRANCH  33  34
HETATM   34  O5  UNL     1      -2.621   1.668  29.498  1.00  0.00    -0.301 OA
BRANCH  34  35
HETATM   35  C22 UNL     1      -3.031   0.549  30.193  1.00  0.00     0.372 C 
HETATM   36  N16 UNL     1      -2.046  -0.371  30.662  1.00  0.00    -0.032 NA
HETATM   37  O6  UNL     1      -4.248   0.332  30.415  1.00  0.00    -0.242 OA
ENDBRANCH  34  35
ENDBRANCH  33  34
ENDBRANCH  29  33
ENDBRANCH  21  23
ENDBRANCH  11  21
ENDBRANCH  10  11
ENDBRANCH   8  10
ENDBRANCH   1   8
BRANCH   5  38
HETATM   38  C8  UNL     1     -13.010   7.552  25.467  1.00  0.00     0.178 C 
BRANCH  38  39
HETATM   39  C9  UNL     1     -14.014   8.155  26.376  1.00  0.00     0.094 A 
HETATM   40  N6  UNL     1     -13.876   9.376  26.927  1.00  0.00    -0.348 N 
HETATM   41  C10 UNL     1     -14.798   9.912  27.732  1.00  0.00     0.123 A 
ATOM     42  H6  UNL     1     -13.034   9.914  26.721  1.00  0.00     0.166 HD
HETATM   43  C11 UNL     1     -14.588  11.157  28.253  1.00  0.00     0.145 A 
HETATM   44  C15 UNL     1     -15.958   9.238  28.050  1.00  0.00     0.163 A 
HETATM   45  N8  UNL     1     -15.530  11.685  29.067  1.00  0.00    -0.175 N 
HETATM   46  C12 UNL     1     -16.657  11.027  29.377  1.00  0.00     0.682 A 
ATOM     47  H8  UNL     1     -15.378  12.614  29.459  1.00  0.00     0.186 HD
HETATM   48  N10 UNL     1     -16.869   9.799  28.865  1.00  0.00    -0.173 N 
ATOM     49  H10 UNL     1     -17.723   9.293  29.096  1.00  0.00     0.186 HD
HETATM   50  N11 UNL     1     -16.132   8.006  27.515  1.00  0.00    -0.236 N 
HETATM   51  C17 UNL     1     -15.173   7.482  26.695  1.00  0.00     0.279 A 
HETATM   52  O3  UNL     1     -15.390   6.325  26.222  1.00  0.00    -0.265 OA
BRANCH  43  53
HETATM   53  N7  UNL     1     -13.535  11.848  27.988  1.00  0.00    -0.383 N 
ATOM     54  H72 UNL     1     -13.131  11.793  27.053  1.00  0.00     0.157 HD
ATOM     55  H71 UNL     1     -13.083  12.443  28.682  1.00  0.00     0.157 HD
ENDBRANCH  43  53
BRANCH  46  56
HETATM   56  N9  UNL     1     -17.589  11.656  30.242  1.00  0.00    -0.226 N 
HETATM   57  C13 UNL     1     -17.119  12.548  31.268  1.00  0.00     0.168 C 
HETATM   58  C14 UNL     1     -18.991  11.384  30.073  1.00  0.00     0.168 C 
ENDBRANCH  46  56
BRANCH  50  59
HETATM   59  C16 UNL     1     -17.292   7.248  27.792  1.00  0.00     0.364 C 
HETATM   60  O2  UNL     1     -18.409   7.627  27.316  1.00  0.00    -0.283 OA
ENDBRANCH  50  59
ENDBRANCH  38  39
ENDBRANCH   5  38
TORSDOF 15
ENDMDL
MODEL 4
REMARK VINA RESULT: -9.337139645      2.674      5.589
REMARK  15 active torsions:
REMARK  status: ('A' for Active; 'I' for Inactive)
REMARK    1  A    between atoms: C2_2  and  C3_6 
REMARK       I    between atoms: C3_6  and  N2_8 
REMARK    2  A    between atoms: N2_8  and  C4_10 
REMARK    3  A    between atoms: C4_10  and  C5_11 
REMARK    4  A    between atoms: C4_10  and  N13_44 
REMARK    5  A    between atoms: C5_11  and  N3_12 
REMARK    6  A    between atoms: N3_12  and  C6_14 
REMARK    7  A    between atoms: N5_18  and  C8_19 
REMARK    8  A    between atoms: C8_19  and  C9_20 
REMARK    9  A    between atoms: C11_24  and  N7_25 
REMARK   10  A    between atoms: C12_30  and  N9_31 
REMARK   11  A    between atoms: N11_37  and  C16_38 
REMARK   12  A    between atoms: N13_44  and  C18_46 
REMARK   13  A    between atoms: C20_52  and  C21_53 
REMARK   14  A    between atoms: C21_53  and  O5_54 
REMARK   15  A    between atoms: O5_54  and  C22_55 
ROOT
HETATM    1  C6  UNL     1     -10.051   6.238  26.621  1.00  0.00     0.191 A 
HETATM    2  N4  UNL     1     -10.297   5.462  25.631  1.00  0.00    -0.348 N 
ATOM      3  H4  UNL     1      -9.613   4.872  25.158  1.00  0.00     0.163 HD
HETATM    4  C7  UNL     1     -11.710   5.557  25.289  1.00  0.00     0.237 A 
HETATM    5  N5  UNL     1     -12.310   6.451  26.261  1.00  0.00    -0.205 NA
HETATM    6  N12 UNL     1     -11.238   6.917  27.025  1.00  0.00    -0.288 N 
ATOM      7  H12 UNL     1     -11.295   7.629  27.754  1.00  0.00     0.184 HD
ENDROOT
BRANCH   1   8
HETATM    8  N3  UNL     1      -8.772   6.435  27.267  1.00  0.00    -0.337 N 
ATOM      9  H3  UNL     1      -8.539   5.907  28.108  1.00  0.00     0.168 HD
BRANCH   8  10
HETATM   10  C5  UNL     1      -7.850   7.354  26.736  1.00  0.00     0.110 C 
BRANCH  10  11
HETATM   11  C4  UNL     1      -6.475   6.902  26.388  1.00  0.00     0.220 C 
BRANCH  11  12
HETATM   12  N2  UNL     1      -6.319   5.596  27.082  1.00  0.00    -0.331 N 
HETATM   13  C3  UNL     1      -5.066   4.983  27.286  1.00  0.00     0.265 C 
HETATM   14  O1  UNL     1      -4.002   5.537  26.875  1.00  0.00    -0.266 OA
ATOM     15  H2  UNL     1      -7.154   5.122  27.425  1.00  0.00     0.165 HD
BRANCH  13  16
HETATM   16  C2  UNL     1      -4.921   3.703  27.971  1.00  0.00     0.067 C 
HETATM   17  C1  UNL     1      -3.679   3.314  28.636  1.00  0.00     0.074 C 
HETATM   18  N1  UNL     1      -5.966   2.899  27.969  1.00  0.00    -0.398 N 
ATOM     19  H12 UNL     1      -5.864   2.004  28.448  1.00  0.00     0.156 HD
ATOM     20  H11 UNL     1      -6.834   3.171  27.505  1.00  0.00     0.156 HD
ENDBRANCH  13  16
ENDBRANCH  11  12
BRANCH  11  21
HETATM   21  N13 UNL     1      -6.308   6.603  25.005  1.00  0.00    -0.382 N 
ATOM     22  H13 UNL     1      -5.617   7.121  24.461  1.00  0.00     0.156 HD
BRANCH  21  23
HETATM   23  C18 UNL     1      -7.073   5.613  24.381  1.00  0.00     0.208 C 
HETATM   24  C19 UNL     1      -7.906   5.997  23.205  1.00  0.00     0.265 C 
HETATM   25  O4  UNL     1      -8.997   6.595  22.999  1.00  0.00    -0.269 OA
HETATM   26  N14 UNL     1      -6.940   5.393  22.369  1.00  0.00    -0.242 N 
HETATM   27  N15 UNL     1      -6.372   5.165  21.104  1.00  0.00    -0.300 N 
HETATM   28  C24 UNL     1      -6.267   4.692  23.460  1.00  0.00     0.204 C 
HETATM   29  C20 UNL     1      -5.157   5.460  20.806  1.00  0.00     0.037 C 
ATOM     30  H15 UNL     1      -6.956   4.742  20.383  1.00  0.00     0.186 HD
HETATM   31  C23 UNL     1      -4.285   6.081  21.833  1.00  0.00     0.132 C 
HETATM   32  S1  UNL     1      -4.508   5.124  23.374  1.00  0.00    -0.133 SA
BRANCH  29  33
HETATM   33  C21 UNL     1      -4.603   5.206  19.487  1.00  0.00     0.234 C 
BRANCH  33  34
HETATM   34  O5  UNL     1      -3.318   4.691  19.418  1.00  0.00    -0.301 OA
BRANCH  34  35
HETATM   35  C22 UNL     1      -2.172   5.447  19.281  1.00  0.00     0.372 C 
HETATM   36  N16 UNL     1      -2.166   6.528  18.349  1.00  0.00    -0.032 NA
HETATM   37  O6  UNL     1      -1.144   5.197  19.957  1.00  0.00    -0.242 OA
ENDBRANCH  34  35
ENDBRANCH  33  34
ENDBRANCH  29  33
ENDBRANCH  21  23
ENDBRANCH  11  21
ENDBRANCH  10  11
ENDBRANCH   8  10
ENDBRANCH   1   8
BRANCH   5  38
HETATM   38  C8  UNL     1     -12.938   7.536  25.544  1.00  0.00     0.178 C 
BRANCH  38  39
HETATM   39  C9  UNL     1     -13.972   8.145  26.415  1.00  0.00     0.094 A 
HETATM   40  N6  UNL     1     -13.843   9.360  26.980  1.00  0.00    -0.348 N 
HETATM   41  C10 UNL     1     -14.791   9.901  27.749  1.00  0.00     0.123 A 
ATOM     42  H6  UNL     1     -12.987   9.889  26.813  1.00  0.00     0.166 HD
HETATM   43  C11 UNL     1     -14.588  11.140  28.288  1.00  0.00     0.145 A 
HETATM   44  C15 UNL     1     -15.971   9.240  28.014  1.00  0.00     0.163 A 
HETATM   45  N8  UNL     1     -15.557  11.675  29.066  1.00  0.00    -0.175 N 
HETATM   46  C12 UNL     1     -16.704  11.029  29.324  1.00  0.00     0.682 A 
ATOM     47  H8  UNL     1     -15.410  12.599  29.470  1.00  0.00     0.186 HD
HETATM   48  N10 UNL     1     -16.909   9.807  28.794  1.00  0.00    -0.173 N 
ATOM     49  H10 UNL     1     -17.778   9.310  28.985  1.00  0.00     0.186 HD
HETATM   50  N11 UNL     1     -16.138   8.014  27.463  1.00  0.00    -0.236 N 
HETATM   51  C17 UNL     1     -15.152   7.484  26.680  1.00  0.00     0.279 A 
HETATM   52  O3  UNL     1     -15.362   6.333  26.190  1.00  0.00    -0.265 OA
BRANCH  43  53
HETATM   53  N7  UNL     1     -13.517  11.820  28.073  1.00  0.00    -0.383 N 
ATOM     54  H72 UNL     1     -13.169  11.904  27.117  1.00  0.00     0.157 HD
ATOM     55  H71 UNL     1     -12.996  12.273  28.823  1.00  0.00     0.157 HD
ENDBRANCH  43  53
BRANCH  46  56
HETATM   56  N9  UNL     1     -17.663  11.663  30.153  1.00  0.00    -0.226 N 
HETATM   57  C13 UNL     1     -17.226  12.543  31.205  1.00  0.00     0.168 C 
HETATM   58  C14 UNL     1     -19.061  11.409  29.925  1.00  0.00     0.168 C 
ENDBRANCH  46  56
BRANCH  50  59
HETATM   59  C16 UNL     1     -17.317   7.269  27.686  1.00  0.00     0.364 C 
HETATM   60  O2  UNL     1     -18.380   7.589  27.065  1.00  0.00    -0.283 OA
ENDBRANCH  50  59
ENDBRANCH  38  39
ENDBRANCH   5  38
TORSDOF 15
ENDMDL
MODEL 5
REMARK VINA RESULT: -9.327900422      2.593      3.356
REMARK  15 active torsions:
REMARK  status: ('A' for Active; 'I' for Inactive)
REMARK    1  A    between atoms: C2_2  and  C3_6 
REMARK       I    between atoms: C3_6  and  N2_8 
REMARK    2  A    between atoms: N2_8  and  C4_10 
REMARK    3  A    between atoms: C4_10  and  C5_11 
REMARK    4  A    between atoms: C4_10  and  N13_44 
REMARK    5  A    between atoms: C5_11  and  N3_12 
REMARK    6  A    between atoms: N3_12  and  C6_14 
REMARK    7  A    between atoms: N5_18  and  C8_19 
REMARK    8  A    between atoms: C8_19  and  C9_20 
REMARK    9  A    between atoms: C11_24  and  N7_25 
REMARK   10  A    between atoms: C12_30  and  N9_31 
REMARK   11  A    between atoms: N11_37  and  C16_38 
REMARK   12  A    between atoms: N13_44  and  C18_46 
REMARK   13  A    between atoms: C20_52  and  C21_53 
REMARK   14  A    between atoms: C21_53  and  O5_54 
REMARK   15  A    between atoms: O5_54  and  C22_55 
ROOT
HETATM    1  C6  UNL     1      -9.799   7.162  26.391  1.00  0.00     0.191 A 
HETATM    2  N4  UNL     1      -9.960   6.130  25.648  1.00  0.00    -0.348 N 
ATOM      3  H4  UNL     1      -9.211   5.595  25.209  1.00  0.00     0.163 HD
HETATM    4  C7  UNL     1     -11.383   5.841  25.533  1.00  0.00     0.237 A 
HETATM    5  N5  UNL     1     -12.068   6.806  26.372  1.00  0.00    -0.205 NA
HETATM    6  N12 UNL     1     -11.062   7.660  26.828  1.00  0.00    -0.288 N 
ATOM      7  H12 UNL     1     -11.206   8.503  27.383  1.00  0.00     0.184 HD
ENDROOT
BRANCH   1   8
HETATM    8  N3  UNL     1      -8.541   7.775  26.756  1.00  0.00    -0.337 N 
ATOM      9  H3  UNL     1      -8.451   8.263  27.647  1.00  0.00     0.168 HD
BRANCH   8  10
HETATM   10  C5  UNL     1      -7.442   7.699  25.883  1.00  0.00     0.110 C 
BRANCH  10  11
HETATM   11  C4  UNL     1      -6.207   6.987  26.312  1.00  0.00     0.220 C 
BRANCH  11  12
HETATM   12  N2  UNL     1      -5.955   7.466  27.697  1.00  0.00    -0.331 N 
HETATM   13  C3  UNL     1      -5.057   8.510  27.994  1.00  0.00     0.265 C 
HETATM   14  O1  UNL     1      -4.414   9.092  27.067  1.00  0.00    -0.266 OA
ATOM     15  H2  UNL     1      -6.454   7.020  28.466  1.00  0.00     0.165 HD
BRANCH  13  16
HETATM   16  C2  UNL     1      -4.818   8.977  29.356  1.00  0.00     0.067 C 
HETATM   17  C1  UNL     1      -3.521   9.498  29.782  1.00  0.00     0.074 C 
HETATM   18  N1  UNL     1      -5.830   8.912  30.199  1.00  0.00    -0.398 N 
ATOM     19  H12 UNL     1      -5.662   9.238  31.151  1.00  0.00     0.156 HD
ATOM     20  H11 UNL     1      -6.735   8.548  29.901  1.00  0.00     0.156 HD
ENDBRANCH  13  16
ENDBRANCH  11  12
BRANCH  11  21
HETATM   21  N13 UNL     1      -6.378   5.579  26.438  1.00  0.00    -0.382 N 
ATOM     22  H13 UNL     1      -7.319   5.185  26.423  1.00  0.00     0.156 HD
BRANCH  21  23
HETATM   23  C18 UNL     1      -5.279   4.726  26.585  1.00  0.00     0.208 C 
HETATM   24  C19 UNL     1      -4.739   4.493  27.955  1.00  0.00     0.265 C 
HETATM   25  O4  UNL     1      -4.028   5.117  28.789  1.00  0.00    -0.269 OA
HETATM   26  N14 UNL     1      -5.372   3.229  27.951  1.00  0.00    -0.242 N 
HETATM   27  N15 UNL     1      -5.826   2.074  28.609  1.00  0.00    -0.300 N 
HETATM   28  C24 UNL     1      -5.631   3.237  26.513  1.00  0.00     0.204 C 
HETATM   29  C20 UNL     1      -7.058   1.706  28.630  1.00  0.00     0.037 C 
ATOM     30  H15 UNL     1      -5.142   1.496  29.096  1.00  0.00     0.186 HD
HETATM   31  C23 UNL     1      -8.077   2.529  27.935  1.00  0.00     0.132 C 
HETATM   32  S1  UNL     1      -7.405   2.930  26.283  1.00  0.00    -0.133 SA
BRANCH  29  33
HETATM   33  C21 UNL     1      -7.491   0.502  29.320  1.00  0.00     0.234 C 
BRANCH  33  34
HETATM   34  O5  UNL     1      -6.518  -0.416  29.682  1.00  0.00    -0.301 OA
BRANCH  34  35
HETATM   35  C22 UNL     1      -6.027  -0.581  30.961  1.00  0.00     0.372 C 
HETATM   36  N16 UNL     1      -5.264   0.472  31.549  1.00  0.00    -0.032 NA
HETATM   37  O6  UNL     1      -6.240  -1.637  31.607  1.00  0.00    -0.242 OA
ENDBRANCH  34  35
ENDBRANCH  33  34
ENDBRANCH  29  33
ENDBRANCH  21  23
ENDBRANCH  11  21
ENDBRANCH  10  11
ENDBRANCH   8  10
ENDBRANCH   1   8
BRANCH   5  38
HETATM   38  C8  UNL     1     -13.015   7.522  25.550  1.00  0.00     0.178 C 
BRANCH  38  39
HETATM   39  C9  UNL     1     -14.042   8.132  26.429  1.00  0.00     0.094 A 
HETATM   40  N6  UNL     1     -13.914   9.354  26.980  1.00  0.00    -0.348 N 
HETATM   41  C10 UNL     1     -14.856   9.895  27.758  1.00  0.00     0.123 A 
ATOM     42  H6  UNL     1     -13.064   9.887  26.796  1.00  0.00     0.166 HD
HETATM   43  C11 UNL     1     -14.655  11.141  28.281  1.00  0.00     0.145 A 
HETATM   44  C15 UNL     1     -16.027   9.227  28.045  1.00  0.00     0.163 A 
HETATM   45  N8  UNL     1     -15.617  11.675  29.068  1.00  0.00    -0.175 N 
HETATM   46  C12 UNL     1     -16.755  11.023  29.348  1.00  0.00     0.682 A 
ATOM     47  H8  UNL     1     -15.472  12.605  29.460  1.00  0.00     0.186 HD
HETATM   48  N10 UNL     1     -16.958   9.795  28.833  1.00  0.00    -0.173 N 
ATOM     49  H10 UNL     1     -17.820   9.292  29.042  1.00  0.00     0.186 HD
HETATM   50  N11 UNL     1     -16.192   7.994  27.510  1.00  0.00    -0.236 N 
HETATM   51  C17 UNL     1     -15.212   7.464  26.718  1.00  0.00     0.279 A 
HETATM   52  O3  UNL     1     -15.420   6.306  26.242  1.00  0.00    -0.265 OA
BRANCH  43  53
HETATM   53  N7  UNL     1     -13.593  11.827  28.044  1.00  0.00    -0.383 N 
ATOM     54  H72 UNL     1     -13.183  11.796  27.110  1.00  0.00     0.157 HD
ATOM     55  H71 UNL     1     -13.137  12.396  28.757  1.00  0.00     0.157 HD
ENDBRANCH  43  53
BRANCH  46  56
HETATM   56  N9  UNL     1     -17.708  11.658  30.184  1.00  0.00    -0.226 N 
HETATM   57  C13 UNL     1     -17.262  12.531  31.238  1.00  0.00     0.168 C 
HETATM   58  C14 UNL     1     -19.107  11.412  29.961  1.00  0.00     0.168 C 
ENDBRANCH  46  56
BRANCH  50  59
HETATM   59  C16 UNL     1     -17.361   7.242  27.757  1.00  0.00     0.364 C 
HETATM   60  O2  UNL     1     -18.430   7.535  27.132  1.00  0.00    -0.283 OA
ENDBRANCH  50  59
ENDBRANCH  38  39
ENDBRANCH   5  38
TORSDOF 15
ENDMDL
