MODEL 1
REMARK VINA RESULT: -5.241925980      0.000      0.000
REMARK  15 active torsions:
REMARK  status: ('A' for Active; 'I' for Inactive)
REMARK    1  A    between atoms: O1_1  and  C1_3 
REMARK    2  A    between atoms: C1_3  and  N1_4 
REMARK    3  A    between atoms: C1_3  and  N2_13 
REMARK    4  A    between atoms: C3_6  and  O2_7 
REMARK    5  A    between atoms: C4_9  and  O3_10 
REMARK    6  A    between atoms: C7_15  and  O4_16 
REMARK    7  A    between atoms: C8_18  and  O5_19 
REMARK    8  A    between atoms: C9_21  and  O6_22 
REMARK    9  A    between atoms: C10_24  and  C11_25 
REMARK   10  A    between atoms: C11_25  and  S1_26 
REMARK   11  A    between atoms: S1_26  and  S2_27 
REMARK   12  A    between atoms: S2_27  and  C12_28 
REMARK   13  A    between atoms: C12_28  and  C13_29 
REMARK   14  A    between atoms: C13_29  and  N3_30 
REMARK   15  A    between atoms: N3_30  and  C14_33 
ROOT
HETATM    1  N2  UNL     1      14.047  27.447  38.204  1.00  0.00    -0.337 N 
HETATM    2  C6  UNL     1      13.189  27.979  37.212  1.00  0.00     0.161 C 
HETATM    3  C7  UNL     1      11.752  28.205  37.658  1.00  0.00     0.167 C 
HETATM    4  C8  UNL     1      11.520  27.481  38.970  1.00  0.00     0.179 C 
HETATM    5  C9  UNL     1      12.530  27.985  39.998  1.00  0.00     0.173 C 
HETATM    6  C10 UNL     1      13.931  27.627  39.670  1.00  0.00     0.129 C 
ENDROOT
BRANCH   6   7
HETATM    7  C11 UNL     1      14.866  28.725  40.068  1.00  0.00     0.114 C 
BRANCH   7   8
HETATM    8  S1  UNL     1      16.109  28.547  41.251  1.00  0.00    -0.096 SA
BRANCH   8   9
HETATM    9  S2  UNL     1      16.266  29.980  42.720  1.00  0.00    -0.096 SA
BRANCH   9  10
HETATM   10  C12 UNL     1      15.457  31.498  42.280  1.00  0.00     0.113 C 
BRANCH  10  11
HETATM   11  C13 UNL     1      14.225  31.624  43.204  1.00  0.00     0.243 C 
BRANCH  11  12
HETATM   12  N3  UNL     1      13.082  31.092  42.471  1.00  0.00    -0.068 N 
ATOM     13  H32 UNL     1      12.874  31.639  41.635  1.00  0.00     0.277 HD
ATOM     14  H31 UNL     1      13.298  30.205  42.016  1.00  0.00     0.277 HD
BRANCH  12  15
HETATM   15  C14 UNL     1      11.952  30.990  43.340  1.00  0.00     0.211 C 
HETATM   16  C15 UNL     1      10.725  31.529  42.625  1.00  0.00     0.061 C 
HETATM   17  C16 UNL     1      10.047  32.306  43.708  1.00  0.00     0.169 C 
HETATM   18  O7  UNL     1      10.935  32.572  44.714  1.00  0.00    -0.389 OA
HETATM   19  C17 UNL     1      12.117  31.907  44.513  1.00  0.00     0.200 C 
ENDBRANCH  12  15
ENDBRANCH  11  12
ENDBRANCH  10  11
ENDBRANCH   9  10
ENDBRANCH   8   9
ENDBRANCH   7   8
ENDBRANCH   6   7
BRANCH   1  20
HETATM   20  C1  UNL     1      15.186  26.691  37.790  1.00  0.00     0.217 C 
BRANCH  20  21
HETATM   21  O1  UNL     1      15.205  25.481  38.285  1.00  0.00    -0.332 OA
ATOM     22  H1  UNL     1      15.799  25.281  38.999  1.00  0.00     0.220 HD
ENDBRANCH  20  21
BRANCH  20  23
HETATM   23  N1  UNL     1      16.219  27.099  36.957  1.00  0.00    -0.343 N 
HETATM   24  C2  UNL     1      15.972  28.265  36.022  1.00  0.00     0.160 C 
HETATM   25  C3  UNL     1      17.310  28.891  35.809  1.00  0.00     0.166 C 
HETATM   26  C4  UNL     1      18.225  28.121  36.735  1.00  0.00     0.166 C 
HETATM   27  C5  UNL     1      17.563  26.728  36.625  1.00  0.00     0.160 C 
BRANCH  25  28
HETATM   28  O2  UNL     1      17.781  28.647  34.502  1.00  0.00    -0.391 OA
ATOM     29  H2  UNL     1      18.466  29.261  34.266  1.00  0.00     0.210 HD
ENDBRANCH  25  28
BRANCH  26  30
HETATM   30  O3  UNL     1      18.057  28.643  38.011  1.00  0.00    -0.391 OA
ATOM     31  H3  UNL     1      18.556  28.097  38.607  1.00  0.00     0.210 HD
ENDBRANCH  26  30
ENDBRANCH  20  23
ENDBRANCH   1  20
BRANCH   5  32
HETATM   32  O6  UNL     1      12.438  29.377  40.024  1.00  0.00    -0.391 OA
ATOM     33  H6  UNL     1      12.967  29.682  40.752  1.00  0.00     0.210 HD
ENDBRANCH   5  32
BRANCH   4  34
HETATM   34  O5  UNL     1      11.655  26.115  38.827  1.00  0.00    -0.390 OA
ATOM     35  H5  UNL     1      11.897  25.699  39.646  1.00  0.00     0.210 HD
ENDBRANCH   4  34
BRANCH   3  36
HETATM   36  O4  UNL     1      11.545  29.566  37.834  1.00  0.00    -0.391 OA
ATOM     37  H4  UNL     1      10.649  29.775  37.595  1.00  0.00     0.210 HD
ENDBRANCH   3  36
TORSDOF 15
ENDMDL
MODEL 2
REMARK VINA RESULT: -5.237344628      2.573      3.616
REMARK  15 active torsions:
REMARK  status: ('A' for Active; 'I' for Inactive)
REMARK    1  A    between atoms: O1_1  and  C1_3 
REMARK    2  A    between atoms: C1_3  and  N1_4 
REMARK    3  A    between atoms: C1_3  and  N2_13 
REMARK    4  A    between atoms: C3_6  and  O2_7 
REMARK    5  A    between atoms: C4_9  and  O3_10 
REMARK    6  A    between atoms: C7_15  and  O4_16 
REMARK    7  A    between atoms: C8_18  and  O5_19 
REMARK    8  A    between atoms: C9_21  and  O6_22 
REMARK    9  A    between atoms: C10_24  and  C11_25 
REMARK   10  A    between atoms: C11_25  and  S1_26 
REMARK   11  A    between atoms: S1_26  and  S2_27 
REMARK   12  A    between atoms: S2_27  and  C12_28 
REMARK   13  A    between atoms: C12_28  and  C13_29 
REMARK   14  A    between atoms: C13_29  and  N3_30 
REMARK   15  A    between atoms: N3_30  and  C14_33 
ROOT
HETATM    1  N2  UNL     1      13.913  27.572  38.896  1.00  0.00    -0.337 N 
HETATM    2  C6  UNL     1      14.551  27.438  40.152  1.00  0.00     0.161 C 
HETATM    3  C7  UNL     1      14.369  28.617  41.095  1.00  0.00     0.167 C 
HETATM    4  C8  UNL     1      13.821  29.797  40.315  1.00  0.00     0.179 C 
HETATM    5  C9  UNL     1      12.512  29.383  39.647  1.00  0.00     0.173 C 
HETATM    6  C10 UNL     1      12.688  28.349  38.598  1.00  0.00     0.129 C 
ENDROOT
BRANCH   6   7
HETATM    7  C11 UNL     1      11.535  27.397  38.594  1.00  0.00     0.114 C 
BRANCH   7   8
HETATM    8  S1  UNL     1       9.988  27.763  37.925  1.00  0.00    -0.096 SA
BRANCH   8   9
HETATM    9  S2  UNL     1       8.458  28.240  39.215  1.00  0.00    -0.096 SA
BRANCH   9  10
HETATM   10  C12 UNL     1       8.490  29.946  39.708  1.00  0.00     0.113 C 
BRANCH  10  11
HETATM   11  C13 UNL     1       8.404  29.960  41.251  1.00  0.00     0.243 C 
BRANCH  11  12
HETATM   12  N3  UNL     1       9.646  30.545  41.745  1.00  0.00    -0.068 N 
ATOM     13  H32 UNL     1      10.410  29.869  41.753  1.00  0.00     0.277 HD
ATOM     14  H31 UNL     1      10.045  31.211  41.084  1.00  0.00     0.277 HD
BRANCH  12  15
HETATM   15  C14 UNL     1       9.430  31.128  43.032  1.00  0.00     0.211 C 
HETATM   16  C15 UNL     1       8.171  31.976  42.988  1.00  0.00     0.061 C 
HETATM   17  C16 UNL     1       8.576  33.181  43.775  1.00  0.00     0.169 C 
HETATM   18  O7  UNL     1       9.940  33.248  43.852  1.00  0.00    -0.389 OA
HETATM   19  C17 UNL     1      10.516  32.112  43.342  1.00  0.00     0.200 C 
ENDBRANCH  12  15
ENDBRANCH  11  12
ENDBRANCH  10  11
ENDBRANCH   9  10
ENDBRANCH   8   9
ENDBRANCH   7   8
ENDBRANCH   6   7
BRANCH   1  20
HETATM   20  C1  UNL     1      14.446  26.859  37.778  1.00  0.00     0.217 C 
BRANCH  20  21
HETATM   21  O1  UNL     1      13.689  25.864  37.396  1.00  0.00    -0.332 OA
ATOM     22  H1  UNL     1      12.746  25.977  37.382  1.00  0.00     0.220 HD
ENDBRANCH  20  21
BRANCH  20  23
HETATM   23  N1  UNL     1      15.630  27.111  37.098  1.00  0.00    -0.343 N 
HETATM   24  C2  UNL     1      15.605  28.096  35.948  1.00  0.00     0.160 C 
HETATM   25  C3  UNL     1      16.981  28.668  35.888  1.00  0.00     0.166 C 
HETATM   26  C4  UNL     1      17.680  28.069  37.088  1.00  0.00     0.166 C 
HETATM   27  C5  UNL     1      16.998  26.681  37.095  1.00  0.00     0.160 C 
BRANCH  25  28
HETATM   28  O2  UNL     1      17.678  28.197  34.755  1.00  0.00    -0.391 OA
ATOM     29  H2  UNL     1      18.598  28.427  34.800  1.00  0.00     0.210 HD
ENDBRANCH  25  28
BRANCH  26  30
HETATM   30  O3  UNL     1      17.297  28.807  38.200  1.00  0.00    -0.391 OA
ATOM     31  H3  UNL     1      17.902  28.596  38.902  1.00  0.00     0.210 HD
ENDBRANCH  26  30
ENDBRANCH  20  23
ENDBRANCH   1  20
BRANCH   5  32
HETATM   32  O6  UNL     1      11.689  28.850  40.640  1.00  0.00    -0.391 OA
ATOM     33  H6  UNL     1      11.445  27.974  40.366  1.00  0.00     0.210 HD
ENDBRANCH   5  32
BRANCH   4  34
HETATM   34  O5  UNL     1      14.711  30.226  39.351  1.00  0.00    -0.390 OA
ATOM     35  H5  UNL     1      15.596  30.285  39.693  1.00  0.00     0.210 HD
ENDBRANCH   4  34
BRANCH   3  36
HETATM   36  O4  UNL     1      13.471  28.262  42.092  1.00  0.00    -0.391 OA
ATOM     37  H4  UNL     1      13.279  29.028  42.621  1.00  0.00     0.210 HD
ENDBRANCH   3  36
TORSDOF 15
ENDMDL
MODEL 3
REMARK VINA RESULT: -5.229018337      6.045      8.878
REMARK  15 active torsions:
REMARK  status: ('A' for Active; 'I' for Inactive)
REMARK    1  A    between atoms: O1_1  and  C1_3 
REMARK    2  A    between atoms: C1_3  and  N1_4 
REMARK    3  A    between atoms: C1_3  and  N2_13 
REMARK    4  A    between atoms: C3_6  and  O2_7 
REMARK    5  A    between atoms: C4_9  and  O3_10 
REMARK    6  A    between atoms: C7_15  and  O4_16 
REMARK    7  A    between atoms: C8_18  and  O5_19 
REMARK    8  A    between atoms: C9_21  and  O6_22 
REMARK    9  A    between atoms: C10_24  and  C11_25 
REMARK   10  A    between atoms: C11_25  and  S1_26 
REMARK   11  A    between atoms: S1_26  and  S2_27 
REMARK   12  A    between atoms: S2_27  and  C12_28 
REMARK   13  A    between atoms: C12_28  and  C13_29 
REMARK   14  A    between atoms: C13_29  and  N3_30 
REMARK   15  A    between atoms: N3_30  and  C14_33 
ROOT
HETATM    1  N2  UNL     1       6.715  27.835  34.550  1.00  0.00    -0.337 N 
HETATM    2  C6  UNL     1       5.916  28.471  33.570  1.00  0.00     0.161 C 
HETATM    3  C7  UNL     1       4.463  28.686  33.964  1.00  0.00     0.167 C 
HETATM    4  C8  UNL     1       4.153  27.853  35.193  1.00  0.00     0.179 C 
HETATM    5  C9  UNL     1       5.119  28.242  36.309  1.00  0.00     0.173 C 
HETATM    6  C10 UNL     1       6.529  27.885  36.018  1.00  0.00     0.129 C 
ENDROOT
BRANCH   6   7
HETATM    7  C11 UNL     1       7.460  28.923  36.558  1.00  0.00     0.114 C 
BRANCH   7   8
HETATM    8  S1  UNL     1       8.365  28.739  38.016  1.00  0.00    -0.096 SA
BRANCH   8   9
HETATM    9  S2  UNL     1      10.253  27.929  37.894  1.00  0.00    -0.096 SA
BRANCH   9  10
HETATM   10  C12 UNL     1      11.512  29.050  38.452  1.00  0.00     0.113 C 
BRANCH  10  11
HETATM   11  C13 UNL     1      12.778  28.200  38.702  1.00  0.00     0.243 C 
BRANCH  11  12
HETATM   12  N3  UNL     1      13.820  28.712  37.819  1.00  0.00    -0.068 N 
ATOM     13  H32 UNL     1      13.468  29.429  37.187  1.00  0.00     0.277 HD
ATOM     14  H31 UNL     1      14.503  29.279  38.321  1.00  0.00     0.277 HD
BRANCH  12  15
HETATM   15  C14 UNL     1      14.434  27.630  37.115  1.00  0.00     0.211 C 
HETATM   16  C15 UNL     1      15.843  28.034  36.716  1.00  0.00     0.061 C 
HETATM   17  C16 UNL     1      15.943  27.490  35.326  1.00  0.00     0.169 C 
HETATM   18  O7  UNL     1      14.692  27.245  34.832  1.00  0.00    -0.389 OA
HETATM   19  C17 UNL     1      13.740  27.404  35.807  1.00  0.00     0.200 C 
ENDBRANCH  12  15
ENDBRANCH  11  12
ENDBRANCH  10  11
ENDBRANCH   9  10
ENDBRANCH   8   9
ENDBRANCH   7   8
ENDBRANCH   6   7
BRANCH   1  20
HETATM   20  C1  UNL     1       7.860  27.094  34.125  1.00  0.00     0.217 C 
BRANCH  20  21
HETATM   21  O1  UNL     1       8.983  27.740  34.303  1.00  0.00    -0.332 OA
ATOM     22  H1  UNL     1       9.308  28.306  33.612  1.00  0.00     0.220 HD
ENDBRANCH  20  21
BRANCH  20  23
HETATM   23  N1  UNL     1       7.889  25.823  33.568  1.00  0.00    -0.343 N 
HETATM   24  C2  UNL     1       9.200  25.312  33.007  1.00  0.00     0.160 C 
HETATM   25  C3  UNL     1       9.133  23.827  33.136  1.00  0.00     0.166 C 
HETATM   26  C4  UNL     1       7.839  23.582  33.879  1.00  0.00     0.166 C 
HETATM   27  C5  UNL     1       6.997  24.736  33.285  1.00  0.00     0.160 C 
BRANCH  25  28
HETATM   28  O2  UNL     1       8.980  23.215  31.874  1.00  0.00    -0.391 OA
ATOM     29  H2  UNL     1       9.033  22.269  31.945  1.00  0.00     0.210 HD
ENDBRANCH  25  28
BRANCH  26  30
HETATM   30  O3  UNL     1       8.088  23.803  35.228  1.00  0.00    -0.391 OA
ATOM     31  H3  UNL     1       7.562  24.548  35.494  1.00  0.00     0.210 HD
ENDBRANCH  26  30
ENDBRANCH  20  23
ENDBRANCH   1  20
BRANCH   5  32
HETATM   32  O6  UNL     1       5.049  29.628  36.457  1.00  0.00    -0.391 OA
ATOM     33  H6  UNL     1       5.639  29.868  37.162  1.00  0.00     0.210 HD
ENDBRANCH   5  32
BRANCH   4  34
HETATM   34  O5  UNL     1       4.272  26.502  34.934  1.00  0.00    -0.390 OA
ATOM     35  H5  UNL     1       5.156  26.273  34.673  1.00  0.00     0.210 HD
ENDBRANCH   4  34
BRANCH   3  36
HETATM   36  O4  UNL     1       4.269  30.029  34.252  1.00  0.00    -0.391 OA
ATOM     37  H4  UNL     1       3.346  30.236  34.156  1.00  0.00     0.210 HD
ENDBRANCH   3  36
TORSDOF 15
ENDMDL
MODEL 4
REMARK VINA RESULT: -5.217432337      2.336      3.549
REMARK  15 active torsions:
REMARK  status: ('A' for Active; 'I' for Inactive)
REMARK    1  A    between atoms: O1_1  and  C1_3 
REMARK    2  A    between atoms: C1_3  and  N1_4 
REMARK    3  A    between atoms: C1_3  and  N2_13 
REMARK    4  A    between atoms: C3_6  and  O2_7 
REMARK    5  A    between atoms: C4_9  and  O3_10 
REMARK    6  A    between atoms: C7_15  and  O4_16 
REMARK    7  A    between atoms: C8_18  and  O5_19 
REMARK    8  A    between atoms: C9_21  and  O6_22 
REMARK    9  A    between atoms: C10_24  and  C11_25 
REMARK   10  A    between atoms: C11_25  and  S1_26 
REMARK   11  A    between atoms: S1_26  and  S2_27 
REMARK   12  A    between atoms: S2_27  and  C12_28 
REMARK   13  A    between atoms: C12_28  and  C13_29 
REMARK   14  A    between atoms: C13_29  and  N3_30 
REMARK   15  A    between atoms: N3_30  and  C14_33 
ROOT
HETATM    1  N2  UNL     1      15.523  27.864  37.847  1.00  0.00    -0.337 N 
HETATM    2  C6  UNL     1      15.325  27.927  36.447  1.00  0.00     0.161 C 
HETATM    3  C7  UNL     1      13.939  27.516  35.974  1.00  0.00     0.167 C 
HETATM    4  C8  UNL     1      13.216  26.813  37.106  1.00  0.00     0.179 C 
HETATM    5  C9  UNL     1      13.162  27.747  38.313  1.00  0.00     0.173 C 
HETATM    6  C10 UNL     1      14.495  28.029  38.899  1.00  0.00     0.129 C 
ENDROOT
BRANCH   6   7
HETATM    7  C11 UNL     1      14.570  29.439  39.391  1.00  0.00     0.114 C 
BRANCH   7   8
HETATM    8  S1  UNL     1      14.335  29.897  41.037  1.00  0.00    -0.096 SA
BRANCH   8   9
HETATM    9  S2  UNL     1      12.629  29.257  41.992  1.00  0.00    -0.096 SA
BRANCH   9  10
HETATM   10  C12 UNL     1      11.161  29.555  41.038  1.00  0.00     0.113 C 
BRANCH  10  11
HETATM   11  C13 UNL     1       9.975  29.504  42.027  1.00  0.00     0.243 C 
BRANCH  11  12
HETATM   12  N3  UNL     1       9.347  30.821  42.012  1.00  0.00    -0.068 N 
ATOM     13  H32 UNL     1       9.796  31.452  41.349  1.00  0.00     0.277 HD
ATOM     14  H31 UNL     1       8.420  30.798  41.588  1.00  0.00     0.277 HD
BRANCH  12  15
HETATM   15  C14 UNL     1       9.321  31.361  43.335  1.00  0.00     0.211 C 
HETATM   16  C15 UNL     1       8.151  32.322  43.455  1.00  0.00     0.061 C 
HETATM   17  C16 UNL     1       8.748  33.448  44.238  1.00  0.00     0.169 C 
HETATM   18  O7  UNL     1      10.112  33.385  44.173  1.00  0.00    -0.389 OA
HETATM   19  C17 UNL     1      10.522  32.226  43.564  1.00  0.00     0.200 C 
ENDBRANCH  12  15
ENDBRANCH  11  12
ENDBRANCH  10  11
ENDBRANCH   9  10
ENDBRANCH   8   9
ENDBRANCH   7   8
ENDBRANCH   6   7
BRANCH   1  20
HETATM   20  C1  UNL     1      16.849  27.670  38.342  1.00  0.00     0.217 C 
BRANCH  20  21
HETATM   21  O1  UNL     1      17.649  28.667  38.071  1.00  0.00    -0.332 OA
ATOM     22  H1  UNL     1      17.377  29.322  37.439  1.00  0.00     0.220 HD
ENDBRANCH  20  21
BRANCH  20  23
HETATM   23  N1  UNL     1      17.340  26.577  39.045  1.00  0.00    -0.343 N 
HETATM   24  C2  UNL     1      17.468  26.688  40.550  1.00  0.00     0.160 C 
HETATM   25  C3  UNL     1      17.330  25.292  41.061  1.00  0.00     0.166 C 
HETATM   26  C4  UNL     1      17.006  24.481  39.827  1.00  0.00     0.166 C 
HETATM   27  C5  UNL     1      17.853  25.262  38.795  1.00  0.00     0.160 C 
BRANCH  25  28
HETATM   28  O2  UNL     1      18.565  24.803  41.538  1.00  0.00    -0.391 OA
ATOM     29  H2  UNL     1      18.747  25.129  42.411  1.00  0.00     0.210 HD
ENDBRANCH  25  28
BRANCH  26  30
HETATM   30  O3  UNL     1      15.651  24.643  39.570  1.00  0.00    -0.391 OA
ATOM     31  H3  UNL     1      15.574  25.162  38.778  1.00  0.00     0.210 HD
ENDBRANCH  26  30
ENDBRANCH  20  23
ENDBRANCH   1  20
BRANCH   5  32
HETATM   32  O6  UNL     1      12.620  28.957  37.878  1.00  0.00    -0.391 OA
ATOM     33  H6  UNL     1      13.329  29.588  37.842  1.00  0.00     0.210 HD
ENDBRANCH   5  32
BRANCH   4  34
HETATM   34  O5  UNL     1      13.851  25.640  37.464  1.00  0.00    -0.390 OA
ATOM     35  H5  UNL     1      13.471  25.260  38.247  1.00  0.00     0.210 HD
ENDBRANCH   4  34
BRANCH   3  36
HETATM   36  O4  UNL     1      13.233  28.652  35.606  1.00  0.00    -0.391 OA
ATOM     37  H4  UNL     1      12.450  28.716  36.142  1.00  0.00     0.210 HD
ENDBRANCH   3  36
TORSDOF 15
ENDMDL
MODEL 5
REMARK VINA RESULT: -5.190707305      2.161      3.010
REMARK  15 active torsions:
REMARK  status: ('A' for Active; 'I' for Inactive)
REMARK    1  A    between atoms: O1_1  and  C1_3 
REMARK    2  A    between atoms: C1_3  and  N1_4 
REMARK    3  A    between atoms: C1_3  and  N2_13 
REMARK    4  A    between atoms: C3_6  and  O2_7 
REMARK    5  A    between atoms: C4_9  and  O3_10 
REMARK    6  A    between atoms: C7_15  and  O4_16 
REMARK    7  A    between atoms: C8_18  and  O5_19 
REMARK    8  A    between atoms: C9_21  and  O6_22 
REMARK    9  A    between atoms: C10_24  and  C11_25 
REMARK   10  A    between atoms: C11_25  and  S1_26 
REMARK   11  A    between atoms: S1_26  and  S2_27 
REMARK   12  A    between atoms: S2_27  and  C12_28 
REMARK   13  A    between atoms: C12_28  and  C13_29 
REMARK   14  A    between atoms: C13_29  and  N3_30 
REMARK   15  A    between atoms: N3_30  and  C14_33 
ROOT
HETATM    1  N2  UNL     1      15.635  27.774  37.735  1.00  0.00    -0.337 N 
HETATM    2  C6  UNL     1      15.313  27.911  36.363  1.00  0.00     0.161 C 
HETATM    3  C7  UNL     1      13.888  27.525  35.995  1.00  0.00     0.167 C 
HETATM    4  C8  UNL     1      13.266  26.765  37.150  1.00  0.00     0.179 C 
HETATM    5  C9  UNL     1      13.324  27.634  38.403  1.00  0.00     0.173 C 
HETATM    6  C10 UNL     1      14.706  27.884  38.882  1.00  0.00     0.129 C 
ENDROOT
BRANCH   6   7
HETATM    7  C11 UNL     1      14.832  29.267  39.437  1.00  0.00     0.114 C 
BRANCH   7   8
HETATM    8  S1  UNL     1      14.618  29.657  41.104  1.00  0.00    -0.096 SA
BRANCH   8   9
HETATM    9  S2  UNL     1      13.095  28.731  42.132  1.00  0.00    -0.096 SA
BRANCH   9  10
HETATM   10  C12 UNL     1      11.490  29.169  41.513  1.00  0.00     0.113 C 
BRANCH  10  11
HETATM   11  C13 UNL     1      11.203  30.604  42.010  1.00  0.00     0.243 C 
BRANCH  11  12
HETATM   12  N3  UNL     1       9.759  30.717  42.185  1.00  0.00    -0.068 N 
ATOM     13  H32 UNL     1       9.314  31.194  41.401  1.00  0.00     0.277 HD
ATOM     14  H31 UNL     1       9.290  29.816  42.095  1.00  0.00     0.277 HD
BRANCH  12  15
HETATM   15  C14 UNL     1       9.470  31.351  43.433  1.00  0.00     0.211 C 
HETATM   16  C15 UNL     1       8.284  32.283  43.253  1.00  0.00     0.061 C 
HETATM   17  C16 UNL     1       8.701  33.480  44.047  1.00  0.00     0.169 C 
HETATM   18  O7  UNL     1      10.053  33.454  44.249  1.00  0.00    -0.389 OA
HETATM   19  C17 UNL     1      10.590  32.266  43.820  1.00  0.00     0.200 C 
ENDBRANCH  12  15
ENDBRANCH  11  12
ENDBRANCH  10  11
ENDBRANCH   9  10
ENDBRANCH   8   9
ENDBRANCH   7   8
ENDBRANCH   6   7
BRANCH   1  20
HETATM   20  C1  UNL     1      16.999  27.553  38.098  1.00  0.00     0.217 C 
BRANCH  20  21
HETATM   21  O1  UNL     1      17.649  28.660  38.349  1.00  0.00    -0.332 OA
ATOM     22  H1  UNL     1      17.308  29.261  39.001  1.00  0.00     0.220 HD
ENDBRANCH  20  21
BRANCH  20  23
HETATM   23  N1  UNL     1      17.663  26.338  38.203  1.00  0.00    -0.343 N 
HETATM   24  C2  UNL     1      18.664  25.969  37.128  1.00  0.00     0.160 C 
HETATM   25  C3  UNL     1      19.650  25.072  37.798  1.00  0.00     0.166 C 
HETATM   26  C4  UNL     1      19.226  25.080  39.249  1.00  0.00     0.166 C 
HETATM   27  C5  UNL     1      17.695  25.183  39.053  1.00  0.00     0.160 C 
BRANCH  25  28
HETATM   28  O2  UNL     1      19.505  23.739  37.356  1.00  0.00    -0.391 OA
ATOM     29  H2  UNL     1      19.044  23.215  38.001  1.00  0.00     0.210 HD
ENDBRANCH  25  28
BRANCH  26  30
HETATM   30  O3  UNL     1      19.725  26.244  39.819  1.00  0.00    -0.391 OA
ATOM     31  H3  UNL     1      18.983  26.808  40.006  1.00  0.00     0.210 HD
ENDBRANCH  26  30
ENDBRANCH  20  23
ENDBRANCH   1  20
BRANCH   5  32
HETATM   32  O6  UNL     1      12.752  28.866  38.082  1.00  0.00    -0.391 OA
ATOM     33  H6  UNL     1      12.726  28.928  37.134  1.00  0.00     0.210 HD
ENDBRANCH   5  32
BRANCH   4  34
HETATM   34  O5  UNL     1      13.924  25.575  37.388  1.00  0.00    -0.390 OA
ATOM     35  H5  UNL     1      13.822  25.292  38.289  1.00  0.00     0.210 HD
ENDBRANCH   4  34
BRANCH   3  36
HETATM   36  O4  UNL     1      13.158  28.680  35.752  1.00  0.00    -0.391 OA
ATOM     37  H4  UNL     1      12.688  28.920  36.543  1.00  0.00     0.210 HD
ENDBRANCH   3  36
TORSDOF 15
ENDMDL
