MODEL 1
REMARK VINA RESULT: -6.727394650      0.000      0.000
REMARK  2 active torsions:
REMARK  status: ('A' for Active; 'I' for Inactive)
REMARK    1  A    between atoms: N1_1  and  C1_4 
REMARK    2  A    between atoms: C6_15  and  N4_16 
ROOT
HETATM    1  C1  UNL     1       6.157  24.256  35.803  1.00  0.00     0.686 A 
HETATM    2  N2  UNL     1       5.453  25.089  35.004  1.00  0.00    -0.156 N 
ATOM      3  H2  UNL     1       5.424  26.092  35.189  1.00  0.00     0.187 HD
HETATM    4  C2  UNL     1       4.796  24.562  33.961  1.00  0.00     0.263 A 
HETATM    5  O1  UNL     1       4.145  25.351  33.228  1.00  0.00    -0.268 OA
HETATM    6  C3  UNL     1       4.845  23.204  33.721  1.00  0.00     0.124 A 
HETATM    7  C4  UNL     1       5.568  22.362  34.543  1.00  0.00     0.136 A 
HETATM    8  N3  UNL     1       5.613  21.024  34.300  1.00  0.00    -0.306 N 
ATOM      9  H3  UNL     1       5.101  20.657  33.497  1.00  0.00     0.170 HD
HETATM   10  C5  UNL     1       6.296  20.171  35.065  1.00  0.00     0.281 A 
HETATM   11  O2  UNL     1       6.373  18.932  34.892  1.00  0.00    -0.265 OA
HETATM   12  C6  UNL     1       6.972  20.708  36.136  1.00  0.00     0.187 A 
HETATM   13  C7  UNL     1       6.914  22.073  36.367  1.00  0.00     0.158 A 
HETATM   14  N5  UNL     1       6.222  22.921  35.590  1.00  0.00    -0.141 N 
ENDROOT
BRANCH   1  15
HETATM   15  N1  UNL     1       6.774  24.774  36.787  1.00  0.00    -0.234 N 
ATOM     16  H12 UNL     1       6.425  25.632  37.215  1.00  0.00     0.174 HD
ATOM     17  H11 UNL     1       7.614  24.297  37.118  1.00  0.00     0.174 HD
ENDBRANCH   1  15
BRANCH  12  18
HETATM   18  N4  UNL     1       7.717  19.863  36.988  1.00  0.00    -0.108 N 
HETATM   19  O3  UNL     1       8.857  19.517  36.637  1.00  0.00    -0.532 OA
HETATM   20  O4  UNL     1       7.179  19.449  38.170  1.00  0.00    -0.532 OA
ENDBRANCH  12  18
TORSDOF 2
ENDMDL
MODEL 2
REMARK VINA RESULT: -6.481567279      1.744      2.964
REMARK  2 active torsions:
REMARK  status: ('A' for Active; 'I' for Inactive)
REMARK    1  A    between atoms: N1_1  and  C1_4 
REMARK    2  A    between atoms: C6_15  and  N4_16 
ROOT
HETATM    1  C1  UNL     1       5.677  23.382  34.848  1.00  0.00     0.686 A 
HETATM    2  N2  UNL     1       5.835  24.613  35.386  1.00  0.00    -0.156 N 
ATOM      3  H2  UNL     1       5.427  25.436  34.941  1.00  0.00     0.187 HD
HETATM    4  C2  UNL     1       6.542  24.723  36.519  1.00  0.00     0.263 A 
HETATM    5  O1  UNL     1       6.681  25.876  37.006  1.00  0.00    -0.268 OA
HETATM    6  C3  UNL     1       7.088  23.603  37.112  1.00  0.00     0.124 A 
HETATM    7  C4  UNL     1       6.919  22.350  36.554  1.00  0.00     0.136 A 
HETATM    8  N3  UNL     1       7.459  21.249  37.144  1.00  0.00    -0.306 N 
ATOM      9  H3  UNL     1       7.991  21.370  38.006  1.00  0.00     0.170 HD
HETATM   10  C5  UNL     1       7.325  20.019  36.644  1.00  0.00     0.281 A 
HETATM   11  O2  UNL     1       7.798  18.971  37.141  1.00  0.00    -0.265 OA
HETATM   12  C6  UNL     1       6.600  19.903  35.481  1.00  0.00     0.187 A 
HETATM   13  C7  UNL     1       6.057  21.036  34.895  1.00  0.00     0.158 A 
HETATM   14  N5  UNL     1       6.201  22.267  35.408  1.00  0.00    -0.141 N 
ENDROOT
BRANCH   1  15
HETATM   15  N1  UNL     1       5.003  23.298  33.772  1.00  0.00    -0.234 N 
ATOM     16  H12 UNL     1       4.539  24.124  33.394  1.00  0.00     0.174 HD
ATOM     17  H11 UNL     1       4.955  22.384  33.320  1.00  0.00     0.174 HD
ENDBRANCH   1  15
BRANCH  12  18
HETATM   18  N4  UNL     1       6.416  18.630  34.896  1.00  0.00    -0.108 N 
HETATM   19  O3  UNL     1       5.334  18.044  35.069  1.00  0.00    -0.532 OA
HETATM   20  O4  UNL     1       7.417  18.073  34.157  1.00  0.00    -0.532 OA
ENDBRANCH  12  18
TORSDOF 2
ENDMDL
MODEL 3
REMARK VINA RESULT: -6.373383757      1.880      3.092
REMARK  2 active torsions:
REMARK  status: ('A' for Active; 'I' for Inactive)
REMARK    1  A    between atoms: N1_1  and  C1_4 
REMARK    2  A    between atoms: C6_15  and  N4_16 
ROOT
HETATM    1  C1  UNL     1       5.900  22.867  34.859  1.00  0.00     0.686 A 
HETATM    2  N2  UNL     1       6.204  24.075  35.385  1.00  0.00    -0.156 N 
ATOM      3  H2  UNL     1       5.913  24.936  34.922  1.00  0.00     0.187 HD
HETATM    4  C2  UNL     1       6.899  24.111  36.531  1.00  0.00     0.263 A 
HETATM    5  O1  UNL     1       7.175  25.243  37.006  1.00  0.00    -0.268 OA
HETATM    6  C3  UNL     1       7.286  22.939  37.148  1.00  0.00     0.124 A 
HETATM    7  C4  UNL     1       6.969  21.710  36.603  1.00  0.00     0.136 A 
HETATM    8  N3  UNL     1       7.353  20.558  37.217  1.00  0.00    -0.306 N 
ATOM      9  H3  UNL     1       7.879  20.622  38.088  1.00  0.00     0.170 HD
HETATM   10  C5  UNL     1       7.071  19.348  36.730  1.00  0.00     0.281 A 
HETATM   11  O2  UNL     1       7.398  18.255  37.249  1.00  0.00    -0.265 OA
HETATM   12  C6  UNL     1       6.359  19.308  35.553  1.00  0.00     0.187 A 
HETATM   13  C7  UNL     1       5.977  20.491  34.943  1.00  0.00     0.158 A 
HETATM   14  N5  UNL     1       6.267  21.702  35.444  1.00  0.00    -0.141 N 
ENDROOT
BRANCH   1  15
HETATM   15  N1  UNL     1       5.241  22.853  33.771  1.00  0.00    -0.234 N 
ATOM     16  H12 UNL     1       4.307  23.261  33.735  1.00  0.00     0.174 HD
ATOM     17  H11 UNL     1       5.687  22.424  32.959  1.00  0.00     0.174 HD
ENDBRANCH   1  15
BRANCH  12  18
HETATM   18  N4  UNL     1       6.025  18.060  34.981  1.00  0.00    -0.108 N 
HETATM   19  O3  UNL     1       6.709  17.635  34.035  1.00  0.00    -0.532 OA
HETATM   20  O4  UNL     1       4.970  17.350  35.473  1.00  0.00    -0.532 OA
ENDBRANCH  12  18
TORSDOF 2
ENDMDL
MODEL 4
REMARK VINA RESULT: -6.040670213      3.131      3.902
REMARK  2 active torsions:
REMARK  status: ('A' for Active; 'I' for Inactive)
REMARK    1  A    between atoms: N1_1  and  C1_4 
REMARK    2  A    between atoms: C6_15  and  N4_16 
ROOT
HETATM    1  C1  UNL     1       8.083  20.607  36.413  1.00  0.00     0.686 A 
HETATM    2  N2  UNL     1       8.358  21.911  36.642  1.00  0.00    -0.156 N 
ATOM      3  H2  UNL     1       9.320  22.230  36.763  1.00  0.00     0.187 HD
HETATM    4  C2  UNL     1       7.334  22.774  36.704  1.00  0.00     0.263 A 
HETATM    5  O1  UNL     1       7.607  23.983  36.919  1.00  0.00    -0.268 OA
HETATM    6  C3  UNL     1       6.037  22.330  36.537  1.00  0.00     0.124 A 
HETATM    7  C4  UNL     1       5.768  20.995  36.303  1.00  0.00     0.136 A 
HETATM    8  N3  UNL     1       4.488  20.564  36.138  1.00  0.00    -0.306 N 
ATOM      9  H3  UNL     1       3.733  21.248  36.191  1.00  0.00     0.170 HD
HETATM   10  C5  UNL     1       4.177  19.287  35.910  1.00  0.00     0.281 A 
HETATM   11  O2  UNL     1       3.020  18.831  35.752  1.00  0.00    -0.265 OA
HETATM   12  C6  UNL     1       5.226  18.399  35.846  1.00  0.00     0.187 A 
HETATM   13  C7  UNL     1       6.523  18.857  36.016  1.00  0.00     0.158 A 
HETATM   14  N5  UNL     1       6.822  20.145  36.245  1.00  0.00    -0.141 N 
ENDROOT
BRANCH   1  15
HETATM   15  N1  UNL     1       9.068  19.804  36.357  1.00  0.00    -0.234 N 
ATOM     16  H12 UNL     1       9.805  19.851  37.060  1.00  0.00     0.174 HD
ATOM     17  H11 UNL     1       9.078  19.128  35.593  1.00  0.00     0.174 HD
ENDBRANCH   1  15
BRANCH  12  18
HETATM   18  N4  UNL     1       4.970  17.030  35.606  1.00  0.00    -0.108 N 
HETATM   19  O3  UNL     1       5.010  16.611  34.438  1.00  0.00    -0.532 OA
HETATM   20  O4  UNL     1       4.689  16.201  36.652  1.00  0.00    -0.532 OA
ENDBRANCH  12  18
TORSDOF 2
ENDMDL
MODEL 5
REMARK VINA RESULT: -6.021336297      2.156      5.001
REMARK  2 active torsions:
REMARK  status: ('A' for Active; 'I' for Inactive)
REMARK    1  A    between atoms: N1_1  and  C1_4 
REMARK    2  A    between atoms: C6_15  and  N4_16 
ROOT
HETATM    1  C1  UNL     1       7.985  19.519  35.962  1.00  0.00     0.686 A 
HETATM    2  N2  UNL     1       7.742  18.214  35.707  1.00  0.00    -0.156 N 
ATOM      3  H2  UNL     1       8.466  17.509  35.849  1.00  0.00     0.187 HD
HETATM    4  C2  UNL     1       6.524  17.870  35.264  1.00  0.00     0.263 A 
HETATM    5  O1  UNL     1       6.314  16.651  35.030  1.00  0.00    -0.268 OA
HETATM    6  C3  UNL     1       5.553  18.833  35.078  1.00  0.00     0.124 A 
HETATM    7  C4  UNL     1       5.811  20.164  35.343  1.00  0.00     0.136 A 
HETATM    8  N3  UNL     1       4.850  21.108  35.159  1.00  0.00    -0.306 N 
ATOM      9  H3  UNL     1       3.934  20.812  34.822  1.00  0.00     0.170 HD
HETATM   10  C5  UNL     1       5.051  22.405  35.400  1.00  0.00     0.281 A 
HETATM   11  O2  UNL     1       4.206  23.318  35.249  1.00  0.00    -0.265 OA
HETATM   12  C6  UNL     1       6.300  22.761  35.855  1.00  0.00     0.187 A 
HETATM   13  C7  UNL     1       7.266  21.785  36.037  1.00  0.00     0.158 A 
HETATM   14  N5  UNL     1       7.051  20.484  35.789  1.00  0.00    -0.141 N 
ENDROOT
BRANCH   1  15
HETATM   15  N1  UNL     1       9.146  19.826  36.382  1.00  0.00    -0.234 N 
ATOM     16  H12 UNL     1       9.303  19.988  37.377  1.00  0.00     0.174 HD
ATOM     17  H11 UNL     1       9.891  19.897  35.688  1.00  0.00     0.174 HD
ENDBRANCH   1  15
BRANCH  12  18
HETATM   18  N4  UNL     1       6.583  24.117  36.132  1.00  0.00    -0.108 N 
HETATM   19  O3  UNL     1       7.372  24.386  37.053  1.00  0.00    -0.532 OA
HETATM   20  O4  UNL     1       5.994  25.097  35.389  1.00  0.00    -0.532 OA
ENDBRANCH  12  18
TORSDOF 2
ENDMDL
