MODEL 1
REMARK VINA RESULT: -6.907963660      0.000      0.000
REMARK  9 active torsions:
REMARK  status: ('A' for Active; 'I' for Inactive)
REMARK    1  A    between atoms: N1_1  and  C1_5 
REMARK    2  A    between atoms: C8_15  and  O1_16 
REMARK    3  A    between atoms: O1_16  and  N3_17 
REMARK       I    between atoms: N3_17  and  C9_19 
REMARK    4  A    between atoms: C9_19  and  C10_21 
REMARK       I    between atoms: C10_21  and  N4_23 
REMARK    5  A    between atoms: N4_23  and  O4_25 
REMARK    6  A    between atoms: O4_25  and  C11_26 
REMARK    7  A    between atoms: C11_26  and  C12_27 
REMARK    8  A    between atoms: C12_27  and  O5_28 
REMARK    9  A    between atoms: O5_28  and  S1_29 
ROOT
HETATM    1  O1  UNL     1      31.174  19.855  -0.735  1.00  0.00    -0.267 OA
ENDROOT
BRANCH   1   2
HETATM    2  C8  UNL     1      30.367  20.790  -1.309  1.00  0.00     0.218 C 
HETATM    3  C1  UNL     1      29.257  20.077  -2.146  1.00  0.00     0.217 C 
HETATM    4  C2  UNL     1      28.783  21.148  -3.095  1.00  0.00     0.038 C 
HETATM    5  C3  UNL     1      29.731  22.311  -2.948  1.00  0.00     0.044 C 
HETATM    6  C4  UNL     1      30.981  21.582  -2.429  1.00  0.00     0.156 C 
HETATM    7  C5  UNL     1      32.064  22.517  -2.080  1.00  0.00     0.043 C 
HETATM    8  N2  UNL     1      31.459  20.716  -3.491  1.00  0.00    -0.064 N 
HETATM    9  C6  UNL     1      33.333  21.900  -2.661  1.00  0.00     0.030 C 
HETATM   10  C7  UNL     1      32.884  20.651  -3.373  1.00  0.00     0.233 C 
ATOM     11  H22 UNL     1      31.016  19.797  -3.488  1.00  0.00     0.278 HD
ATOM     12  H21 UNL     1      31.148  21.009  -4.416  1.00  0.00     0.278 HD
BRANCH   3  13
HETATM   13  N1  UNL     1      28.258  19.672  -1.212  1.00  0.00    -0.072 N 
ATOM     14  H13 UNL     1      28.445  18.732  -0.865  1.00  0.00     0.274 HD
ATOM     15  H12 UNL     1      28.345  20.193  -0.338  1.00  0.00     0.274 HD
ATOM     16  H11 UNL     1      27.310  19.742  -1.582  1.00  0.00     0.274 HD
ENDBRANCH   3  13
ENDBRANCH   1   2
BRANCH   1  17
HETATM   17  N3  UNL     1      31.640  20.079   0.484  1.00  0.00    -0.226 N 
HETATM   18  C9  UNL     1      32.975  20.099   0.926  1.00  0.00     0.335 C 
HETATM   19  O2  UNL     1      33.913  19.892   0.124  1.00  0.00    -0.260 OA
ATOM     20  H3  UNL     1      30.936  20.261   1.199  1.00  0.00     0.198 HD
BRANCH  18  21
HETATM   21  C10 UNL     1      33.312  20.353   2.308  1.00  0.00     0.335 C 
HETATM   22  O3  UNL     1      33.942  21.417   2.597  1.00  0.00    -0.260 OA
HETATM   23  N4  UNL     1      32.937  19.426   3.316  1.00  0.00    -0.227 N 
ATOM     24  H4  UNL     1      32.432  18.579   3.057  1.00  0.00     0.198 HD
BRANCH  23  25
HETATM   25  O4  UNL     1      33.237  19.647   4.609  1.00  0.00    -0.275 OA
BRANCH  25  26
HETATM   26  C11 UNL     1      34.289  18.807   4.968  1.00  0.00     0.229 C 
BRANCH  26  27
HETATM   27  C12 UNL     1      35.496  19.569   5.406  1.00  0.00     0.221 C 
BRANCH  27  28
HETATM   28  O5  UNL     1      35.167  20.923   5.453  1.00  0.00    -0.255 OA
BRANCH  28  29
HETATM   29  S1  UNL     1      36.592  21.802   5.512  1.00  0.00     0.251 S 
HETATM   30  O6  UNL     1      36.527  22.904   6.556  1.00  0.00    -0.572 OA
HETATM   31  O7  UNL     1      37.714  20.849   5.798  1.00  0.00    -0.572 OA
HETATM   32  O8  UNL     1      36.856  22.584   4.036  1.00  0.00    -0.572 OA
ENDBRANCH  28  29
ENDBRANCH  27  28
ENDBRANCH  26  27
ENDBRANCH  25  26
ENDBRANCH  23  25
ENDBRANCH  18  21
ENDBRANCH   1  17
TORSDOF 9
ENDMDL
MODEL 2
REMARK VINA RESULT: -6.853341810      1.697      2.098
REMARK  9 active torsions:
REMARK  status: ('A' for Active; 'I' for Inactive)
REMARK    1  A    between atoms: N1_1  and  C1_5 
REMARK    2  A    between atoms: C8_15  and  O1_16 
REMARK    3  A    between atoms: O1_16  and  N3_17 
REMARK       I    between atoms: N3_17  and  C9_19 
REMARK    4  A    between atoms: C9_19  and  C10_21 
REMARK       I    between atoms: C10_21  and  N4_23 
REMARK    5  A    between atoms: N4_23  and  O4_25 
REMARK    6  A    between atoms: O4_25  and  C11_26 
REMARK    7  A    between atoms: C11_26  and  C12_27 
REMARK    8  A    between atoms: C12_27  and  O5_28 
REMARK    9  A    between atoms: O5_28  and  S1_29 
ROOT
HETATM    1  O1  UNL     1      31.261  19.746  -1.024  1.00  0.00    -0.267 OA
ENDROOT
BRANCH   1   2
HETATM    2  C8  UNL     1      30.497  20.846  -1.278  1.00  0.00     0.218 C 
HETATM    3  C1  UNL     1      29.233  20.424  -2.094  1.00  0.00     0.217 C 
HETATM    4  C2  UNL     1      28.773  21.712  -2.728  1.00  0.00     0.038 C 
HETATM    5  C3  UNL     1      29.847  22.736  -2.466  1.00  0.00     0.044 C 
HETATM    6  C4  UNL     1      31.064  21.814  -2.278  1.00  0.00     0.156 C 
HETATM    7  C5  UNL     1      32.271  22.561  -1.886  1.00  0.00     0.043 C 
HETATM    8  N2  UNL     1      31.329  21.168  -3.551  1.00  0.00    -0.064 N 
HETATM    9  C6  UNL     1      33.396  21.990  -2.743  1.00  0.00     0.030 C 
HETATM   10  C7  UNL     1      32.743  20.968  -3.636  1.00  0.00     0.233 C 
ATOM     11  H22 UNL     1      30.795  20.310  -3.682  1.00  0.00     0.278 HD
ATOM     12  H21 UNL     1      30.949  21.682  -4.346  1.00  0.00     0.278 HD
BRANCH   3  13
HETATM   13  N1  UNL     1      28.306  19.903  -1.143  1.00  0.00    -0.072 N 
ATOM     14  H13 UNL     1      27.435  20.434  -1.156  1.00  0.00     0.274 HD
ATOM     15  H12 UNL     1      27.952  18.993  -1.441  1.00  0.00     0.274 HD
ATOM     16  H11 UNL     1      28.686  19.852  -0.198  1.00  0.00     0.274 HD
ENDBRANCH   3  13
ENDBRANCH   1   2
BRANCH   1  17
HETATM   17  N3  UNL     1      31.602  19.485   0.230  1.00  0.00    -0.226 N 
HETATM   18  C9  UNL     1      32.867  19.580   0.835  1.00  0.00     0.335 C 
HETATM   19  O2  UNL     1      33.860  19.959   0.175  1.00  0.00    -0.260 OA
ATOM     20  H3  UNL     1      30.844  19.174   0.837  1.00  0.00     0.198 HD
BRANCH  18  21
HETATM   21  C10 UNL     1      33.068  19.245   2.226  1.00  0.00     0.335 C 
HETATM   22  O3  UNL     1      33.269  18.030   2.539  1.00  0.00    -0.260 OA
HETATM   23  N4  UNL     1      33.044  20.262   3.216  1.00  0.00    -0.227 N 
ATOM     24  H4  UNL     1      32.880  21.229   2.938  1.00  0.00     0.198 HD
BRANCH  23  25
HETATM   25  O4  UNL     1      33.235  19.972   4.515  1.00  0.00    -0.275 OA
BRANCH  25  26
HETATM   26  C11 UNL     1      34.592  20.098   4.801  1.00  0.00     0.229 C 
BRANCH  26  27
HETATM   27  C12 UNL     1      35.132  18.904   5.518  1.00  0.00     0.221 C 
BRANCH  27  28
HETATM   28  O5  UNL     1      36.228  19.308   6.280  1.00  0.00    -0.255 OA
BRANCH  28  29
HETATM   29  S1  UNL     1      37.287  18.015   6.392  1.00  0.00     0.251 S 
HETATM   30  O6  UNL     1      37.579  17.654   7.838  1.00  0.00    -0.572 OA
HETATM   31  O7  UNL     1      36.686  16.856   5.655  1.00  0.00    -0.572 OA
HETATM   32  O8  UNL     1      38.780  18.425   5.711  1.00  0.00    -0.572 OA
ENDBRANCH  28  29
ENDBRANCH  27  28
ENDBRANCH  26  27
ENDBRANCH  25  26
ENDBRANCH  23  25
ENDBRANCH  18  21
ENDBRANCH   1  17
TORSDOF 9
ENDMDL
MODEL 3
REMARK VINA RESULT: -6.809319113      1.297      1.755
REMARK  9 active torsions:
REMARK  status: ('A' for Active; 'I' for Inactive)
REMARK    1  A    between atoms: N1_1  and  C1_5 
REMARK    2  A    between atoms: C8_15  and  O1_16 
REMARK    3  A    between atoms: O1_16  and  N3_17 
REMARK       I    between atoms: N3_17  and  C9_19 
REMARK    4  A    between atoms: C9_19  and  C10_21 
REMARK       I    between atoms: C10_21  and  N4_23 
REMARK    5  A    between atoms: N4_23  and  O4_25 
REMARK    6  A    between atoms: O4_25  and  C11_26 
REMARK    7  A    between atoms: C11_26  and  C12_27 
REMARK    8  A    between atoms: C12_27  and  O5_28 
REMARK    9  A    between atoms: O5_28  and  S1_29 
ROOT
HETATM    1  O1  UNL     1      31.669  19.599  -0.520  1.00  0.00    -0.267 OA
ENDROOT
BRANCH   1   2
HETATM    2  C8  UNL     1      30.941  20.661  -0.967  1.00  0.00     0.218 C 
HETATM    3  C1  UNL     1      29.812  20.152  -1.920  1.00  0.00     0.217 C 
HETATM    4  C2  UNL     1      29.437  21.378  -2.713  1.00  0.00     0.038 C 
HETATM    5  C3  UNL     1      30.453  22.441  -2.380  1.00  0.00     0.044 C 
HETATM    6  C4  UNL     1      31.637  21.561  -1.948  1.00  0.00     0.156 C 
HETATM    7  C5  UNL     1      32.768  22.361  -1.447  1.00  0.00     0.043 C 
HETATM    8  N2  UNL     1      32.089  20.825  -3.115  1.00  0.00    -0.064 N 
HETATM    9  C6  UNL     1      34.011  21.748  -2.086  1.00  0.00     0.030 C 
HETATM   10  C7  UNL     1      33.503  20.648  -2.981  1.00  0.00     0.233 C 
ATOM     11  H22 UNL     1      31.588  19.949  -3.254  1.00  0.00     0.278 HD
ATOM     12  H21 UNL     1      31.824  21.269  -3.994  1.00  0.00     0.278 HD
BRANCH   3  13
HETATM   13  N1  UNL     1      28.762  19.687  -1.074  1.00  0.00    -0.072 N 
ATOM     14  H13 UNL     1      28.943  19.935  -0.101  1.00  0.00     0.274 HD
ATOM     15  H12 UNL     1      27.908  20.224  -1.227  1.00  0.00     0.274 HD
ATOM     16  H11 UNL     1      28.584  18.687  -1.168  1.00  0.00     0.274 HD
ENDBRANCH   3  13
ENDBRANCH   1   2
BRANCH   1  17
HETATM   17  N3  UNL     1      32.024  19.564   0.755  1.00  0.00    -0.226 N 
HETATM   18  C9  UNL     1      33.316  19.581   1.310  1.00  0.00     0.335 C 
HETATM   19  O2  UNL     1      34.324  19.642   0.571  1.00  0.00    -0.260 OA
ATOM     20  H3  UNL     1      31.257  19.518   1.426  1.00  0.00     0.198 HD
BRANCH  18  21
HETATM   21  C10 UNL     1      33.528  19.527   2.738  1.00  0.00     0.335 C 
HETATM   22  O3  UNL     1      33.154  18.493   3.372  1.00  0.00    -0.260 OA
HETATM   23  N4  UNL     1      34.148  20.614   3.410  1.00  0.00    -0.227 N 
ATOM     24  H4  UNL     1      34.438  21.434   2.876  1.00  0.00     0.198 HD
BRANCH  23  25
HETATM   25  O4  UNL     1      34.359  20.581   4.738  1.00  0.00    -0.275 OA
BRANCH  25  26
HETATM   26  C11 UNL     1      35.722  20.402   4.963  1.00  0.00     0.229 C 
BRANCH  26  27
HETATM   27  C12 UNL     1      36.460  21.699   5.022  1.00  0.00     0.221 C 
BRANCH  27  28
HETATM   28  O5  UNL     1      36.782  21.961   6.353  1.00  0.00    -0.255 OA
BRANCH  28  29
HETATM   29  S1  UNL     1      38.434  21.755   6.537  1.00  0.00     0.251 S 
HETATM   30  O6  UNL     1      38.776  20.337   6.963  1.00  0.00    -0.572 OA
HETATM   31  O7  UNL     1      39.095  22.106   5.238  1.00  0.00    -0.572 OA
HETATM   32  O8  UNL     1      39.012  22.756   7.772  1.00  0.00    -0.572 OA
ENDBRANCH  28  29
ENDBRANCH  27  28
ENDBRANCH  26  27
ENDBRANCH  25  26
ENDBRANCH  23  25
ENDBRANCH  18  21
ENDBRANCH   1  17
TORSDOF 9
ENDMDL
MODEL 4
REMARK VINA RESULT: -6.783603317      5.735      8.531
REMARK  9 active torsions:
REMARK  status: ('A' for Active; 'I' for Inactive)
REMARK    1  A    between atoms: N1_1  and  C1_5 
REMARK    2  A    between atoms: C8_15  and  O1_16 
REMARK    3  A    between atoms: O1_16  and  N3_17 
REMARK       I    between atoms: N3_17  and  C9_19 
REMARK    4  A    between atoms: C9_19  and  C10_21 
REMARK       I    between atoms: C10_21  and  N4_23 
REMARK    5  A    between atoms: N4_23  and  O4_25 
REMARK    6  A    between atoms: O4_25  and  C11_26 
REMARK    7  A    between atoms: C11_26  and  C12_27 
REMARK    8  A    between atoms: C12_27  and  O5_28 
REMARK    9  A    between atoms: O5_28  and  S1_29 
ROOT
HETATM    1  O1  UNL     1      27.614  25.915  -5.699  1.00  0.00    -0.267 OA
ENDROOT
BRANCH   1   2
HETATM    2  C8  UNL     1      27.584  26.810  -4.672  1.00  0.00     0.218 C 
HETATM    3  C1  UNL     1      26.370  27.776  -4.859  1.00  0.00     0.217 C 
HETATM    4  C2  UNL     1      26.729  28.968  -4.008  1.00  0.00     0.038 C 
HETATM    5  C3  UNL     1      28.156  28.772  -3.563  1.00  0.00     0.044 C 
HETATM    6  C4  UNL     1      28.668  27.850  -4.682  1.00  0.00     0.156 C 
HETATM    7  C5  UNL     1      30.046  27.392  -4.437  1.00  0.00     0.043 C 
HETATM    8  N2  UNL     1      28.661  28.612  -5.918  1.00  0.00    -0.064 N 
HETATM    9  C6  UNL     1      30.764  27.535  -5.776  1.00  0.00     0.030 C 
HETATM   10  C7  UNL     1      29.749  28.134  -6.714  1.00  0.00     0.233 C 
ATOM     11  H22 UNL     1      27.765  28.577  -6.404  1.00  0.00     0.278 HD
ATOM     12  H21 UNL     1      28.689  29.620  -5.767  1.00  0.00     0.278 HD
BRANCH   3  13
HETATM   13  N1  UNL     1      25.227  27.069  -4.381  1.00  0.00    -0.072 N 
ATOM     14  H13 UNL     1      25.328  26.841  -3.392  1.00  0.00     0.274 HD
ATOM     15  H12 UNL     1      24.415  27.686  -4.328  1.00  0.00     0.274 HD
ATOM     16  H11 UNL     1      25.013  26.235  -4.927  1.00  0.00     0.274 HD
ENDBRANCH   3  13
ENDBRANCH   1   2
BRANCH   1  17
HETATM   17  N3  UNL     1      27.891  24.648  -5.430  1.00  0.00    -0.226 N 
HETATM   18  C9  UNL     1      29.015  23.894  -5.808  1.00  0.00     0.335 C 
HETATM   19  O2  UNL     1      29.929  24.413  -6.487  1.00  0.00    -0.260 OA
ATOM     20  H3  UNL     1      27.194  24.153  -4.874  1.00  0.00     0.198 HD
BRANCH  18  21
HETATM   21  C10 UNL     1      29.157  22.505  -5.434  1.00  0.00     0.335 C 
HETATM   22  O3  UNL     1      29.674  21.698  -6.268  1.00  0.00    -0.260 OA
HETATM   23  N4  UNL     1      28.727  22.062  -4.156  1.00  0.00    -0.227 N 
ATOM     24  H4  UNL     1      28.314  22.731  -3.506  1.00  0.00     0.198 HD
BRANCH  23  25
HETATM   25  O4  UNL     1      28.855  20.775  -3.787  1.00  0.00    -0.275 OA
BRANCH  25  26
HETATM   26  C11 UNL     1      28.702  20.695  -2.405  1.00  0.00     0.229 C 
BRANCH  26  27
HETATM   27  C12 UNL     1      29.916  20.143  -1.734  1.00  0.00     0.221 C 
BRANCH  27  28
HETATM   28  O5  UNL     1      31.032  20.473  -2.503  1.00  0.00    -0.255 OA
BRANCH  28  29
HETATM   29  S1  UNL     1      31.700  21.874  -1.873  1.00  0.00     0.251 S 
HETATM   30  O6  UNL     1      30.923  23.107  -2.302  1.00  0.00    -0.572 OA
HETATM   31  O7  UNL     1      31.730  21.745  -0.380  1.00  0.00    -0.572 OA
HETATM   32  O8  UNL     1      33.269  22.090  -2.469  1.00  0.00    -0.572 OA
ENDBRANCH  28  29
ENDBRANCH  27  28
ENDBRANCH  26  27
ENDBRANCH  25  26
ENDBRANCH  23  25
ENDBRANCH  18  21
ENDBRANCH   1  17
TORSDOF 9
ENDMDL
MODEL 5
REMARK VINA RESULT: -6.780429584      1.695      2.423
REMARK  9 active torsions:
REMARK  status: ('A' for Active; 'I' for Inactive)
REMARK    1  A    between atoms: N1_1  and  C1_5 
REMARK    2  A    between atoms: C8_15  and  O1_16 
REMARK    3  A    between atoms: O1_16  and  N3_17 
REMARK       I    between atoms: N3_17  and  C9_19 
REMARK    4  A    between atoms: C9_19  and  C10_21 
REMARK       I    between atoms: C10_21  and  N4_23 
REMARK    5  A    between atoms: N4_23  and  O4_25 
REMARK    6  A    between atoms: O4_25  and  C11_26 
REMARK    7  A    between atoms: C11_26  and  C12_27 
REMARK    8  A    between atoms: C12_27  and  O5_28 
REMARK    9  A    between atoms: O5_28  and  S1_29 
ROOT
HETATM    1  O1  UNL     1      31.188  19.743  -0.990  1.00  0.00    -0.267 OA
ENDROOT
BRANCH   1   2
HETATM    2  C8  UNL     1      30.411  20.824  -1.277  1.00  0.00     0.218 C 
HETATM    3  C1  UNL     1      29.159  20.364  -2.090  1.00  0.00     0.217 C 
HETATM    4  C2  UNL     1      28.684  21.629  -2.759  1.00  0.00     0.038 C 
HETATM    5  C3  UNL     1      29.742  22.675  -2.515  1.00  0.00     0.044 C 
HETATM    6  C4  UNL     1      30.970  21.776  -2.296  1.00  0.00     0.156 C 
HETATM    7  C5  UNL     1      32.163  22.551  -1.914  1.00  0.00     0.043 C 
HETATM    8  N2  UNL     1      31.254  21.103  -3.551  1.00  0.00    -0.064 N 
HETATM    9  C6  UNL     1      33.303  21.975  -2.749  1.00  0.00     0.030 C 
HETATM   10  C7  UNL     1      32.671  20.922  -3.621  1.00  0.00     0.233 C 
ATOM     11  H22 UNL     1      30.733  20.234  -3.665  1.00  0.00     0.278 HD
ATOM     12  H21 UNL     1      30.873  21.591  -4.361  1.00  0.00     0.278 HD
BRANCH   3  13
HETATM   13  N1  UNL     1      28.233  19.853  -1.133  1.00  0.00    -0.072 N 
ATOM     14  H13 UNL     1      27.277  20.109  -1.380  1.00  0.00     0.274 HD
ATOM     15  H12 UNL     1      28.158  18.838  -1.207  1.00  0.00     0.274 HD
ATOM     16  H11 UNL     1      28.449  20.132  -0.176  1.00  0.00     0.274 HD
ENDBRANCH   3  13
ENDBRANCH   1   2
BRANCH   1  17
HETATM   17  N3  UNL     1      31.644  19.597   0.245  1.00  0.00    -0.226 N 
HETATM   18  C9  UNL     1      32.966  19.694   0.713  1.00  0.00     0.335 C 
HETATM   19  O2  UNL     1      33.901  19.955  -0.075  1.00  0.00    -0.260 OA
ATOM     20  H3  UNL     1      30.940  19.385   0.953  1.00  0.00     0.198 HD
BRANCH  18  21
HETATM   21  C10 UNL     1      33.293  19.495   2.107  1.00  0.00     0.335 C 
HETATM   22  O3  UNL     1      33.117  18.345   2.617  1.00  0.00    -0.260 OA
HETATM   23  N4  UNL     1      33.805  20.569   2.880  1.00  0.00    -0.227 N 
ATOM     24  H4  UNL     1      33.936  21.483   2.446  1.00  0.00     0.198 HD
BRANCH  23  25
HETATM   25  O4  UNL     1      34.121  20.403   4.177  1.00  0.00    -0.275 OA
BRANCH  25  26
HETATM   26  C11 UNL     1      35.375  20.967   4.401  1.00  0.00     0.229 C 
BRANCH  26  27
HETATM   27  C12 UNL     1      36.152  21.138   3.138  1.00  0.00     0.221 C 
BRANCH  27  28
HETATM   28  O5  UNL     1      36.399  22.499   2.955  1.00  0.00    -0.255 OA
BRANCH  28  29
HETATM   29  S1  UNL     1      36.040  22.882   1.364  1.00  0.00     0.251 S 
HETATM   30  O6  UNL     1      36.611  21.857   0.399  1.00  0.00    -0.572 OA
HETATM   31  O7  UNL     1      34.550  22.978   1.233  1.00  0.00    -0.572 OA
HETATM   32  O8  UNL     1      36.756  24.356   0.944  1.00  0.00    -0.572 OA
ENDBRANCH  28  29
ENDBRANCH  27  28
ENDBRANCH  26  27
ENDBRANCH  25  26
ENDBRANCH  23  25
ENDBRANCH  18  21
ENDBRANCH   1  17
TORSDOF 9
ENDMDL
