MODEL 1
REMARK VINA RESULT: -6.374440620      0.000      0.000
REMARK  10 active torsions:
REMARK  status: ('A' for Active; 'I' for Inactive)
REMARK    1  A    between atoms: O1_2  and  C2_3 
REMARK    2  A    between atoms: C3_6  and  N2_7 
REMARK    3  A    between atoms: C5_14  and  N5_15 
REMARK    4  A    between atoms: N5_15  and  C6_17 
REMARK    5  A    between atoms: C6_17  and  O2_18 
REMARK    6  A    between atoms: C6_17  and  C7_20 
REMARK    7  A    between atoms: C7_20  and  N6_21 
REMARK    8  A    between atoms: C7_20  and  C8_28 
REMARK    9  A    between atoms: N6_21  and  N7_23 
REMARK   10  A    between atoms: N11_34  and  N12_35 
ROOT
HETATM    1  C6  UNL     1      37.013   0.710  23.827  1.00  0.00     0.173 C 
ENDROOT
BRANCH   1   2
HETATM    2  N5  UNL     1      37.307  -0.267  22.894  1.00  0.00    -0.329 N 
ATOM      3  H5  UNL     1      37.285  -0.027  21.903  1.00  0.00     0.168 HD
BRANCH   2   4
HETATM    4  C5  UNL     1      37.648  -1.630  23.285  1.00  0.00     0.128 A 
HETATM    5  C2  UNL     1      38.962  -1.855  23.637  1.00  0.00     0.187 A 
HETATM    6  N1  UNL     1      39.315  -3.104  24.005  1.00  0.00    -0.168 N 
HETATM    7  C3  UNL     1      38.403  -4.092  24.024  1.00  0.00     0.679 A 
ATOM      8  H1  UNL     1      40.279  -3.300  24.270  1.00  0.00     0.186 HD
HETATM    9  N3  UNL     1      37.111  -3.858  23.675  1.00  0.00    -0.177 N 
HETATM   10  C4  UNL     1      36.708  -2.632  23.301  1.00  0.00     0.163 A 
ATOM     11  H3  UNL     1      36.437  -4.624  23.698  1.00  0.00     0.185 HD
HETATM   12  N4  UNL     1      35.365  -2.358  22.932  1.00  0.00    -0.080 NA
BRANCH   5  13
HETATM   13  O1  UNL     1      39.904  -0.807  23.611  1.00  0.00    -0.339 OA
HETATM   14  C1  UNL     1      41.253  -1.174  23.424  1.00  0.00     0.211 C 
ENDBRANCH   5  13
BRANCH   7  15
HETATM   15  N2  UNL     1      38.727  -5.297  24.375  1.00  0.00    -0.234 N 
ATOM     16  H22 UNL     1      39.442  -5.777  23.830  1.00  0.00     0.174 HD
ATOM     17  H21 UNL     1      38.281  -5.753  25.171  1.00  0.00     0.174 HD
ENDBRANCH   7  15
ENDBRANCH   2   4
ENDBRANCH   1   2
BRANCH   1  18
HETATM   18  O2  UNL     1      36.320   0.200  24.849  1.00  0.00    -0.344 OA
ATOM     19  H2  UNL     1      36.856  -0.394  25.359  1.00  0.00     0.219 HD
ENDBRANCH   1  18
BRANCH   1  20
HETATM   20  C7  UNL     1      37.282   2.102  23.947  1.00  0.00     0.147 C 
BRANCH  20  21
HETATM   21  N6  UNL     1      38.458   2.367  24.510  1.00  0.00    -0.279 N 
ATOM     22  H6  UNL     1      38.768   3.338  24.483  1.00  0.00     0.189 HD
BRANCH  21  23
HETATM   23  N7  UNL     1      39.292   1.477  25.117  1.00  0.00    -0.249 N 
HETATM   24  N8  UNL     1      40.460   1.776  25.558  1.00  0.00    -0.331 N 
ATOM     25  H82 UNL     1      40.766   2.742  25.440  1.00  0.00     0.178 HD
ATOM     26  H81 UNL     1      41.085   1.111  26.013  1.00  0.00     0.178 HD
ATOM     27  H7  UNL     1      38.970   0.516  25.227  1.00  0.00     0.207 HD
ENDBRANCH  21  23
ENDBRANCH  20  21
BRANCH  20  28
HETATM   28  C8  UNL     1      36.498   3.259  23.619  1.00  0.00     0.175 A 
HETATM   29  N9  UNL     1      36.718   4.031  22.476  1.00  0.00    -0.281 N 
HETATM   30  N10 UNL     1      35.821   4.963  22.389  1.00  0.00    -0.293 N 
ATOM     31  H9  UNL     1      37.474   3.882  21.808  1.00  0.00     0.188 HD
HETATM   32  C9  UNL     1      34.977   4.894  23.408  1.00  0.00     0.224 A 
ATOM     33  H10 UNL     1      35.773   5.655  21.640  1.00  0.00     0.187 HD
HETATM   34  N11 UNL     1      35.415   3.832  24.152  1.00  0.00    -0.237 N 
BRANCH  34  35
HETATM   35  N12 UNL     1      34.703   3.426  25.292  1.00  0.00    -0.336 N 
ATOM     36 2H12 UNL     1      35.109   3.547  26.221  1.00  0.00     0.177 HD
ATOM     37 1H12 UNL     1      33.758   3.045  25.334  1.00  0.00     0.177 HD
ENDBRANCH  34  35
ENDBRANCH  20  28
ENDBRANCH   1  20
TORSDOF 10
ENDMDL
MODEL 2
REMARK VINA RESULT: -6.341373990      1.652      2.891
REMARK  10 active torsions:
REMARK  status: ('A' for Active; 'I' for Inactive)
REMARK    1  A    between atoms: O1_2  and  C2_3 
REMARK    2  A    between atoms: C3_6  and  N2_7 
REMARK    3  A    between atoms: C5_14  and  N5_15 
REMARK    4  A    between atoms: N5_15  and  C6_17 
REMARK    5  A    between atoms: C6_17  and  O2_18 
REMARK    6  A    between atoms: C6_17  and  C7_20 
REMARK    7  A    between atoms: C7_20  and  N6_21 
REMARK    8  A    between atoms: C7_20  and  C8_28 
REMARK    9  A    between atoms: N6_21  and  N7_23 
REMARK   10  A    between atoms: N11_34  and  N12_35 
ROOT
HETATM    1  C6  UNL     1      36.898  -0.721  23.385  1.00  0.00     0.173 C 
ENDROOT
BRANCH   1   2
HETATM    2  N5  UNL     1      37.754  -1.631  22.793  1.00  0.00    -0.329 N 
ATOM      3  H5  UNL     1      37.900  -1.590  21.784  1.00  0.00     0.168 HD
BRANCH   2   4
HETATM    4  C5  UNL     1      38.455  -2.649  23.568  1.00  0.00     0.128 A 
HETATM    5  C2  UNL     1      37.752  -3.802  23.842  1.00  0.00     0.187 A 
HETATM    6  N1  UNL     1      38.368  -4.765  24.557  1.00  0.00    -0.168 N 
HETATM    7  C3  UNL     1      39.631  -4.595  24.984  1.00  0.00     0.679 A 
ATOM      8  H1  UNL     1      37.872  -5.630  24.775  1.00  0.00     0.186 HD
HETATM    9  N3  UNL     1      40.315  -3.454  24.708  1.00  0.00    -0.177 N 
HETATM   10  C4  UNL     1      39.747  -2.463  23.999  1.00  0.00     0.163 A 
ATOM     11  H3  UNL     1      41.272  -3.347  25.042  1.00  0.00     0.185 HD
HETATM   12  N4  UNL     1      40.436  -1.260  23.696  1.00  0.00    -0.080 NA
BRANCH   5  13
HETATM   13  O1  UNL     1      36.428  -3.963  23.386  1.00  0.00    -0.339 OA
HETATM   14  C1  UNL     1      36.234  -4.851  22.307  1.00  0.00     0.211 C 
ENDBRANCH   5  13
BRANCH   7  15
HETATM   15  N2  UNL     1      40.237  -5.512  25.672  1.00  0.00    -0.234 N 
ATOM     16  H22 UNL     1      41.211  -5.713  25.446  1.00  0.00     0.174 HD
ATOM     17  H21 UNL     1      39.756  -6.018  26.416  1.00  0.00     0.174 HD
ENDBRANCH   7  15
ENDBRANCH   2   4
ENDBRANCH   1   2
BRANCH   1  18
HETATM   18  O2  UNL     1      35.623  -1.072  23.193  1.00  0.00    -0.344 OA
ATOM     19  H2  UNL     1      35.089  -0.313  22.993  1.00  0.00     0.219 HD
ENDBRANCH   1  18
BRANCH   1  20
HETATM   20  C7  UNL     1      37.063   0.473  24.140  1.00  0.00     0.147 C 
BRANCH  20  21
HETATM   21  N6  UNL     1      38.160   0.475  24.892  1.00  0.00    -0.279 N 
ATOM     22  H6  UNL     1      38.251  -0.281  25.569  1.00  0.00     0.189 HD
BRANCH  21  23
HETATM   23  N7  UNL     1      39.176   1.383  24.852  1.00  0.00    -0.249 N 
HETATM   24  N8  UNL     1      40.210   1.334  25.611  1.00  0.00    -0.331 N 
ATOM     25  H82 UNL     1      40.259   0.565  26.278  1.00  0.00     0.178 HD
ATOM     26  H81 UNL     1      40.970   2.014  25.582  1.00  0.00     0.178 HD
ATOM     27  H7  UNL     1      39.110   2.147  24.179  1.00  0.00     0.207 HD
ENDBRANCH  21  23
ENDBRANCH  20  21
BRANCH  20  28
HETATM   28  C8  UNL     1      36.239   1.642  24.273  1.00  0.00     0.175 A 
HETATM   29  N9  UNL     1      35.542   1.954  25.442  1.00  0.00    -0.281 N 
HETATM   30  N10 UNL     1      34.944   3.097  25.312  1.00  0.00    -0.293 N 
ATOM     31  H9  UNL     1      35.508   1.368  26.276  1.00  0.00     0.188 HD
HETATM   32  C9  UNL     1      35.181   3.613  24.114  1.00  0.00     0.224 A 
ATOM     33  H10 UNL     1      34.371   3.538  26.032  1.00  0.00     0.187 HD
HETATM   34  N11 UNL     1      35.985   2.695  23.493  1.00  0.00    -0.237 N 
BRANCH  34  35
HETATM   35  N12 UNL     1      36.489   2.954  22.208  1.00  0.00    -0.336 N 
ATOM     36 2H12 UNL     1      36.017   2.575  21.386  1.00  0.00     0.177 HD
ATOM     37 1H12 UNL     1      37.285   3.539  21.956  1.00  0.00     0.177 HD
ENDBRANCH  34  35
ENDBRANCH  20  28
ENDBRANCH   1  20
TORSDOF 10
ENDMDL
MODEL 3
REMARK VINA RESULT: -6.302360471      2.511      3.490
REMARK  10 active torsions:
REMARK  status: ('A' for Active; 'I' for Inactive)
REMARK    1  A    between atoms: O1_2  and  C2_3 
REMARK    2  A    between atoms: C3_6  and  N2_7 
REMARK    3  A    between atoms: C5_14  and  N5_15 
REMARK    4  A    between atoms: N5_15  and  C6_17 
REMARK    5  A    between atoms: C6_17  and  O2_18 
REMARK    6  A    between atoms: C6_17  and  C7_20 
REMARK    7  A    between atoms: C7_20  and  N6_21 
REMARK    8  A    between atoms: C7_20  and  C8_28 
REMARK    9  A    between atoms: N6_21  and  N7_23 
REMARK   10  A    between atoms: N11_34  and  N12_35 
ROOT
HETATM    1  C6  UNL     1      36.736  -1.306  23.456  1.00  0.00     0.173 C 
ENDROOT
BRANCH   1   2
HETATM    2  N5  UNL     1      37.117  -2.608  23.724  1.00  0.00    -0.329 N 
ATOM      3  H5  UNL     1      37.382  -2.860  24.675  1.00  0.00     0.168 HD
BRANCH   2   4
HETATM    4  C5  UNL     1      37.150  -3.631  22.685  1.00  0.00     0.128 A 
HETATM    5  C2  UNL     1      38.282  -3.669  21.900  1.00  0.00     0.187 A 
HETATM    6  N1  UNL     1      38.348  -4.603  20.928  1.00  0.00    -0.168 N 
HETATM    7  C3  UNL     1      37.334  -5.466  20.742  1.00  0.00     0.679 A 
ATOM      8  H1  UNL     1      39.173  -4.654  20.331  1.00  0.00     0.186 HD
HETATM    9  N3  UNL     1      36.224  -5.419  21.523  1.00  0.00    -0.177 N 
HETATM   10  C4  UNL     1      36.108  -4.509  22.504  1.00  0.00     0.163 A 
ATOM     11  H3  UNL     1      35.468  -6.085  21.363  1.00  0.00     0.185 HD
HETATM   12  N4  UNL     1      34.960  -4.437  23.336  1.00  0.00    -0.080 NA
BRANCH   5  13
HETATM   13  O1  UNL     1      39.335  -2.755  22.109  1.00  0.00    -0.339 OA
HETATM   14  C1  UNL     1      40.546  -3.288  22.596  1.00  0.00     0.211 C 
ENDBRANCH   5  13
BRANCH   7  15
HETATM   15  N2  UNL     1      37.384  -6.369  19.813  1.00  0.00    -0.234 N 
ATOM     16  H22 UNL     1      37.614  -6.067  18.866  1.00  0.00     0.174 HD
ATOM     17  H21 UNL     1      37.199  -7.351  20.020  1.00  0.00     0.174 HD
ENDBRANCH   7  15
ENDBRANCH   2   4
ENDBRANCH   1   2
BRANCH   1  18
HETATM   18  O2  UNL     1      35.452  -1.250  23.093  1.00  0.00    -0.344 OA
ATOM     19  H2  UNL     1      35.345  -0.735  22.302  1.00  0.00     0.219 HD
ENDBRANCH   1  18
BRANCH   1  20
HETATM   20  C7  UNL     1      37.386  -0.041  23.485  1.00  0.00     0.147 C 
BRANCH  20  21
HETATM   21  N6  UNL     1      37.277   0.583  24.655  1.00  0.00    -0.279 N 
ATOM     22  H6  UNL     1      38.145   0.900  25.086  1.00  0.00     0.189 HD
BRANCH  21  23
HETATM   23  N7  UNL     1      36.126   0.842  25.338  1.00  0.00    -0.249 N 
HETATM   24  N8  UNL     1      35.138   1.502  24.852  1.00  0.00    -0.331 N 
ATOM     25  H82 UNL     1      35.235   1.845  23.897  1.00  0.00     0.178 HD
ATOM     26  H81 UNL     1      34.277   1.696  25.363  1.00  0.00     0.178 HD
ATOM     27  H7  UNL     1      36.046   0.491  26.292  1.00  0.00     0.207 HD
ENDBRANCH  21  23
ENDBRANCH  20  21
BRANCH  20  28
HETATM   28  C8  UNL     1      38.087   0.698  22.472  1.00  0.00     0.175 A 
HETATM   29  N9  UNL     1      39.291   0.268  21.912  1.00  0.00    -0.281 N 
HETATM   30  N10 UNL     1      39.662   1.082  20.974  1.00  0.00    -0.293 N 
ATOM     31  H9  UNL     1      39.805  -0.566  22.199  1.00  0.00     0.188 HD
HETATM   32  C9  UNL     1      38.785   2.066  20.838  1.00  0.00     0.224 A 
ATOM     33  H10 UNL     1      40.511   0.980  20.417  1.00  0.00     0.187 HD
HETATM   34  N11 UNL     1      37.821   1.805  21.774  1.00  0.00    -0.237 N 
BRANCH  34  35
HETATM   35  N12 UNL     1      36.686   2.627  21.868  1.00  0.00    -0.336 N 
ATOM     36 2H12 UNL     1      35.773   2.276  21.578  1.00  0.00     0.177 HD
ATOM     37 1H12 UNL     1      36.629   3.570  22.251  1.00  0.00     0.177 HD
ENDBRANCH  34  35
ENDBRANCH  20  28
ENDBRANCH   1  20
TORSDOF 10
ENDMDL
MODEL 4
REMARK VINA RESULT: -6.269189697      3.931      6.072
REMARK  10 active torsions:
REMARK  status: ('A' for Active; 'I' for Inactive)
REMARK    1  A    between atoms: O1_2  and  C2_3 
REMARK    2  A    between atoms: C3_6  and  N2_7 
REMARK    3  A    between atoms: C5_14  and  N5_15 
REMARK    4  A    between atoms: N5_15  and  C6_17 
REMARK    5  A    between atoms: C6_17  and  O2_18 
REMARK    6  A    between atoms: C6_17  and  C7_20 
REMARK    7  A    between atoms: C7_20  and  N6_21 
REMARK    8  A    between atoms: C7_20  and  C8_28 
REMARK    9  A    between atoms: N6_21  and  N7_23 
REMARK   10  A    between atoms: N11_34  and  N12_35 
ROOT
HETATM    1  C6  UNL     1      34.615   5.820  23.587  1.00  0.00     0.173 C 
ENDROOT
BRANCH   1   2
HETATM    2  N5  UNL     1      34.854   4.560  23.070  1.00  0.00    -0.329 N 
ATOM      3  H5  UNL     1      34.237   4.198  22.344  1.00  0.00     0.168 HD
BRANCH   2   4
HETATM    4  C5  UNL     1      35.964   3.733  23.533  1.00  0.00     0.128 A 
HETATM    5  C2  UNL     1      37.160   3.887  22.867  1.00  0.00     0.187 A 
HETATM    6  N1  UNL     1      38.209   3.139  23.268  1.00  0.00    -0.168 N 
HETATM    7  C3  UNL     1      38.079   2.273  24.288  1.00  0.00     0.679 A 
ATOM      8  H1  UNL     1      39.107   3.231  22.794  1.00  0.00     0.186 HD
HETATM    9  N3  UNL     1      36.894   2.131  24.937  1.00  0.00    -0.177 N 
HETATM   10  C4  UNL     1      35.819   2.852  24.578  1.00  0.00     0.163 A 
ATOM     11  H3  UNL     1      36.820   1.468  25.709  1.00  0.00     0.185 HD
HETATM   12  N4  UNL     1      34.568   2.724  25.238  1.00  0.00    -0.080 NA
BRANCH   5  13
HETATM   13  O1  UNL     1      37.278   4.799  21.799  1.00  0.00    -0.339 OA
HETATM   14  C1  UNL     1      38.415   4.664  20.975  1.00  0.00     0.211 C 
ENDBRANCH   5  13
BRANCH   7  15
HETATM   15  N2  UNL     1      39.078   1.548  24.685  1.00  0.00    -0.234 N 
ATOM     16  H22 UNL     1      39.219   0.644  24.234  1.00  0.00     0.174 HD
ATOM     17  H21 UNL     1      39.703   1.869  25.424  1.00  0.00     0.174 HD
ENDBRANCH   7  15
ENDBRANCH   2   4
ENDBRANCH   1   2
BRANCH   1  18
HETATM   18  O2  UNL     1      34.113   5.741  24.822  1.00  0.00    -0.344 OA
ATOM     19  H2  UNL     1      33.775   6.582  25.104  1.00  0.00     0.219 HD
ENDBRANCH   1  18
BRANCH   1  20
HETATM   20  C7  UNL     1      34.787   7.151  23.115  1.00  0.00     0.147 C 
BRANCH  20  21
HETATM   21  N6  UNL     1      35.694   7.257  22.148  1.00  0.00    -0.279 N 
ATOM     22  H6  UNL     1      35.418   6.923  21.225  1.00  0.00     0.189 HD
BRANCH  21  23
HETATM   23  N7  UNL     1      36.954   7.763  22.262  1.00  0.00    -0.249 N 
HETATM   24  N8  UNL     1      37.748   7.496  23.235  1.00  0.00    -0.331 N 
ATOM     25  H82 UNL     1      37.399   6.867  23.957  1.00  0.00     0.178 HD
ATOM     26  H81 UNL     1      38.691   7.875  23.320  1.00  0.00     0.178 HD
ATOM     27  H7  UNL     1      37.286   8.391  21.531  1.00  0.00     0.207 HD
ENDBRANCH  21  23
ENDBRANCH  20  21
BRANCH  20  28
HETATM   28  C8  UNL     1      34.198   8.395  23.527  1.00  0.00     0.175 A 
HETATM   29  N9  UNL     1      33.439   9.198  22.674  1.00  0.00    -0.281 N 
HETATM   30  N10 UNL     1      32.969  10.217  23.323  1.00  0.00    -0.293 N 
ATOM     31  H9  UNL     1      33.278   9.010  21.684  1.00  0.00     0.188 HD
HETATM   32  C9  UNL     1      33.353  10.179  24.591  1.00  0.00     0.224 A 
ATOM     33  H10 UNL     1      32.385  10.947  22.914  1.00  0.00     0.187 HD
HETATM   34  N11 UNL     1      34.110   9.042  24.691  1.00  0.00    -0.237 N 
BRANCH  34  35
HETATM   35  N12 UNL     1      34.634   8.651  25.934  1.00  0.00    -0.336 N 
ATOM     36 2H12 UNL     1      34.507   7.695  26.266  1.00  0.00     0.177 HD
ATOM     37 1H12 UNL     1      35.200   9.207  26.575  1.00  0.00     0.177 HD
ENDBRANCH  34  35
ENDBRANCH  20  28
ENDBRANCH   1  20
TORSDOF 10
ENDMDL
MODEL 5
REMARK VINA RESULT: -6.249230102      2.293      3.062
REMARK  10 active torsions:
REMARK  status: ('A' for Active; 'I' for Inactive)
REMARK    1  A    between atoms: O1_2  and  C2_3 
REMARK    2  A    between atoms: C3_6  and  N2_7 
REMARK    3  A    between atoms: C5_14  and  N5_15 
REMARK    4  A    between atoms: N5_15  and  C6_17 
REMARK    5  A    between atoms: C6_17  and  O2_18 
REMARK    6  A    between atoms: C6_17  and  C7_20 
REMARK    7  A    between atoms: C7_20  and  N6_21 
REMARK    8  A    between atoms: C7_20  and  C8_28 
REMARK    9  A    between atoms: N6_21  and  N7_23 
REMARK   10  A    between atoms: N11_34  and  N12_35 
ROOT
HETATM    1  C6  UNL     1      36.580  -1.525  23.593  1.00  0.00     0.173 C 
ENDROOT
BRANCH   1   2
HETATM    2  N5  UNL     1      36.933  -2.840  23.831  1.00  0.00    -0.329 N 
ATOM      3  H5  UNL     1      37.138  -3.132  24.787  1.00  0.00     0.168 HD
BRANCH   2   4
HETATM    4  C5  UNL     1      37.019  -3.823  22.757  1.00  0.00     0.128 A 
HETATM    5  C2  UNL     1      38.185  -3.824  22.022  1.00  0.00     0.187 A 
HETATM    6  N1  UNL     1      38.301  -4.720  21.020  1.00  0.00    -0.168 N 
HETATM    7  C3  UNL     1      37.303  -5.581  20.756  1.00  0.00     0.679 A 
ATOM      8  H1  UNL     1      39.152  -4.744  20.458  1.00  0.00     0.186 HD
HETATM    9  N3  UNL     1      36.159  -5.571  21.489  1.00  0.00    -0.177 N 
HETATM   10  C4  UNL     1      35.993  -4.699  22.497  1.00  0.00     0.163 A 
ATOM     11  H3  UNL     1      35.416  -6.234  21.270  1.00  0.00     0.185 HD
HETATM   12  N4  UNL     1      34.808  -4.665  23.279  1.00  0.00    -0.080 NA
BRANCH   5  13
HETATM   13  O1  UNL     1      39.221  -2.913  22.312  1.00  0.00    -0.339 OA
HETATM   14  C1  UNL     1      40.396  -3.452  22.877  1.00  0.00     0.211 C 
ENDBRANCH   5  13
BRANCH   7  15
HETATM   15  N2  UNL     1      37.400  -6.448  19.797  1.00  0.00    -0.234 N 
ATOM     16  H22 UNL     1      36.555  -6.679  19.276  1.00  0.00     0.174 HD
ATOM     17  H21 UNL     1      38.293  -6.886  19.569  1.00  0.00     0.174 HD
ENDBRANCH   7  15
ENDBRANCH   2   4
ENDBRANCH   1   2
BRANCH   1  18
HETATM   18  O2  UNL     1      35.412  -1.454  22.948  1.00  0.00    -0.344 OA
ATOM     19  H2  UNL     1      35.193  -0.553  22.742  1.00  0.00     0.219 HD
ENDBRANCH   1  18
BRANCH   1  20
HETATM   20  C7  UNL     1      37.163  -0.258  23.877  1.00  0.00     0.147 C 
BRANCH  20  21
HETATM   21  N6  UNL     1      38.491  -0.289  23.936  1.00  0.00    -0.279 N 
ATOM     22  H6  UNL     1      38.902  -0.675  24.786  1.00  0.00     0.189 HD
BRANCH  21  23
HETATM   23  N7  UNL     1      39.361   0.143  22.980  1.00  0.00    -0.249 N 
HETATM   24  N8  UNL     1      39.235  -0.113  21.728  1.00  0.00    -0.331 N 
ATOM     25  H82 UNL     1      38.431  -0.674  21.450  1.00  0.00     0.178 HD
ATOM     26  H81 UNL     1      39.886   0.210  21.013  1.00  0.00     0.178 HD
ATOM     27  H7  UNL     1      40.160   0.703  23.277  1.00  0.00     0.207 HD
ENDBRANCH  21  23
ENDBRANCH  20  21
BRANCH  20  28
HETATM   28  C8  UNL     1      36.577   1.022  24.160  1.00  0.00     0.175 A 
HETATM   29  N9  UNL     1      36.027   1.352  25.399  1.00  0.00    -0.281 N 
HETATM   30  N10 UNL     1      35.640   2.589  25.401  1.00  0.00    -0.293 N 
ATOM     31  H9  UNL     1      35.941   0.712  26.190  1.00  0.00     0.188 HD
HETATM   32  C9  UNL     1      35.888   3.155  24.228  1.00  0.00     0.224 A 
ATOM     33  H10 UNL     1      35.206   3.062  26.194  1.00  0.00     0.187 HD
HETATM   34  N11 UNL     1      36.468   2.167  23.480  1.00  0.00    -0.237 N 
BRANCH  34  35
HETATM   35  N12 UNL     1      36.925   2.440  22.180  1.00  0.00    -0.336 N 
ATOM     36 2H12 UNL     1      37.751   3.023  22.039  1.00  0.00     0.177 HD
ATOM     37 1H12 UNL     1      36.553   2.082  21.300  1.00  0.00     0.177 HD
ENDBRANCH  34  35
ENDBRANCH  20  28
ENDBRANCH   1  20
TORSDOF 10
ENDMDL
