MODEL 1
REMARK VINA RESULT: -7.246871920      0.000      0.000
REMARK  6 active torsions:
REMARK  status: ('A' for Active; 'I' for Inactive)
REMARK    1  A    between atoms: O1_2  and  C2_3 
REMARK    2  A    between atoms: C3_6  and  N2_7 
REMARK    3  A    between atoms: C4_12  and  N4_13 
REMARK    4  A    between atoms: N4_13  and  N5_15 
REMARK    5  A    between atoms: C5_17  and  C7_19 
REMARK       I    between atoms: N7_22  and  C8_23 
REMARK       I    between atoms: C8_23  and  N9_27 
REMARK    6  A    between atoms: N9_27  and  N10_29 
ROOT
HETATM    1  N5  UNL     1      33.213   8.839  24.350  1.00  0.00    -0.287 N 
ATOM      2  H5  UNL     1      32.843   9.058  23.425  1.00  0.00     0.187 HD
HETATM    3  C5  UNL     1      33.666   9.834  24.960  1.00  0.00     0.075 C 
HETATM    4  C6  UNL     1      33.640  11.183  24.343  1.00  0.00     0.074 C 
ENDROOT
BRANCH   1   5
HETATM    5  N4  UNL     1      33.116   7.522  24.680  1.00  0.00    -0.131 N 
ATOM      6  H4  UNL     1      32.375   7.212  25.308  1.00  0.00     0.205 HD
BRANCH   5   7
HETATM    7  C4  UNL     1      33.948   6.664  24.209  1.00  0.00     0.714 A 
HETATM    8  N3  UNL     1      34.043   5.452  24.761  1.00  0.00    -0.021 N 
HETATM    9  C3  UNL     1      34.940   4.577  24.234  1.00  0.00     0.693 A 
ATOM     10  H3  UNL     1      33.459   5.190  25.555  1.00  0.00     0.203 HD
HETATM   11  N1  UNL     1      35.725   4.913  23.176  1.00  0.00    -0.154 N 
HETATM   12  C2  UNL     1      35.620   6.128  22.634  1.00  0.00     0.252 A 
ATOM     13  H1  UNL     1      36.391   4.239  22.797  1.00  0.00     0.188 HD
HETATM   14  N11 UNL     1      34.724   6.988  23.167  1.00  0.00    -0.152 N 
ATOM     15  H11 UNL     1      34.636   7.919  22.760  1.00  0.00     0.188 HD
BRANCH   9  16
HETATM   16  N2  UNL     1      35.013   3.413  24.784  1.00  0.00    -0.234 N 
ATOM     17  H22 UNL     1      35.202   2.622  24.168  1.00  0.00     0.174 HD
ATOM     18  H21 UNL     1      34.889   3.291  25.789  1.00  0.00     0.174 HD
ENDBRANCH   9  16
BRANCH  12  19
HETATM   19  O1  UNL     1      36.377   6.566  21.555  1.00  0.00    -0.326 OA
HETATM   20  C1  UNL     1      37.780   6.699  21.800  1.00  0.00     0.213 C 
ENDBRANCH  12  19
ENDBRANCH   5   7
ENDBRANCH   1   5
BRANCH   3  21
HETATM   21  C7  UNL     1      34.250   9.704  26.283  1.00  0.00     0.192 A 
HETATM   22  N6  UNL     1      33.964  10.454  27.275  1.00  0.00    -0.252 N 
HETATM   23  N7  UNL     1      34.665  10.116  28.427  1.00  0.00    -0.022 N 
ATOM     24  H6  UNL     1      33.292  11.220  27.227  1.00  0.00     0.190 HD
HETATM   25  C8  UNL     1      34.609  10.719  29.711  1.00  0.00     0.716 C 
HETATM   26  C9  UNL     1      35.475   9.004  28.036  1.00  0.00     0.407 A 
HETATM   27  N8  UNL     1      33.823  11.713  29.908  1.00  0.00    -0.231 N 
HETATM   28  N9  UNL     1      35.414  10.236  30.777  1.00  0.00    -0.137 N 
ATOM     29  H82 UNL     1      33.245  12.060  29.143  1.00  0.00     0.174 HD
ATOM     30  H81 UNL     1      33.783  12.147  30.830  1.00  0.00     0.174 HD
ATOM     31  H9  UNL     1      36.401  10.494  30.801  1.00  0.00     0.205 HD
HETATM   32  O2  UNL     1      36.284   8.357  28.746  1.00  0.00    -0.235 OA
HETATM   33  O3  UNL     1      35.201   8.764  26.697  1.00  0.00    -0.238 OA
BRANCH  28  34
HETATM   34  N10 UNL     1      34.908   9.416  31.801  1.00  0.00    -0.331 N 
ATOM     35 2H10 UNL     1      35.468   9.318  32.648  1.00  0.00     0.177 HD
ATOM     36 1H10 UNL     1      34.016   8.927  31.726  1.00  0.00     0.177 HD
ENDBRANCH  28  34
ENDBRANCH   3  21
TORSDOF 6
ENDMDL
MODEL 2
REMARK VINA RESULT: -7.075532324      4.032      6.813
REMARK  6 active torsions:
REMARK  status: ('A' for Active; 'I' for Inactive)
REMARK    1  A    between atoms: O1_2  and  C2_3 
REMARK    2  A    between atoms: C3_6  and  N2_7 
REMARK    3  A    between atoms: C4_12  and  N4_13 
REMARK    4  A    between atoms: N4_13  and  N5_15 
REMARK    5  A    between atoms: C5_17  and  C7_19 
REMARK       I    between atoms: N7_22  and  C8_23 
REMARK       I    between atoms: C8_23  and  N9_27 
REMARK    6  A    between atoms: N9_27  and  N10_29 
ROOT
HETATM    1  N5  UNL     1      36.464   2.474  22.872  1.00  0.00    -0.287 N 
ATOM      2  H5  UNL     1      36.666   1.479  22.970  1.00  0.00     0.187 HD
HETATM    3  C5  UNL     1      35.897   2.972  23.872  1.00  0.00     0.075 C 
HETATM    4  C6  UNL     1      35.576   2.141  25.059  1.00  0.00     0.074 C 
ENDROOT
BRANCH   1   5
HETATM    5  N4  UNL     1      36.863   3.000  21.683  1.00  0.00    -0.131 N 
ATOM      6  H4  UNL     1      36.432   3.860  21.342  1.00  0.00     0.205 HD
BRANCH   5   7
HETATM    7  C4  UNL     1      37.775   2.426  20.984  1.00  0.00     0.714 A 
HETATM    8  N3  UNL     1      37.813   2.602  19.661  1.00  0.00    -0.021 N 
HETATM    9  C3  UNL     1      38.792   1.973  18.959  1.00  0.00     0.693 A 
ATOM     10  H3  UNL     1      37.127   3.192  19.190  1.00  0.00     0.203 HD
HETATM   11  N1  UNL     1      39.713   1.184  19.573  1.00  0.00    -0.154 N 
HETATM   12  C2  UNL     1      39.664   1.016  20.896  1.00  0.00     0.252 A 
ATOM     13  H1  UNL     1      40.440   0.722  19.025  1.00  0.00     0.188 HD
HETATM   14  N11 UNL     1      38.685   1.648  21.582  1.00  0.00    -0.152 N 
ATOM     15  H11 UNL     1      38.639   1.528  22.594  1.00  0.00     0.188 HD
BRANCH   9  16
HETATM   16  N2  UNL     1      38.808   2.158  17.683  1.00  0.00    -0.234 N 
ATOM     17  H22 UNL     1      39.722   2.259  17.242  1.00  0.00     0.174 HD
ATOM     18  H21 UNL     1      37.945   2.199  17.141  1.00  0.00     0.174 HD
ENDBRANCH   9  16
BRANCH  12  19
HETATM   19  O1  UNL     1      40.555   0.231  21.615  1.00  0.00    -0.326 OA
HETATM   20  C1  UNL     1      40.116  -0.163  22.919  1.00  0.00     0.213 C 
ENDBRANCH  12  19
ENDBRANCH   5   7
ENDBRANCH   1   5
BRANCH   3  21
HETATM   21  C7  UNL     1      35.518   4.372  23.902  1.00  0.00     0.192 A 
HETATM   22  N6  UNL     1      34.353   4.799  24.200  1.00  0.00    -0.252 N 
HETATM   23  N7  UNL     1      34.256   6.185  24.152  1.00  0.00    -0.022 N 
ATOM     24  H6  UNL     1      33.575   4.187  24.448  1.00  0.00     0.190 HD
HETATM   25  C8  UNL     1      33.130   7.008  24.419  1.00  0.00     0.716 C 
HETATM   26  C9  UNL     1      35.564   6.618  23.767  1.00  0.00     0.407 A 
HETATM   27  N8  UNL     1      32.019   6.466  24.760  1.00  0.00    -0.231 N 
HETATM   28  N9  UNL     1      33.220   8.421  24.309  1.00  0.00    -0.137 N 
ATOM     29  H82 UNL     1      31.954   5.452  24.839  1.00  0.00     0.174 HD
ATOM     30  H81 UNL     1      31.210   7.057  24.951  1.00  0.00     0.174 HD
ATOM     31  H9  UNL     1      33.191   8.843  23.380  1.00  0.00     0.205 HD
HETATM   32  O2  UNL     1      35.961   7.797  23.592  1.00  0.00    -0.235 OA
HETATM   33  O3  UNL     1      36.334   5.475  23.617  1.00  0.00    -0.238 OA
BRANCH  28  34
HETATM   34  N10 UNL     1      33.347   9.264  25.427  1.00  0.00    -0.331 N 
ATOM     35 2H10 UNL     1      33.068   8.891  26.334  1.00  0.00     0.177 HD
ATOM     36 1H10 UNL     1      33.703  10.218  25.361  1.00  0.00     0.177 HD
ENDBRANCH  28  34
ENDBRANCH   3  21
TORSDOF 6
ENDMDL
MODEL 3
REMARK VINA RESULT: -7.059377777      6.246     11.233
REMARK  6 active torsions:
REMARK  status: ('A' for Active; 'I' for Inactive)
REMARK    1  A    between atoms: O1_2  and  C2_3 
REMARK    2  A    between atoms: C3_6  and  N2_7 
REMARK    3  A    between atoms: C4_12  and  N4_13 
REMARK    4  A    between atoms: N4_13  and  N5_15 
REMARK    5  A    between atoms: C5_17  and  C7_19 
REMARK       I    between atoms: N7_22  and  C8_23 
REMARK       I    between atoms: C8_23  and  N9_27 
REMARK    6  A    between atoms: N9_27  and  N10_29 
ROOT
HETATM    1  N5  UNL     1      38.359   0.839  24.672  1.00  0.00    -0.287 N 
ATOM      2  H5  UNL     1      39.052   1.505  25.012  1.00  0.00     0.187 HD
HETATM    3  C5  UNL     1      38.853  -0.233  24.254  1.00  0.00     0.075 C 
HETATM    4  C6  UNL     1      40.321  -0.456  24.278  1.00  0.00     0.074 C 
ENDROOT
BRANCH   1   5
HETATM    5  N4  UNL     1      37.078   1.289  24.761  1.00  0.00    -0.131 N 
ATOM      6  H4  UNL     1      36.406   0.787  25.342  1.00  0.00     0.205 HD
BRANCH   5   7
HETATM    7  C4  UNL     1      36.705   2.339  24.123  1.00  0.00     0.714 A 
HETATM    8  N3  UNL     1      37.323   2.689  22.993  1.00  0.00    -0.021 N 
HETATM    9  C3  UNL     1      36.900   3.810  22.352  1.00  0.00     0.693 A 
ATOM     10  H3  UNL     1      38.091   2.131  22.621  1.00  0.00     0.203 HD
HETATM   11  N1  UNL     1      35.877   4.565  22.836  1.00  0.00    -0.154 N 
HETATM   12  C2  UNL     1      35.268   4.204  23.968  1.00  0.00     0.252 A 
ATOM     13  H1  UNL     1      35.576   5.402  22.337  1.00  0.00     0.188 HD
HETATM   14  N11 UNL     1      35.698   3.086  24.595  1.00  0.00    -0.152 N 
ATOM     15  H11 UNL     1      35.239   2.801  25.460  1.00  0.00     0.188 HD
BRANCH   9  16
HETATM   16  N2  UNL     1      37.512   4.128  21.263  1.00  0.00    -0.234 N 
ATOM     17  H22 UNL     1      37.138   3.747  20.393  1.00  0.00     0.174 HD
ATOM     18  H21 UNL     1      38.333   4.733  21.271  1.00  0.00     0.174 HD
ENDBRANCH   9  16
BRANCH  12  19
HETATM   19  O1  UNL     1      34.218   4.906  24.544  1.00  0.00    -0.326 OA
HETATM   20  C1  UNL     1      33.833   6.106  23.866  1.00  0.00     0.213 C 
ENDBRANCH  12  19
ENDBRANCH   5   7
ENDBRANCH   1   5
BRANCH   3  21
HETATM   21  C7  UNL     1      38.015  -1.288  23.715  1.00  0.00     0.192 A 
HETATM   22  N6  UNL     1      38.457  -2.351  23.165  1.00  0.00    -0.252 N 
HETATM   23  N7  UNL     1      37.443  -3.198  22.734  1.00  0.00    -0.022 N 
ATOM     24  H6  UNL     1      39.450  -2.558  23.055  1.00  0.00     0.190 HD
HETATM   25  C8  UNL     1      37.550  -4.457  22.086  1.00  0.00     0.716 C 
HETATM   26  C9  UNL     1      36.237  -2.517  23.090  1.00  0.00     0.407 A 
HETATM   27  N8  UNL     1      38.710  -4.942  21.836  1.00  0.00    -0.231 N 
HETATM   28  N9  UNL     1      36.388  -5.182  21.708  1.00  0.00    -0.137 N 
ATOM     29  H82 UNL     1      39.545  -4.421  22.107  1.00  0.00     0.174 HD
ATOM     30  H81 UNL     1      38.788  -5.845  21.370  1.00  0.00     0.174 HD
ATOM     31  H9  UNL     1      35.884  -4.897  20.869  1.00  0.00     0.205 HD
HETATM   32  O2  UNL     1      35.055  -2.897  22.898  1.00  0.00    -0.235 OA
HETATM   33  O3  UNL     1      36.616  -1.330  23.700  1.00  0.00    -0.238 OA
BRANCH  28  34
HETATM   34  N10 UNL     1      35.903  -6.278  22.445  1.00  0.00    -0.331 N 
ATOM     35 2H10 UNL     1      36.476  -6.619  23.217  1.00  0.00     0.177 HD
ATOM     36 1H10 UNL     1      35.014  -6.732  22.237  1.00  0.00     0.177 HD
ENDBRANCH  28  34
ENDBRANCH   3  21
TORSDOF 6
ENDMDL
MODEL 4
REMARK VINA RESULT: -7.056192484      5.381      8.417
REMARK  6 active torsions:
REMARK  status: ('A' for Active; 'I' for Inactive)
REMARK    1  A    between atoms: O1_2  and  C2_3 
REMARK    2  A    between atoms: C3_6  and  N2_7 
REMARK    3  A    between atoms: C4_12  and  N4_13 
REMARK    4  A    between atoms: N4_13  and  N5_15 
REMARK    5  A    between atoms: C5_17  and  C7_19 
REMARK       I    between atoms: N7_22  and  C8_23 
REMARK       I    between atoms: C8_23  and  N9_27 
REMARK    6  A    between atoms: N9_27  and  N10_29 
ROOT
HETATM    1  N5  UNL     1      38.258   1.340  22.283  1.00  0.00    -0.287 N 
ATOM      2  H5  UNL     1      38.879   0.935  21.583  1.00  0.00     0.187 HD
HETATM    3  C5  UNL     1      37.651   2.362  21.889  1.00  0.00     0.075 C 
HETATM    4  C6  UNL     1      37.858   2.888  20.516  1.00  0.00     0.074 C 
ENDROOT
BRANCH   1   5
HETATM    5  N4  UNL     1      38.250   0.663  23.464  1.00  0.00    -0.131 N 
ATOM      6  H4  UNL     1      38.372   1.173  24.338  1.00  0.00     0.205 HD
BRANCH   5   7
HETATM    7  C4  UNL     1      38.091  -0.611  23.489  1.00  0.00     0.714 A 
HETATM    8  N3  UNL     1      39.118  -1.407  23.797  1.00  0.00    -0.021 N 
HETATM    9  C3  UNL     1      38.907  -2.749  23.807  1.00  0.00     0.693 A 
ATOM     10  H3  UNL     1      40.035  -1.018  24.017  1.00  0.00     0.203 HD
HETATM   11  N1  UNL     1      37.690  -3.282  23.515  1.00  0.00    -0.154 N 
HETATM   12  C2  UNL     1      36.672  -2.475  23.209  1.00  0.00     0.252 A 
ATOM     13  H1  UNL     1      37.556  -4.293  23.530  1.00  0.00     0.188 HD
HETATM   14  N11 UNL     1      36.895  -1.141  23.203  1.00  0.00    -0.152 N 
ATOM     15  H11 UNL     1      36.124  -0.516  22.971  1.00  0.00     0.188 HD
BRANCH   9  16
HETATM   16  N2  UNL     1      39.914  -3.497  24.106  1.00  0.00    -0.234 N 
ATOM     17  H22 UNL     1      39.755  -4.233  24.795  1.00  0.00     0.174 HD
ATOM     18  H21 UNL     1      40.826  -3.359  23.672  1.00  0.00     0.174 HD
ENDBRANCH   9  16
BRANCH  12  19
HETATM   19  O1  UNL     1      35.394  -2.919  22.895  1.00  0.00    -0.326 OA
HETATM   20  C1  UNL     1      35.230  -4.340  22.849  1.00  0.00     0.213 C 
ENDBRANCH  12  19
ENDBRANCH   5   7
ENDBRANCH   1   5
BRANCH   3  21
HETATM   21  C7  UNL     1      36.740   3.080  22.760  1.00  0.00     0.192 A 
HETATM   22  N6  UNL     1      36.366   4.286  22.578  1.00  0.00    -0.252 N 
HETATM   23  N7  UNL     1      35.490   4.734  23.560  1.00  0.00    -0.022 N 
ATOM     24  H6  UNL     1      36.677   4.861  21.795  1.00  0.00     0.190 HD
HETATM   25  C8  UNL     1      34.872   6.006  23.688  1.00  0.00     0.716 C 
HETATM   26  C9  UNL     1      35.339   3.615  24.438  1.00  0.00     0.407 A 
HETATM   27  N8  UNL     1      35.104   6.912  22.811  1.00  0.00    -0.231 N 
HETATM   28  N9  UNL     1      34.002   6.286  24.776  1.00  0.00    -0.137 N 
ATOM     29  H82 UNL     1      35.729   6.711  22.030  1.00  0.00     0.174 HD
ATOM     30  H81 UNL     1      34.661   7.825  22.903  1.00  0.00     0.174 HD
ATOM     31  H9  UNL     1      34.409   6.496  25.687  1.00  0.00     0.205 HD
HETATM   32  O2  UNL     1      34.639   3.545  25.479  1.00  0.00    -0.235 OA
HETATM   33  O3  UNL     1      36.125   2.596  23.922  1.00  0.00    -0.238 OA
BRANCH  28  34
HETATM   34  N10 UNL     1      32.601   6.285  24.649  1.00  0.00    -0.331 N 
ATOM     35 2H10 UNL     1      32.212   6.160  23.715  1.00  0.00     0.177 HD
ATOM     36 1H10 UNL     1      31.975   6.402  25.445  1.00  0.00     0.177 HD
ENDBRANCH  28  34
ENDBRANCH   3  21
TORSDOF 6
ENDMDL
MODEL 5
REMARK VINA RESULT: -6.998397213      6.402      9.250
REMARK  6 active torsions:
REMARK  status: ('A' for Active; 'I' for Inactive)
REMARK    1  A    between atoms: O1_2  and  C2_3 
REMARK    2  A    between atoms: C3_6  and  N2_7 
REMARK    3  A    between atoms: C4_12  and  N4_13 
REMARK    4  A    between atoms: N4_13  and  N5_15 
REMARK    5  A    between atoms: C5_17  and  C7_19 
REMARK       I    between atoms: N7_22  and  C8_23 
REMARK       I    between atoms: C8_23  and  N9_27 
REMARK    6  A    between atoms: N9_27  and  N10_29 
ROOT
HETATM    1  N5  UNL     1      35.392   2.585  24.816  1.00  0.00    -0.287 N 
ATOM      2  H5  UNL     1      34.486   2.722  25.264  1.00  0.00     0.187 HD
HETATM    3  C5  UNL     1      35.590   3.341  23.838  1.00  0.00     0.075 C 
HETATM    4  C6  UNL     1      34.563   4.327  23.417  1.00  0.00     0.074 C 
ENDROOT
BRANCH   1   5
HETATM    5  N4  UNL     1      36.150   1.616  25.399  1.00  0.00    -0.131 N 
ATOM      6  H4  UNL     1      36.326   1.649  26.403  1.00  0.00     0.205 HD
BRANCH   5   7
HETATM    7  C4  UNL     1      36.644   0.659  24.699  1.00  0.00     0.714 A 
HETATM    8  N3  UNL     1      37.966   0.564  24.537  1.00  0.00    -0.021 N 
HETATM    9  C3  UNL     1      38.447  -0.460  23.784  1.00  0.00     0.693 A 
ATOM     10  H3  UNL     1      38.597   1.241  24.966  1.00  0.00     0.203 HD
HETATM   11  N1  UNL     1      37.617  -1.370  23.206  1.00  0.00    -0.154 N 
HETATM   12  C2  UNL     1      36.298  -1.263  23.376  1.00  0.00     0.252 A 
ATOM     13  H1  UNL     1      38.002  -2.131  22.646  1.00  0.00     0.188 HD
HETATM   14  N11 UNL     1      35.833  -0.240  24.127  1.00  0.00    -0.152 N 
ATOM     15  H11 UNL     1      34.826  -0.149  24.264  1.00  0.00     0.188 HD
BRANCH   9  16
HETATM   16  N2  UNL     1      39.726  -0.532  23.642  1.00  0.00    -0.234 N 
ATOM     17  H22 UNL     1      40.174   0.212  23.106  1.00  0.00     0.174 HD
ATOM     18  H21 UNL     1      40.265  -1.296  24.049  1.00  0.00     0.174 HD
ENDBRANCH   9  16
BRANCH  12  19
HETATM   19  O1  UNL     1      35.369  -2.138  22.827  1.00  0.00    -0.326 OA
HETATM   20  C1  UNL     1      35.716  -3.524  22.892  1.00  0.00     0.213 C 
ENDBRANCH  12  19
ENDBRANCH   5   7
ENDBRANCH   1   5
BRANCH   3  21
HETATM   21  C7  UNL     1      36.819   3.271  23.070  1.00  0.00     0.192 A 
HETATM   22  N6  UNL     1      36.877   3.017  21.821  1.00  0.00    -0.252 N 
HETATM   23  N7  UNL     1      38.177   3.010  21.330  1.00  0.00    -0.022 N 
ATOM     24  H6  UNL     1      36.055   2.839  21.243  1.00  0.00     0.190 HD
HETATM   25  C8  UNL     1      38.627   2.768  20.005  1.00  0.00     0.716 C 
HETATM   26  C9  UNL     1      38.988   3.304  22.471  1.00  0.00     0.407 A 
HETATM   27  N8  UNL     1      37.771   2.521  19.083  1.00  0.00    -0.231 N 
HETATM   28  N9  UNL     1      40.013   2.795  19.691  1.00  0.00    -0.137 N 
ATOM     29  H82 UNL     1      36.777   2.502  19.308  1.00  0.00     0.174 HD
ATOM     30  H81 UNL     1      38.094   2.347  18.132  1.00  0.00     0.174 HD
ATOM     31  H9  UNL     1      40.585   1.986  19.933  1.00  0.00     0.205 HD
HETATM   32  O2  UNL     1      40.240   3.403  22.518  1.00  0.00    -0.235 OA
HETATM   33  O3  UNL     1      38.123   3.464  23.543  1.00  0.00    -0.238 OA
BRANCH  28  34
HETATM   34  N10 UNL     1      40.628   3.891  19.059  1.00  0.00    -0.331 N 
ATOM     35 2H10 UNL     1      41.495   4.243  19.464  1.00  0.00     0.177 HD
ATOM     36 1H10 UNL     1      40.243   4.334  18.226  1.00  0.00     0.177 HD
ENDBRANCH  28  34
ENDBRANCH   3  21
TORSDOF 6
ENDMDL
