MODEL 1
REMARK VINA RESULT: -7.175425130      0.000      0.000
REMARK  7 active torsions:
REMARK  status: ('A' for Active; 'I' for Inactive)
REMARK       I    between atoms: N1_1  and  C1_4 
REMARK       I    between atoms: C1_4  and  N2_5 
REMARK       I    between atoms: C1_4  and  N9_30 
REMARK    1  A    between atoms: N2_5  and  C2_7 
REMARK    2  A    between atoms: C2_7  and  N3_8 
REMARK    3  A    between atoms: C2_7  and  C3_11 
REMARK    4  A    between atoms: C5_17  and  C6_18 
REMARK    5  A    between atoms: N7_21  and  C7_22 
REMARK    6  A    between atoms: C7_22  and  O2_23 
REMARK    7  A    between atoms: N9_30  and  N10_32 
ROOT
HETATM    1  C3  UNL     1      36.174  -2.071  12.319  1.00  0.00     0.152 A 
HETATM    2  N4  UNL     1      37.501  -1.934  12.140  1.00  0.00    -0.323 N 
ATOM      3  H4  UNL     1      38.135  -2.694  11.897  1.00  0.00     0.169 HD
HETATM    4  C4  UNL     1      37.872  -0.666  12.326  1.00  0.00     0.141 A 
HETATM    5  N5  UNL     1      39.022   0.004  12.277  1.00  0.00    -0.322 N 
ATOM      6  H5  UNL     1      39.864  -0.524  12.046  1.00  0.00     0.169 HD
HETATM    7  C5  UNL     1      39.163   1.329  12.510  1.00  0.00     0.180 A 
HETATM    8  N7  UNL     1      38.040   1.993  12.808  1.00  0.00    -0.272 N 
HETATM    9  C8  UNL     1      36.835   1.372  12.876  1.00  0.00     0.281 A 
HETATM   10  O3  UNL     1      35.780   2.026  13.164  1.00  0.00    -0.265 OA
HETATM   11  C9  UNL     1      36.736   0.039  12.637  1.00  0.00     0.147 A 
HETATM   12  N8  UNL     1      35.701  -0.854  12.625  1.00  0.00    -0.332 N 
ATOM     13  H8  UNL     1      34.725  -0.630  12.818  1.00  0.00     0.168 HD
ENDROOT
BRANCH   1  14
HETATM   14  C2  UNL     1      35.365  -3.269  12.214  1.00  0.00     0.159 C 
BRANCH  14  15
HETATM   15  N2  UNL     1      35.097  -4.086  13.346  1.00  0.00    -0.172 N 
HETATM   16  C1  UNL     1      35.598  -5.395  13.471  1.00  0.00     0.697 C 
HETATM   17  N1  UNL     1      36.762  -5.605  14.027  1.00  0.00    -0.233 N 
HETATM   18  N9  UNL     1      34.848  -6.505  12.992  1.00  0.00    -0.072 N 
ATOM     19  H12 UNL     1      37.300  -4.809  14.370  1.00  0.00     0.174 HD
ATOM     20  H11 UNL     1      37.126  -6.554  14.118  1.00  0.00     0.174 HD
ATOM     21  H9  UNL     1      34.971  -7.432  13.399  1.00  0.00     0.212 HD
ATOM     22  H2  UNL     1      34.519  -3.709  14.097  1.00  0.00     0.186 HD
BRANCH  18  23
HETATM   23  N10 UNL     1      33.938  -6.298  11.953  1.00  0.00    -0.024 N 
HETATM   24  O4  UNL     1      32.746  -6.016  12.134  1.00  0.00    -0.516 OA
HETATM   25  O5  UNL     1      34.402  -6.417  10.666  1.00  0.00    -0.516 OA
ENDBRANCH  18  23
ENDBRANCH  14  15
BRANCH  14  26
HETATM   26  N3  UNL     1      34.878  -3.611  11.089  1.00  0.00    -0.382 N 
ATOM     27  H32 UNL     1      33.888  -3.464  10.897  1.00  0.00     0.157 HD
ATOM     28  H31 UNL     1      35.500  -4.030  10.396  1.00  0.00     0.157 HD
ENDBRANCH  14  26
ENDBRANCH   1  14
BRANCH   7  29
HETATM   29  C6  UNL     1      40.469   1.935  12.439  1.00  0.00     0.299 C 
HETATM   30  N6  UNL     1      41.075   2.581  11.355  1.00  0.00    -0.054 NA
HETATM   31  O1  UNL     1      41.187   1.887  13.504  1.00  0.00    -0.268 OA
ENDBRANCH   7  29
BRANCH   8  32
HETATM   32  C7  UNL     1      38.020   3.417  13.051  1.00  0.00     0.300 C 
BRANCH  32  33
HETATM   33  O2  UNL     1      37.625   4.126  11.918  1.00  0.00    -0.382 OA
ATOM     34  H2  UNL     1      37.749   5.061  12.029  1.00  0.00     0.211 HD
ENDBRANCH  32  33
ENDBRANCH   8  32
TORSDOF 7
ENDMDL
MODEL 2
REMARK VINA RESULT: -6.924161314      2.374      2.707
REMARK  7 active torsions:
REMARK  status: ('A' for Active; 'I' for Inactive)
REMARK       I    between atoms: N1_1  and  C1_4 
REMARK       I    between atoms: C1_4  and  N2_5 
REMARK       I    between atoms: C1_4  and  N9_30 
REMARK    1  A    between atoms: N2_5  and  C2_7 
REMARK    2  A    between atoms: C2_7  and  N3_8 
REMARK    3  A    between atoms: C2_7  and  C3_11 
REMARK    4  A    between atoms: C5_17  and  C6_18 
REMARK    5  A    between atoms: N7_21  and  C7_22 
REMARK    6  A    between atoms: C7_22  and  O2_23 
REMARK    7  A    between atoms: N9_30  and  N10_32 
ROOT
HETATM    1  C3  UNL     1      36.637  -1.556  11.966  1.00  0.00     0.152 A 
HETATM    2  N4  UNL     1      37.913  -1.165  11.785  1.00  0.00    -0.323 N 
ATOM      3  H4  UNL     1      38.659  -1.765  11.433  1.00  0.00     0.169 HD
HETATM    4  C4  UNL     1      38.067   0.114  12.129  1.00  0.00     0.141 A 
HETATM    5  N5  UNL     1      39.082   0.977  12.150  1.00  0.00    -0.322 N 
ATOM      6  H5  UNL     1      39.992   0.639  11.837  1.00  0.00     0.169 HD
HETATM    7  C5  UNL     1      39.000   2.266  12.552  1.00  0.00     0.180 A 
HETATM    8  N7  UNL     1      37.793   2.679  12.954  1.00  0.00    -0.272 N 
HETATM    9  C8  UNL     1      36.716   1.852  12.959  1.00  0.00     0.281 A 
HETATM   10  O3  UNL     1      35.577   2.268  13.347  1.00  0.00    -0.265 OA
HETATM   11  C9  UNL     1      36.839   0.564  12.549  1.00  0.00     0.147 A 
HETATM   12  N8  UNL     1      35.974  -0.489  12.437  1.00  0.00    -0.332 N 
ATOM     13  H8  UNL     1      34.983  -0.467  12.673  1.00  0.00     0.168 HD
ENDROOT
BRANCH   1  14
HETATM   14  C2  UNL     1      36.044  -2.855  11.718  1.00  0.00     0.159 C 
BRANCH  14  15
HETATM   15  N2  UNL     1      36.639  -4.049  12.207  1.00  0.00    -0.172 N 
HETATM   16  C1  UNL     1      36.374  -4.554  13.493  1.00  0.00     0.697 C 
HETATM   17  N1  UNL     1      35.381  -5.381  13.686  1.00  0.00    -0.233 N 
HETATM   18  N9  UNL     1      37.183  -4.171  14.601  1.00  0.00    -0.072 N 
ATOM     19  H12 UNL     1      34.801  -5.655  12.892  1.00  0.00     0.174 HD
ATOM     20  H11 UNL     1      35.188  -5.747  14.619  1.00  0.00     0.174 HD
ATOM     21  H9  UNL     1      37.280  -4.783  15.411  1.00  0.00     0.212 HD
ATOM     22  H2  UNL     1      37.283  -4.560  11.603  1.00  0.00     0.186 HD
BRANCH  18  23
HETATM   23  N10 UNL     1      37.840  -2.941  14.553  1.00  0.00    -0.024 N 
HETATM   24  O4  UNL     1      37.373  -1.897  15.028  1.00  0.00    -0.516 OA
HETATM   25  O5  UNL     1      39.071  -2.897  13.945  1.00  0.00    -0.516 OA
ENDBRANCH  18  23
ENDBRANCH  14  15
BRANCH  14  26
HETATM   26  N3  UNL     1      34.966  -2.943  11.048  1.00  0.00    -0.382 N 
ATOM     27  H32 UNL     1      34.202  -2.291  11.222  1.00  0.00     0.157 HD
ATOM     28  H31 UNL     1      34.891  -3.675  10.340  1.00  0.00     0.157 HD
ENDBRANCH  14  26
ENDBRANCH   1  14
BRANCH   7  29
HETATM   29  C6  UNL     1      40.179   3.096  12.540  1.00  0.00     0.299 C 
HETATM   30  N6  UNL     1      40.910   3.593  13.626  1.00  0.00    -0.054 NA
HETATM   31  O1  UNL     1      40.637   3.433  11.387  1.00  0.00    -0.268 OA
ENDBRANCH   7  29
BRANCH   8  32
HETATM   32  C7  UNL     1      37.537   4.035  13.382  1.00  0.00     0.300 C 
BRANCH  32  33
HETATM   33  O2  UNL     1      37.802   4.204  14.740  1.00  0.00    -0.382 OA
ATOM     34  H2  UNL     1      37.644   5.097  15.019  1.00  0.00     0.211 HD
ENDBRANCH  32  33
ENDBRANCH   8  32
TORSDOF 7
ENDMDL
MODEL 3
REMARK VINA RESULT: -6.875021828      1.103      2.434
REMARK  7 active torsions:
REMARK  status: ('A' for Active; 'I' for Inactive)
REMARK       I    between atoms: N1_1  and  C1_4 
REMARK       I    between atoms: C1_4  and  N2_5 
REMARK       I    between atoms: C1_4  and  N9_30 
REMARK    1  A    between atoms: N2_5  and  C2_7 
REMARK    2  A    between atoms: C2_7  and  N3_8 
REMARK    3  A    between atoms: C2_7  and  C3_11 
REMARK    4  A    between atoms: C5_17  and  C6_18 
REMARK    5  A    between atoms: N7_21  and  C7_22 
REMARK    6  A    between atoms: C7_22  and  O2_23 
REMARK    7  A    between atoms: N9_30  and  N10_32 
ROOT
HETATM    1  C3  UNL     1      35.995  -2.225  12.302  1.00  0.00     0.152 A 
HETATM    2  N4  UNL     1      35.496  -0.985  12.464  1.00  0.00    -0.323 N 
ATOM      3  H4  UNL     1      34.501  -0.760  12.493  1.00  0.00     0.169 HD
HETATM    4  C4  UNL     1      36.480  -0.093  12.581  1.00  0.00     0.141 A 
HETATM    5  N5  UNL     1      36.551   1.226  12.753  1.00  0.00    -0.322 N 
ATOM      6  H5  UNL     1      35.672   1.739  12.820  1.00  0.00     0.169 HD
HETATM    7  C5  UNL     1      37.697   1.939  12.846  1.00  0.00     0.180 A 
HETATM    8  N7  UNL     1      38.833   1.237  12.757  1.00  0.00    -0.272 N 
HETATM    9  C8  UNL     1      38.832  -0.109  12.580  1.00  0.00     0.281 A 
HETATM   10  O3  UNL     1      39.926  -0.756  12.496  1.00  0.00    -0.265 OA
HETATM   11  C9  UNL     1      37.660  -0.789  12.490  1.00  0.00     0.147 A 
HETATM   12  N8  UNL     1      37.331  -2.104  12.318  1.00  0.00    -0.332 N 
ATOM     13  H8  UNL     1      37.995  -2.872  12.218  1.00  0.00     0.168 HD
ENDROOT
BRANCH   1  14
HETATM   14  C2  UNL     1      35.280  -3.475  12.138  1.00  0.00     0.159 C 
BRANCH  14  15
HETATM   15  N2  UNL     1      34.869  -4.248  13.258  1.00  0.00    -0.172 N 
HETATM   16  C1  UNL     1      35.437  -5.499  13.563  1.00  0.00     0.697 C 
HETATM   17  N1  UNL     1      36.489  -5.574  14.335  1.00  0.00    -0.233 N 
HETATM   18  N9  UNL     1      34.876  -6.696  13.037  1.00  0.00    -0.072 N 
ATOM     19  H12 UNL     1      36.891  -4.716  14.712  1.00  0.00     0.174 HD
ATOM     20  H11 UNL     1      36.902  -6.481  14.557  1.00  0.00     0.174 HD
ATOM     21  H9  UNL     1      34.991  -7.584  13.524  1.00  0.00     0.212 HD
ATOM     22  H2  UNL     1      34.134  -3.882  13.863  1.00  0.00     0.186 HD
BRANCH  18  23
HETATM   23  N10 UNL     1      34.163  -6.628  11.838  1.00  0.00    -0.024 N 
HETATM   24  O4  UNL     1      34.636  -6.953  10.741  1.00  0.00    -0.516 OA
HETATM   25  O5  UNL     1      32.867  -6.174  11.890  1.00  0.00    -0.516 OA
ENDBRANCH  18  23
ENDBRANCH  14  15
BRANCH  14  26
HETATM   26  N3  UNL     1      35.008  -3.904  10.971  1.00  0.00    -0.382 N 
ATOM     27  H32 UNL     1      34.937  -4.907  10.801  1.00  0.00     0.157 HD
ATOM     28  H31 UNL     1      34.865  -3.224  10.224  1.00  0.00     0.157 HD
ENDBRANCH  14  26
ENDBRANCH   1  14
BRANCH   7  29
HETATM   29  C6  UNL     1      37.639   3.369  13.019  1.00  0.00     0.299 C 
HETATM   30  N6  UNL     1      37.544   4.102  14.208  1.00  0.00    -0.054 NA
HETATM   31  O1  UNL     1      37.682   4.083  11.951  1.00  0.00    -0.268 OA
ENDBRANCH   7  29
BRANCH   8  32
HETATM   32  C7  UNL     1      40.136   1.849  12.869  1.00  0.00     0.300 C 
BRANCH  32  33
HETATM   33  O2  UNL     1      40.769   1.942  11.631  1.00  0.00    -0.382 OA
ATOM     34  H2  UNL     1      41.069   1.094  11.327  1.00  0.00     0.211 HD
ENDBRANCH  32  33
ENDBRANCH   8  32
TORSDOF 7
ENDMDL
MODEL 4
REMARK VINA RESULT: -6.824928036      2.793      4.332
REMARK  7 active torsions:
REMARK  status: ('A' for Active; 'I' for Inactive)
REMARK       I    between atoms: N1_1  and  C1_4 
REMARK       I    between atoms: C1_4  and  N2_5 
REMARK       I    between atoms: C1_4  and  N9_30 
REMARK    1  A    between atoms: N2_5  and  C2_7 
REMARK    2  A    between atoms: C2_7  and  N3_8 
REMARK    3  A    between atoms: C2_7  and  C3_11 
REMARK    4  A    between atoms: C5_17  and  C6_18 
REMARK    5  A    between atoms: N7_21  and  C7_22 
REMARK    6  A    between atoms: C7_22  and  O2_23 
REMARK    7  A    between atoms: N9_30  and  N10_32 
ROOT
HETATM    1  C3  UNL     1      34.591  -5.417  12.038  1.00  0.00     0.152 A 
HETATM    2  N4  UNL     1      35.331  -5.409  13.163  1.00  0.00    -0.323 N 
ATOM      3  H4  UNL     1      35.417  -6.194  13.807  1.00  0.00     0.169 HD
HETATM    4  C4  UNL     1      35.938  -4.231  13.318  1.00  0.00     0.141 A 
HETATM    5  N5  UNL     1      36.758  -3.696  14.221  1.00  0.00    -0.322 N 
ATOM      6  H5  UNL     1      37.029  -4.279  15.013  1.00  0.00     0.169 HD
HETATM    7  C5  UNL     1      37.262  -2.441  14.170  1.00  0.00     0.180 A 
HETATM    8  N7  UNL     1      36.890  -1.703  13.118  1.00  0.00    -0.272 N 
HETATM    9  C8  UNL     1      36.056  -2.186  12.162  1.00  0.00     0.281 A 
HETATM   10  O3  UNL     1      35.715  -1.463  11.170  1.00  0.00    -0.265 OA
HETATM   11  C9  UNL     1      35.571  -3.451  12.250  1.00  0.00     0.147 A 
HETATM   12  N8  UNL     1      34.738  -4.209  11.474  1.00  0.00    -0.332 N 
ATOM     13  H8  UNL     1      34.299  -3.905  10.606  1.00  0.00     0.168 HD
ENDROOT
BRANCH   1  14
HETATM   14  C2  UNL     1      33.777  -6.488  11.498  1.00  0.00     0.159 C 
BRANCH  14  15
HETATM   15  N2  UNL     1      34.350  -7.725  11.094  1.00  0.00    -0.172 N 
HETATM   16  C1  UNL     1      33.794  -8.967  11.449  1.00  0.00     0.697 C 
HETATM   17  N1  UNL     1      32.896  -9.530  10.684  1.00  0.00    -0.233 N 
HETATM   18  N9  UNL     1      34.199  -9.627  12.643  1.00  0.00    -0.072 N 
ATOM     19  H12 UNL     1      32.605  -9.057   9.828  1.00  0.00     0.174 HD
ATOM     20  H11 UNL     1      32.492 -10.432  10.941  1.00  0.00     0.174 HD
ATOM     21  H9  UNL     1      34.135 -10.642  12.726  1.00  0.00     0.212 HD
ATOM     22  H2  UNL     1      35.197  -7.711  10.526  1.00  0.00     0.186 HD
BRANCH  18  23
HETATM   23  N10 UNL     1      34.686  -8.855  13.700  1.00  0.00    -0.024 N 
HETATM   24  O4  UNL     1      33.996  -8.505  14.666  1.00  0.00    -0.516 OA
HETATM   25  O5  UNL     1      36.004  -8.468  13.654  1.00  0.00    -0.516 OA
ENDBRANCH  18  23
ENDBRANCH  14  15
BRANCH  14  26
HETATM   26  N3  UNL     1      32.521  -6.332  11.374  1.00  0.00    -0.382 N 
ATOM     27  H32 UNL     1      31.895  -7.130  11.478  1.00  0.00     0.157 HD
ATOM     28  H31 UNL     1      32.164  -5.397  11.172  1.00  0.00     0.157 HD
ENDBRANCH  14  26
ENDBRANCH   1  14
BRANCH   7  29
HETATM   29  C6  UNL     1      38.132  -1.976  15.221  1.00  0.00     0.299 C 
HETATM   30  N6  UNL     1      39.515  -1.762  15.180  1.00  0.00    -0.054 NA
HETATM   31  O1  UNL     1      37.583  -1.714  16.353  1.00  0.00    -0.268 OA
ENDBRANCH   7  29
BRANCH   8  32
HETATM   32  C7  UNL     1      37.368  -0.357  12.905  1.00  0.00     0.300 C 
BRANCH  32  33
HETATM   33  O2  UNL     1      36.355   0.583  13.092  1.00  0.00    -0.382 OA
ATOM     34  H2  UNL     1      35.941   0.488  13.941  1.00  0.00     0.211 HD
ENDBRANCH  32  33
ENDBRANCH   8  32
TORSDOF 7
ENDMDL
MODEL 5
REMARK VINA RESULT: -6.794106711      2.324      3.263
REMARK  7 active torsions:
REMARK  status: ('A' for Active; 'I' for Inactive)
REMARK       I    between atoms: N1_1  and  C1_4 
REMARK       I    between atoms: C1_4  and  N2_5 
REMARK       I    between atoms: C1_4  and  N9_30 
REMARK    1  A    between atoms: N2_5  and  C2_7 
REMARK    2  A    between atoms: C2_7  and  N3_8 
REMARK    3  A    between atoms: C2_7  and  C3_11 
REMARK    4  A    between atoms: C5_17  and  C6_18 
REMARK    5  A    between atoms: N7_21  and  C7_22 
REMARK    6  A    between atoms: C7_22  and  O2_23 
REMARK    7  A    between atoms: N9_30  and  N10_32 
ROOT
HETATM    1  C3  UNL     1      37.413   0.348  12.653  1.00  0.00     0.152 A 
HETATM    2  N4  UNL     1      38.546   1.059  12.504  1.00  0.00    -0.323 N 
ATOM      3  H4  UNL     1      39.452   0.661  12.257  1.00  0.00     0.169 HD
HETATM    4  C4  UNL     1      38.321   2.355  12.726  1.00  0.00     0.141 A 
HETATM    5  N5  UNL     1      39.061   3.463  12.715  1.00  0.00    -0.322 N 
ATOM      6  H5  UNL     1      40.051   3.365  12.488  1.00  0.00     0.169 HD
HETATM    7  C5  UNL     1      38.603   4.708  12.980  1.00  0.00     0.180 A 
HETATM    8  N7  UNL     1      37.300   4.803  13.271  1.00  0.00    -0.272 N 
HETATM    9  C8  UNL     1      36.490   3.714  13.301  1.00  0.00     0.281 A 
HETATM   10  O3  UNL     1      35.253   3.830  13.582  1.00  0.00    -0.265 OA
HETATM   11  C9  UNL     1      36.988   2.481  13.030  1.00  0.00     0.147 A 
HETATM   12  N8  UNL     1      36.451   1.225  12.977  1.00  0.00    -0.332 N 
ATOM     13  H8  UNL     1      35.474   0.992  13.156  1.00  0.00     0.168 HD
ENDROOT
BRANCH   1  14
HETATM   14  C2  UNL     1      37.213  -1.080  12.506  1.00  0.00     0.159 C 
BRANCH  14  15
HETATM   15  N2  UNL     1      36.203  -1.768  13.231  1.00  0.00    -0.172 N 
HETATM   16  C1  UNL     1      36.045  -3.165  13.168  1.00  0.00     0.697 C 
HETATM   17  N1  UNL     1      36.687  -3.940  14.002  1.00  0.00    -0.233 N 
HETATM   18  N9  UNL     1      35.187  -3.752  12.196  1.00  0.00    -0.072 N 
ATOM     19  H12 UNL     1      37.302  -3.519  14.698  1.00  0.00     0.174 HD
ATOM     20  H11 UNL     1      36.572  -4.953  13.957  1.00  0.00     0.174 HD
ATOM     21  H9  UNL     1      34.753  -4.660  12.364  1.00  0.00     0.212 HD
ATOM     22  H2  UNL     1      35.569  -1.229  13.820  1.00  0.00     0.186 HD
BRANCH  18  23
HETATM   23  N10 UNL     1      34.951  -3.059  11.008  1.00  0.00    -0.024 N 
HETATM   24  O4  UNL     1      34.462  -1.922  10.965  1.00  0.00    -0.516 OA
HETATM   25  O5  UNL     1      35.282  -3.681   9.829  1.00  0.00    -0.516 OA
ENDBRANCH  18  23
ENDBRANCH  14  15
BRANCH  14  26
HETATM   26  N3  UNL     1      37.953  -1.746  11.713  1.00  0.00    -0.382 N 
ATOM     27  H32 UNL     1      38.630  -2.411  12.086  1.00  0.00     0.157 HD
ATOM     28  H31 UNL     1      37.848  -1.598  10.709  1.00  0.00     0.157 HD
ENDBRANCH  14  26
ENDBRANCH   1  14
BRANCH   7  29
HETATM   29  C6  UNL     1      39.511   5.827  12.949  1.00  0.00     0.299 C 
HETATM   30  N6  UNL     1      40.161   6.455  14.018  1.00  0.00    -0.054 NA
HETATM   31  O1  UNL     1      39.772   6.327  11.794  1.00  0.00    -0.268 OA
ENDBRANCH   7  29
BRANCH   8  32
HETATM   32  C7  UNL     1      36.655   6.066  13.546  1.00  0.00     0.300 C 
BRANCH  32  33
HETATM   33  O2  UNL     1      36.396   6.226  14.906  1.00  0.00    -0.382 OA
ATOM     34  H2  UNL     1      37.198   6.318  15.407  1.00  0.00     0.211 HD
ENDBRANCH  32  33
ENDBRANCH   8  32
TORSDOF 7
ENDMDL
