MODEL 1
REMARK VINA RESULT: -6.824846774      0.000      0.000
REMARK  8 active torsions:
REMARK  status: ('A' for Active; 'I' for Inactive)
REMARK    1  A    between atoms: N1_1  and  S1_4 
REMARK    2  A    between atoms: S1_4  and  N2_6 
REMARK    3  A    between atoms: N2_6  and  N3_8 
REMARK    4  A    between atoms: C1_10  and  C2_11 
REMARK    5  A    between atoms: C3_12  and  N4_13 
REMARK    6  A    between atoms: N4_13  and  C4_15 
REMARK    7  A    between atoms: C5_16  and  O2_17 
REMARK    8  A    between atoms: C7_25  and  N7_26 
ROOT
HETATM    1  C2  UNL     1      36.199  -2.857  12.341  1.00  0.00     0.066 A 
HETATM    2  C3  UNL     1      36.530  -1.503  12.490  1.00  0.00     0.103 A 
HETATM    3  C8  UNL     1      36.053  -1.301  11.219  1.00  0.00     0.250 A 
HETATM    4  O4  UNL     1      35.935  -0.306  10.444  1.00  0.00    -0.282 OA
HETATM    5  C9  UNL     1      35.724  -2.649  11.074  1.00  0.00     0.238 A 
HETATM    6  O5  UNL     1      35.206  -3.308  10.129  1.00  0.00    -0.283 OA
ENDROOT
BRANCH   2   7
HETATM    7  N4  UNL     1      37.108  -0.689  13.505  1.00  0.00    -0.346 N 
ATOM      8  H4  UNL     1      37.074  -0.987  14.480  1.00  0.00     0.166 HD
BRANCH   7   9
HETATM    9  C4  UNL     1      37.723   0.523  13.160  1.00  0.00     0.128 A 
HETATM   10  C5  UNL     1      37.016   1.726  13.077  1.00  0.00     0.175 A 
HETATM   11  N5  UNL     1      37.663   2.850  12.743  1.00  0.00    -0.287 N 
HETATM   12  C6  UNL     1      38.983   2.845  12.482  1.00  0.00     0.327 A 
ATOM     13  H5  UNL     1      37.145   3.727  12.685  1.00  0.00     0.172 HD
HETATM   14  O3  UNL     1      39.591   3.914  12.165  1.00  0.00    -0.247 OA
HETATM   15  N6  UNL     1      39.711   1.716  12.546  1.00  0.00    -0.293 N 
HETATM   16  C7  UNL     1      39.068   0.564  12.886  1.00  0.00     0.134 A 
ATOM     17  H6  UNL     1      40.712   1.722  12.346  1.00  0.00     0.172 HD
BRANCH  10  18
HETATM   18  O2  UNL     1      35.648   1.694  13.355  1.00  0.00    -0.344 OA
ATOM     19  H2  UNL     1      35.052   1.605  12.620  1.00  0.00     0.219 HD
ENDBRANCH  10  18
BRANCH  16  20
HETATM   20  N7  UNL     1      39.773  -0.507  12.944  1.00  0.00    -0.383 N 
ATOM     21  H72 UNL     1      39.327  -1.339  13.332  1.00  0.00     0.157 HD
ATOM     22  H71 UNL     1      40.737  -0.507  12.611  1.00  0.00     0.157 HD
ENDBRANCH  16  20
ENDBRANCH   7   9
ENDBRANCH   2   7
BRANCH   1  23
HETATM   23  C1  UNL     1      36.341  -4.000  13.249  1.00  0.00     0.126 C 
HETATM   24  N3  UNL     1      35.443  -4.834  13.520  1.00  0.00    -0.302 N 
ATOM     25  H3  UNL     1      35.779  -5.540  14.176  1.00  0.00     0.186 HD
BRANCH  24  26
HETATM   26  N2  UNL     1      34.185  -5.048  13.189  1.00  0.00    -0.232 N 
ATOM     27  H2  UNL     1      33.379  -4.621  13.644  1.00  0.00     0.199 HD
BRANCH  26  28
HETATM   28  S1  UNL     1      34.102  -6.204  11.818  1.00  0.00     0.229 S 
HETATM   29  O1  UNL     1      33.406  -6.969  13.020  1.00  0.00    -0.211 OA
BRANCH  28  30
HETATM   30  N1  UNL     1      34.406  -6.328  10.639  1.00  0.00    -0.331 N 
ATOM     31  H12 UNL     1      34.236  -6.912   9.821  1.00  0.00     0.168 HD
ATOM     32  H11 UNL     1      34.976  -5.907   9.905  1.00  0.00     0.168 HD
ENDBRANCH  28  30
ENDBRANCH  26  28
ENDBRANCH  24  26
ENDBRANCH   1  23
TORSDOF 8
ENDMDL
MODEL 2
REMARK VINA RESULT: -6.752619402      2.555      4.368
REMARK  8 active torsions:
REMARK  status: ('A' for Active; 'I' for Inactive)
REMARK    1  A    between atoms: N1_1  and  S1_4 
REMARK    2  A    between atoms: S1_4  and  N2_6 
REMARK    3  A    between atoms: N2_6  and  N3_8 
REMARK    4  A    between atoms: C1_10  and  C2_11 
REMARK    5  A    between atoms: C3_12  and  N4_13 
REMARK    6  A    between atoms: N4_13  and  C4_15 
REMARK    7  A    between atoms: C5_16  and  O2_17 
REMARK    8  A    between atoms: C7_25  and  N7_26 
ROOT
HETATM    1  C2  UNL     1      34.740  -6.104  13.040  1.00  0.00     0.066 A 
HETATM    2  C3  UNL     1      35.361  -4.945  13.525  1.00  0.00     0.103 A 
HETATM    3  C8  UNL     1      36.295  -5.757  14.117  1.00  0.00     0.250 A 
HETATM    4  O4  UNL     1      37.328  -5.578  14.829  1.00  0.00    -0.282 OA
HETATM    5  C9  UNL     1      35.676  -6.909  13.632  1.00  0.00     0.238 A 
HETATM    6  O5  UNL     1      35.943  -8.138  13.746  1.00  0.00    -0.283 OA
ENDROOT
BRANCH   2   7
HETATM    7  N4  UNL     1      35.130  -3.543  13.446  1.00  0.00    -0.346 N 
ATOM      8  H4  UNL     1      34.245  -3.151  13.770  1.00  0.00     0.166 HD
BRANCH   7   9
HETATM    9  C4  UNL     1      36.122  -2.701  12.923  1.00  0.00     0.128 A 
HETATM   10  C5  UNL     1      36.203  -2.394  11.561  1.00  0.00     0.175 A 
HETATM   11  N5  UNL     1      37.175  -1.584  11.124  1.00  0.00    -0.287 N 
HETATM   12  C6  UNL     1      38.079  -1.058  11.970  1.00  0.00     0.327 A 
ATOM     13  H5  UNL     1      37.230  -1.361  10.130  1.00  0.00     0.172 HD
HETATM   14  O3  UNL     1      38.999  -0.290  11.550  1.00  0.00    -0.247 OA
HETATM   15  N6  UNL     1      38.048  -1.320  13.288  1.00  0.00    -0.293 N 
HETATM   16  C7  UNL     1      37.065  -2.143  13.750  1.00  0.00     0.134 A 
ATOM     17  H6  UNL     1      38.739  -0.917  13.922  1.00  0.00     0.172 HD
BRANCH  10  18
HETATM   18  O2  UNL     1      35.247  -2.958  10.712  1.00  0.00    -0.344 OA
ATOM     19  H2  UNL     1      35.474  -3.768  10.270  1.00  0.00     0.219 HD
ENDBRANCH  10  18
BRANCH  16  20
HETATM   20  N7  UNL     1      37.045  -2.386  15.010  1.00  0.00    -0.383 N 
ATOM     21  H72 UNL     1      36.230  -2.877  15.378  1.00  0.00     0.157 HD
ATOM     22  H71 UNL     1      37.822  -2.093  15.602  1.00  0.00     0.157 HD
ENDBRANCH  16  20
ENDBRANCH   7   9
ENDBRANCH   2   7
BRANCH   1  23
HETATM   23  C1  UNL     1      33.543  -6.296  12.215  1.00  0.00     0.126 C 
HETATM   24  N3  UNL     1      33.535  -6.551  10.986  1.00  0.00    -0.302 N 
ATOM     25  H3  UNL     1      32.582  -6.642  10.633  1.00  0.00     0.186 HD
BRANCH  24  26
HETATM   26  N2  UNL     1      34.420  -6.734  10.027  1.00  0.00    -0.232 N 
ATOM     27  H2  UNL     1      34.684  -6.035   9.332  1.00  0.00     0.199 HD
BRANCH  26  28
HETATM   28  S1  UNL     1      35.094  -8.395  10.126  1.00  0.00     0.229 S 
HETATM   29  O1  UNL     1      35.301  -7.976   8.610  1.00  0.00    -0.211 OA
BRANCH  28  30
HETATM   30  N1  UNL     1      35.284  -9.315  10.909  1.00  0.00    -0.331 N 
ATOM     31  H12 UNL     1      36.025  -9.878  11.326  1.00  0.00     0.168 HD
ATOM     32  H11 UNL     1      34.793  -9.966  11.524  1.00  0.00     0.168 HD
ENDBRANCH  28  30
ENDBRANCH  26  28
ENDBRANCH  24  26
ENDBRANCH   1  23
TORSDOF 8
ENDMDL
MODEL 3
REMARK VINA RESULT: -6.706797507      2.359      3.147
REMARK  8 active torsions:
REMARK  status: ('A' for Active; 'I' for Inactive)
REMARK    1  A    between atoms: N1_1  and  S1_4 
REMARK    2  A    between atoms: S1_4  and  N2_6 
REMARK    3  A    between atoms: N2_6  and  N3_8 
REMARK    4  A    between atoms: C1_10  and  C2_11 
REMARK    5  A    between atoms: C3_12  and  N4_13 
REMARK    6  A    between atoms: N4_13  and  C4_15 
REMARK    7  A    between atoms: C5_16  and  O2_17 
REMARK    8  A    between atoms: C7_25  and  N7_26 
ROOT
HETATM    1  C2  UNL     1      36.071  -2.455  12.550  1.00  0.00     0.066 A 
HETATM    2  C3  UNL     1      36.541  -1.135  12.572  1.00  0.00     0.103 A 
HETATM    3  C8  UNL     1      36.151  -1.030  11.261  1.00  0.00     0.250 A 
HETATM    4  O4  UNL     1      36.181  -0.122  10.378  1.00  0.00    -0.282 OA
HETATM    5  C9  UNL     1      35.683  -2.344  11.241  1.00  0.00     0.238 A 
HETATM    6  O5  UNL     1      35.142  -3.048  10.343  1.00  0.00    -0.283 OA
ENDROOT
BRANCH   2   7
HETATM    7  N4  UNL     1      37.154  -0.276  13.527  1.00  0.00    -0.346 N 
ATOM      8  H4  UNL     1      37.233  -0.569  14.502  1.00  0.00     0.166 HD
BRANCH   7   9
HETATM    9  C4  UNL     1      37.649   0.973  13.125  1.00  0.00     0.128 A 
HETATM   10  C5  UNL     1      36.843   2.114  13.062  1.00  0.00     0.175 A 
HETATM   11  N5  UNL     1      37.377   3.277  12.669  1.00  0.00    -0.287 N 
HETATM   12  C6  UNL     1      38.676   3.372  12.332  1.00  0.00     0.327 A 
ATOM     13  H5  UNL     1      36.787   4.108  12.626  1.00  0.00     0.172 HD
HETATM   14  O3  UNL     1      39.177   4.478  11.960  1.00  0.00    -0.247 OA
HETATM   15  N6  UNL     1      39.496   2.306  12.374  1.00  0.00    -0.293 N 
HETATM   16  C7  UNL     1      38.968   1.115  12.772  1.00  0.00     0.134 A 
ATOM     17  H6  UNL     1      40.479   2.387  12.116  1.00  0.00     0.172 HD
BRANCH  10  18
HETATM   18  O2  UNL     1      35.500   1.979  13.419  1.00  0.00    -0.344 OA
ATOM     19  H2  UNL     1      35.290   1.373  14.120  1.00  0.00     0.219 HD
ENDBRANCH  10  18
BRANCH  16  20
HETATM   20  N7  UNL     1      39.760   0.104  12.808  1.00  0.00    -0.383 N 
ATOM     21  H72 UNL     1      40.458   0.031  12.068  1.00  0.00     0.157 HD
ATOM     22  H71 UNL     1      39.678  -0.585  13.555  1.00  0.00     0.157 HD
ENDBRANCH  16  20
ENDBRANCH   7   9
ENDBRANCH   2   7
BRANCH   1  23
HETATM   23  C1  UNL     1      36.042  -3.497  13.581  1.00  0.00     0.126 C 
HETATM   24  N3  UNL     1      36.970  -3.756  14.386  1.00  0.00    -0.302 N 
ATOM     25  H3  UNL     1      36.717  -4.522  15.010  1.00  0.00     0.186 HD
BRANCH  24  26
HETATM   26  N2  UNL     1      38.183  -3.309  14.644  1.00  0.00    -0.232 N 
ATOM     27  H2  UNL     1      39.000  -3.454  14.051  1.00  0.00     0.199 HD
BRANCH  26  28
HETATM   28  S1  UNL     1      38.183  -2.406  16.196  1.00  0.00     0.229 S 
HETATM   29  O1  UNL     1      39.172  -1.587  15.265  1.00  0.00    -0.211 OA
BRANCH  28  30
HETATM   30  N1  UNL     1      37.700  -2.417  17.320  1.00  0.00    -0.331 N 
ATOM     31  H12 UNL     1      37.925  -2.630  18.291  1.00  0.00     0.168 HD
ATOM     32  H11 UNL     1      36.838  -2.217  17.829  1.00  0.00     0.168 HD
ENDBRANCH  28  30
ENDBRANCH  26  28
ENDBRANCH  24  26
ENDBRANCH   1  23
TORSDOF 8
ENDMDL
MODEL 4
REMARK VINA RESULT: -6.634591276      3.314      7.293
REMARK  8 active torsions:
REMARK  status: ('A' for Active; 'I' for Inactive)
REMARK    1  A    between atoms: N1_1  and  S1_4 
REMARK    2  A    between atoms: S1_4  and  N2_6 
REMARK    3  A    between atoms: N2_6  and  N3_8 
REMARK    4  A    between atoms: C1_10  and  C2_11 
REMARK    5  A    between atoms: C3_12  and  N4_13 
REMARK    6  A    between atoms: N4_13  and  C4_15 
REMARK    7  A    between atoms: C5_16  and  O2_17 
REMARK    8  A    between atoms: C7_25  and  N7_26 
ROOT
HETATM    1  C2  UNL     1      37.809  -1.572  13.041  1.00  0.00     0.066 A 
HETATM    2  C3  UNL     1      37.100  -2.538  13.767  1.00  0.00     0.103 A 
HETATM    3  C8  UNL     1      38.244  -2.756  14.493  1.00  0.00     0.250 A 
HETATM    4  O4  UNL     1      38.578  -3.517  15.450  1.00  0.00    -0.282 OA
HETATM    5  C9  UNL     1      38.947  -1.793  13.769  1.00  0.00     0.238 A 
HETATM    6  O5  UNL     1      40.136  -1.372  13.833  1.00  0.00    -0.283 OA
ENDROOT
BRANCH   2   7
HETATM    7  N4  UNL     1      35.779  -3.067  13.760  1.00  0.00    -0.346 N 
ATOM      8  H4  UNL     1      35.030  -2.581  14.255  1.00  0.00     0.166 HD
BRANCH   7   9
HETATM    9  C4  UNL     1      35.508  -4.259  13.071  1.00  0.00     0.128 A 
HETATM   10  C5  UNL     1      35.723  -5.518  13.639  1.00  0.00     0.175 A 
HETATM   11  N5  UNL     1      35.445  -6.618  12.928  1.00  0.00    -0.287 N 
HETATM   12  C6  UNL     1      34.963  -6.537  11.675  1.00  0.00     0.327 A 
ATOM     13  H5  UNL     1      35.602  -7.536  13.345  1.00  0.00     0.172 HD
HETATM   14  O3  UNL     1      34.701  -7.584  11.005  1.00  0.00    -0.247 OA
HETATM   15  N6  UNL     1      34.738  -5.352  11.080  1.00  0.00    -0.293 N 
HETATM   16  C7  UNL     1      35.015  -4.223  11.790  1.00  0.00     0.134 A 
ATOM     17  H6  UNL     1      34.372  -5.300  10.129  1.00  0.00     0.172 HD
BRANCH  10  18
HETATM   18  O2  UNL     1      36.224  -5.565  14.941  1.00  0.00    -0.344 OA
ATOM     19  H2  UNL     1      35.978  -6.306  15.482  1.00  0.00     0.219 HD
ENDBRANCH  10  18
BRANCH  16  20
HETATM   20  N7  UNL     1      34.797  -3.097  11.213  1.00  0.00    -0.383 N 
ATOM     21  H72 UNL     1      34.140  -3.092  10.432  1.00  0.00     0.157 HD
ATOM     22  H71 UNL     1      35.270  -2.254  11.537  1.00  0.00     0.157 HD
ENDBRANCH  16  20
ENDBRANCH   7   9
ENDBRANCH   2   7
BRANCH   1  23
HETATM   23  C1  UNL     1      37.409  -0.697  11.934  1.00  0.00     0.126 C 
HETATM   24  N3  UNL     1      36.754   0.368  12.043  1.00  0.00    -0.302 N 
ATOM     25  H3  UNL     1      36.598   0.803  11.133  1.00  0.00     0.186 HD
BRANCH  24  26
HETATM   26  N2  UNL     1      36.212   1.079  13.012  1.00  0.00    -0.232 N 
ATOM     27  H2  UNL     1      35.528   0.729  13.683  1.00  0.00     0.199 HD
BRANCH  26  28
HETATM   28  S1  UNL     1      36.857   2.754  12.976  1.00  0.00     0.229 S 
HETATM   29  O1  UNL     1      35.382   2.913  13.536  1.00  0.00    -0.211 OA
BRANCH  28  30
HETATM   30  N1  UNL     1      37.856   3.398  12.686  1.00  0.00    -0.331 N 
ATOM     31  H12 UNL     1      38.663   3.397  12.062  1.00  0.00     0.168 HD
ATOM     32  H11 UNL     1      38.366   4.248  12.929  1.00  0.00     0.168 HD
ENDBRANCH  28  30
ENDBRANCH  26  28
ENDBRANCH  24  26
ENDBRANCH   1  23
TORSDOF 8
ENDMDL
MODEL 5
REMARK VINA RESULT: -6.618755167      2.978      6.838
REMARK  8 active torsions:
REMARK  status: ('A' for Active; 'I' for Inactive)
REMARK    1  A    between atoms: N1_1  and  S1_4 
REMARK    2  A    between atoms: S1_4  and  N2_6 
REMARK    3  A    between atoms: N2_6  and  N3_8 
REMARK    4  A    between atoms: C1_10  and  C2_11 
REMARK    5  A    between atoms: C3_12  and  N4_13 
REMARK    6  A    between atoms: N4_13  and  C4_15 
REMARK    7  A    between atoms: C5_16  and  O2_17 
REMARK    8  A    between atoms: C7_25  and  N7_26 
ROOT
HETATM    1  C2  UNL     1      39.301   1.051  13.128  1.00  0.00     0.066 A 
HETATM    2  C3  UNL     1      38.377   0.060  12.766  1.00  0.00     0.103 A 
HETATM    3  C8  UNL     1      39.411  -0.608  12.160  1.00  0.00     0.250 A 
HETATM    4  O4  UNL     1      39.533  -1.693  11.516  1.00  0.00    -0.282 OA
HETATM    5  C9  UNL     1      40.328   0.378  12.521  1.00  0.00     0.238 A 
HETATM    6  O5  UNL     1      41.569   0.508  12.325  1.00  0.00    -0.283 OA
ENDROOT
BRANCH   2   7
HETATM    7  N4  UNL     1      36.982  -0.161  12.944  1.00  0.00    -0.346 N 
ATOM      8  H4  UNL     1      36.409   0.539  13.416  1.00  0.00     0.166 HD
BRANCH   7   9
HETATM    9  C4  UNL     1      36.399  -1.344  12.469  1.00  0.00     0.128 A 
HETATM   10  C5  UNL     1      35.953  -1.483  11.151  1.00  0.00     0.175 A 
HETATM   11  N5  UNL     1      35.404  -2.640  10.759  1.00  0.00    -0.287 N 
HETATM   12  C6  UNL     1      35.270  -3.674  11.609  1.00  0.00     0.327 A 
ATOM     13  H5  UNL     1      35.081  -2.739   9.796  1.00  0.00     0.172 HD
HETATM   14  O3  UNL     1      34.748  -4.768  11.232  1.00  0.00    -0.247 OA
HETATM   15  N6  UNL     1      35.680  -3.594  12.888  1.00  0.00    -0.293 N 
HETATM   16  C7  UNL     1      36.242  -2.424  13.302  1.00  0.00     0.134 A 
ATOM     17  H6  UNL     1      35.574  -4.383  13.526  1.00  0.00     0.172 HD
BRANCH  10  18
HETATM   18  O2  UNL     1      36.108  -0.390  10.295  1.00  0.00    -0.344 OA
ATOM     19  H2  UNL     1      35.473  -0.284   9.597  1.00  0.00     0.219 HD
ENDBRANCH  10  18
BRANCH  16  20
HETATM   20  N7  UNL     1      36.630  -2.359  14.524  1.00  0.00    -0.383 N 
ATOM     21  H72 UNL     1      37.433  -2.930  14.790  1.00  0.00     0.157 HD
ATOM     22  H71 UNL     1      36.144  -1.755  15.186  1.00  0.00     0.157 HD
ENDBRANCH  16  20
ENDBRANCH   7   9
ENDBRANCH   2   7
BRANCH   1  23
HETATM   23  C1  UNL     1      39.145   2.303  13.874  1.00  0.00     0.126 C 
HETATM   24  N3  UNL     1      38.318   3.212  13.614  1.00  0.00    -0.302 N 
ATOM     25  H3  UNL     1      38.398   3.985  14.275  1.00  0.00     0.186 HD
BRANCH  24  26
HETATM   26  N2  UNL     1      37.375   3.439  12.722  1.00  0.00    -0.232 N 
ATOM     27  H2  UNL     1      37.426   3.180  11.737  1.00  0.00     0.199 HD
BRANCH  26  28
HETATM   28  S1  UNL     1      35.988   4.274  13.497  1.00  0.00     0.229 S 
HETATM   29  O1  UNL     1      35.574   2.743  13.493  1.00  0.00    -0.211 OA
BRANCH  28  30
HETATM   30  N1  UNL     1      35.593   5.382  13.834  1.00  0.00    -0.331 N 
ATOM     31  H12 UNL     1      34.748   5.950  13.900  1.00  0.00     0.168 HD
ATOM     32  H11 UNL     1      35.916   6.274  14.210  1.00  0.00     0.168 HD
ENDBRANCH  28  30
ENDBRANCH  26  28
ENDBRANCH  24  26
ENDBRANCH   1  23
TORSDOF 8
ENDMDL
