MODEL 1
REMARK VINA RESULT: -6.851024992      0.000      0.000
REMARK  4 active torsions:
REMARK  status: ('A' for Active; 'I' for Inactive)
REMARK       I    between atoms: N1_2  and  C2_4 
REMARK    1  A    between atoms: C2_4  and  C3_6 
REMARK    2  A    between atoms: C3_6  and  C4_7 
REMARK    3  A    between atoms: C4_7  and  N2_8 
REMARK       I    between atoms: N2_8  and  C5_10 
REMARK       I    between atoms: C5_10  and  N3_12 
REMARK    4  A    between atoms: N3_12  and  C6_14 
ROOT
HETATM    1  C6  UNL     1      41.161  -1.425  31.341  1.00  0.00     0.091 C 
HETATM    2  C7  UNL     1      40.517  -2.761  31.257  1.00  0.00     0.030 C 
HETATM    3  C8  UNL     1      39.450  -3.017  32.260  1.00  0.00    -0.012 C 
HETATM    4  C9  UNL     1      39.971  -2.748  33.661  1.00  0.00     0.010 C 
HETATM    5  C10 UNL     1      39.706  -1.377  34.157  1.00  0.00    -0.010 C 
HETATM    6  C11 UNL     1      40.668  -1.066  35.292  1.00  0.00     0.005 C 
HETATM    7  C12 UNL     1      41.551  -0.418  34.228  1.00  0.00     0.006 C 
HETATM    8  C13 UNL     1      40.314  -0.266  33.429  1.00  0.00    -0.004 C 
HETATM    9  C14 UNL     1      40.362  -0.342  31.944  1.00  0.00     0.013 C 
HETATM   10  C15 UNL     1      39.009  -0.094  31.377  1.00  0.00     0.015 C 
HETATM   11  C16 UNL     1      38.028  -1.160  31.252  1.00  0.00    -0.047 C 
HETATM   12  C17 UNL     1      37.727  -1.453  29.768  1.00  0.00     0.015 C 
HETATM   13  C18 UNL     1      36.674  -0.558  31.722  1.00  0.00     0.015 C 
HETATM   14  C19 UNL     1      38.141  -2.403  32.043  1.00  0.00     0.013 C 
ENDROOT
BRANCH   1  15
HETATM   15  N3  UNL     1      41.646  -1.033  30.029  1.00  0.00    -0.338 N 
HETATM   16  C5  UNL     1      42.987  -1.245  29.597  1.00  0.00     0.316 C 
HETATM   17  N2  UNL     1      43.428  -0.852  28.314  1.00  0.00    -0.343 N 
HETATM   18  O2  UNL     1      43.772  -1.800  30.404  1.00  0.00    -0.247 OA
ATOM     19  H2  UNL     1      42.774  -0.405  27.672  1.00  0.00     0.164 HD
ATOM     20  H3  UNL     1      40.995  -0.585  29.385  1.00  0.00     0.164 HD
BRANCH  17  21
HETATM   21  C4  UNL     1      44.778  -1.073  27.906  1.00  0.00     0.133 C 
BRANCH  21  22
HETATM   22  C3  UNL     1      44.984  -1.329  26.451  1.00  0.00     0.122 C 
BRANCH  22  23
HETATM   23  C2  UNL     1      44.270  -2.524  25.960  1.00  0.00     0.218 C 
HETATM   24  N1  UNL     1      44.516  -3.028  24.662  1.00  0.00    -0.365 N 
HETATM   25  C1  UNL     1      43.844  -4.198  24.129  1.00  0.00     0.149 C 
ATOM     26  H1  UNL     1      45.196  -2.547  24.074  1.00  0.00     0.161 HD
HETATM   27  O1  UNL     1      43.421  -3.143  26.664  1.00  0.00    -0.274 OA
ENDBRANCH  22  23
ENDBRANCH  21  22
ENDBRANCH  17  21
ENDBRANCH   1  15
TORSDOF 4
ENDMDL
MODEL 2
REMARK VINA RESULT: -6.649456114      1.523      2.847
REMARK  4 active torsions:
REMARK  status: ('A' for Active; 'I' for Inactive)
REMARK       I    between atoms: N1_2  and  C2_4 
REMARK    1  A    between atoms: C2_4  and  C3_6 
REMARK    2  A    between atoms: C3_6  and  C4_7 
REMARK    3  A    between atoms: C4_7  and  N2_8 
REMARK       I    between atoms: N2_8  and  C5_10 
REMARK       I    between atoms: C5_10  and  N3_12 
REMARK    4  A    between atoms: N3_12  and  C6_14 
ROOT
HETATM    1  C6  UNL     1      39.518  -1.919  30.459  1.00  0.00     0.091 C 
HETATM    2  C7  UNL     1      38.323  -1.250  29.884  1.00  0.00     0.030 C 
HETATM    3  C8  UNL     1      37.037  -1.540  30.571  1.00  0.00    -0.012 C 
HETATM    4  C9  UNL     1      36.826  -3.041  30.677  1.00  0.00     0.010 C 
HETATM    5  C10 UNL     1      37.306  -3.635  31.946  1.00  0.00    -0.010 C 
HETATM    6  C11 UNL     1      37.512  -5.129  31.747  1.00  0.00     0.005 C 
HETATM    7  C12 UNL     1      38.971  -4.784  31.458  1.00  0.00     0.006 C 
HETATM    8  C13 UNL     1      38.735  -3.547  32.236  1.00  0.00    -0.004 C 
HETATM    9  C14 UNL     1      39.445  -2.288  31.886  1.00  0.00     0.013 C 
HETATM   10  C15 UNL     1      39.089  -1.215  32.853  1.00  0.00     0.015 C 
HETATM   11  C16 UNL     1      37.889  -0.410  32.688  1.00  0.00    -0.047 C 
HETATM   12  C17 UNL     1      38.256   1.062  32.406  1.00  0.00     0.015 C 
HETATM   13  C18 UNL     1      37.248  -0.297  34.101  1.00  0.00     0.015 C 
HETATM   14  C19 UNL     1      36.769  -0.867  31.841  1.00  0.00     0.013 C 
ENDROOT
BRANCH   1  15
HETATM   15  N3  UNL     1      40.700  -1.118  30.198  1.00  0.00    -0.338 N 
HETATM   16  C5  UNL     1      41.875  -1.638  29.584  1.00  0.00     0.316 C 
HETATM   17  N2  UNL     1      43.010  -0.832  29.343  1.00  0.00    -0.343 N 
HETATM   18  O2  UNL     1      41.868  -2.851  29.260  1.00  0.00    -0.247 OA
ATOM     19  H2  UNL     1      42.996   0.152  29.611  1.00  0.00     0.164 HD
ATOM     20  H3  UNL     1      40.689  -0.134  30.466  1.00  0.00     0.164 HD
BRANCH  17  21
HETATM   21  C4  UNL     1      44.177  -1.378  28.728  1.00  0.00     0.133 C 
BRANCH  21  22
HETATM   22  C3  UNL     1      44.329  -1.111  27.268  1.00  0.00     0.122 C 
BRANCH  22  23
HETATM   23  C2  UNL     1      44.273  -2.334  26.442  1.00  0.00     0.218 C 
HETATM   24  N1  UNL     1      44.214  -2.248  25.032  1.00  0.00    -0.365 N 
HETATM   25  C1  UNL     1      44.158  -3.415  24.172  1.00  0.00     0.149 C 
ATOM     26  H1  UNL     1      44.210  -1.325  24.600  1.00  0.00     0.161 HD
HETATM   27  O1  UNL     1      44.277  -3.494  26.946  1.00  0.00    -0.274 OA
ENDBRANCH  22  23
ENDBRANCH  21  22
ENDBRANCH  17  21
ENDBRANCH   1  15
TORSDOF 4
ENDMDL
MODEL 3
REMARK VINA RESULT: -6.636960391      4.038      6.577
REMARK  4 active torsions:
REMARK  status: ('A' for Active; 'I' for Inactive)
REMARK       I    between atoms: N1_2  and  C2_4 
REMARK    1  A    between atoms: C2_4  and  C3_6 
REMARK    2  A    between atoms: C3_6  and  C4_7 
REMARK    3  A    between atoms: C4_7  and  N2_8 
REMARK       I    between atoms: N2_8  and  C5_10 
REMARK       I    between atoms: C5_10  and  N3_12 
REMARK    4  A    between atoms: N3_12  and  C6_14 
ROOT
HETATM    1  C6  UNL     1      44.285   0.736  34.953  1.00  0.00     0.091 C 
HETATM    2  C7  UNL     1      45.255   1.845  35.142  1.00  0.00     0.030 C 
HETATM    3  C8  UNL     1      45.462   2.277  36.549  1.00  0.00    -0.012 C 
HETATM    4  C9  UNL     1      44.127   2.600  37.200  1.00  0.00     0.010 C 
HETATM    5  C10 UNL     1      43.522   1.469  37.942  1.00  0.00    -0.010 C 
HETATM    6  C11 UNL     1      42.032   1.725  38.104  1.00  0.00     0.005 C 
HETATM    7  C12 UNL     1      41.854   0.881  36.845  1.00  0.00     0.006 C 
HETATM    8  C13 UNL     1      43.164   0.276  37.179  1.00  0.00    -0.004 C 
HETATM    9  C14 UNL     1      44.086  -0.171  36.100  1.00  0.00     0.013 C 
HETATM   10  C15 UNL     1      45.296  -0.801  36.692  1.00  0.00     0.015 C 
HETATM   11  C16 UNL     1      46.432  -0.004  37.131  1.00  0.00    -0.047 C 
HETATM   12  C17 UNL     1      47.673  -0.302  36.263  1.00  0.00     0.015 C 
HETATM   13  C18 UNL     1      46.871  -0.595  38.500  1.00  0.00     0.015 C 
HETATM   14  C19 UNL     1      46.294   1.440  37.411  1.00  0.00     0.013 C 
ENDROOT
BRANCH   1  15
HETATM   15  N3  UNL     1      44.630  -0.018  33.760  1.00  0.00    -0.338 N 
HETATM   16  C5  UNL     1      43.670  -0.424  32.790  1.00  0.00     0.316 C 
HETATM   17  N2  UNL     1      44.038  -1.157  31.639  1.00  0.00    -0.343 N 
HETATM   18  O2  UNL     1      42.473  -0.106  32.993  1.00  0.00    -0.247 OA
ATOM     19  H2  UNL     1      45.016  -1.404  31.490  1.00  0.00     0.164 HD
ATOM     20  H3  UNL     1      45.607  -0.267  33.610  1.00  0.00     0.164 HD
BRANCH  17  21
HETATM   21  C4  UNL     1      43.056  -1.554  30.682  1.00  0.00     0.133 C 
BRANCH  21  22
HETATM   22  C3  UNL     1      43.515  -2.520  29.641  1.00  0.00     0.122 C 
BRANCH  22  23
HETATM   23  C2  UNL     1      44.133  -1.866  28.470  1.00  0.00     0.218 C 
HETATM   24  N1  UNL     1      44.068  -2.467  27.192  1.00  0.00    -0.365 N 
HETATM   25  C1  UNL     1      44.655  -1.870  26.008  1.00  0.00     0.149 C 
ATOM     26  H1  UNL     1      43.585  -3.360  27.098  1.00  0.00     0.161 HD
HETATM   27  O1  UNL     1      44.738  -0.758  28.552  1.00  0.00    -0.274 OA
ENDBRANCH  22  23
ENDBRANCH  21  22
ENDBRANCH  17  21
ENDBRANCH   1  15
TORSDOF 4
ENDMDL
MODEL 4
REMARK VINA RESULT: -6.587480642      3.998      6.901
REMARK  4 active torsions:
REMARK  status: ('A' for Active; 'I' for Inactive)
REMARK       I    between atoms: N1_2  and  C2_4 
REMARK    1  A    between atoms: C2_4  and  C3_6 
REMARK    2  A    between atoms: C3_6  and  C4_7 
REMARK    3  A    between atoms: C4_7  and  N2_8 
REMARK       I    between atoms: N2_8  and  C5_10 
REMARK       I    between atoms: C5_10  and  N3_12 
REMARK    4  A    between atoms: N3_12  and  C6_14 
ROOT
HETATM    1  C6  UNL     1      42.906  -1.603  31.849  1.00  0.00     0.091 C 
HETATM    2  C7  UNL     1      41.437  -1.385  31.847  1.00  0.00     0.030 C 
HETATM    3  C8  UNL     1      40.684  -2.127  30.801  1.00  0.00    -0.012 C 
HETATM    4  C9  UNL     1      41.281  -1.851  29.431  1.00  0.00     0.010 C 
HETATM    5  C10 UNL     1      42.292  -2.843  28.996  1.00  0.00    -0.010 C 
HETATM    6  C11 UNL     1      43.155  -2.225  27.907  1.00  0.00     0.005 C 
HETATM    7  C12 UNL     1      44.124  -1.856  29.028  1.00  0.00     0.006 C 
HETATM    8  C13 UNL     1      43.509  -2.962  29.796  1.00  0.00    -0.004 C 
HETATM    9  C14 UNL     1      43.386  -2.875  31.277  1.00  0.00     0.013 C 
HETATM   10  C15 UNL     1      42.800  -4.132  31.814  1.00  0.00     0.015 C 
HETATM   11  C16 UNL     1      41.361  -4.344  31.856  1.00  0.00    -0.047 C 
HETATM   12  C17 UNL     1      40.865  -4.423  33.314  1.00  0.00     0.015 C 
HETATM   13  C18 UNL     1      41.126  -5.804  31.375  1.00  0.00     0.015 C 
HETATM   14  C19 UNL     1      40.445  -3.554  31.008  1.00  0.00     0.013 C 
ENDROOT
BRANCH   1  15
HETATM   15  N3  UNL     1      43.426  -1.418  33.192  1.00  0.00    -0.338 N 
HETATM   16  C5  UNL     1      44.098  -0.236  33.613  1.00  0.00     0.316 C 
HETATM   17  N2  UNL     1      44.593  -0.087  34.928  1.00  0.00    -0.343 N 
HETATM   18  O2  UNL     1      44.238   0.680  32.767  1.00  0.00    -0.247 OA
ATOM     19  H2  UNL     1      44.467  -0.842  35.602  1.00  0.00     0.164 HD
ATOM     20  H3  UNL     1      43.302  -2.172  33.868  1.00  0.00     0.164 HD
BRANCH  17  21
HETATM   21  C4  UNL     1      45.266   1.108  35.324  1.00  0.00     0.133 C 
BRANCH  21  22
HETATM   22  C3  UNL     1      46.315   0.947  36.372  1.00  0.00     0.122 C 
BRANCH  22  23
HETATM   23  C2  UNL     1      47.111  -0.287  36.217  1.00  0.00     0.218 C 
HETATM   24  N1  UNL     1      48.390  -0.250  35.616  1.00  0.00    -0.365 N 
HETATM   25  C1  UNL     1      49.214  -1.430  35.440  1.00  0.00     0.149 C 
ATOM     26  H1  UNL     1      48.750   0.648  35.292  1.00  0.00     0.161 HD
HETATM   27  O1  UNL     1      46.695  -1.416  36.608  1.00  0.00    -0.274 OA
ENDBRANCH  22  23
ENDBRANCH  21  22
ENDBRANCH  17  21
ENDBRANCH   1  15
TORSDOF 4
ENDMDL
MODEL 5
REMARK VINA RESULT: -6.569628001      1.255      2.055
REMARK  4 active torsions:
REMARK  status: ('A' for Active; 'I' for Inactive)
REMARK       I    between atoms: N1_2  and  C2_4 
REMARK    1  A    between atoms: C2_4  and  C3_6 
REMARK    2  A    between atoms: C3_6  and  C4_7 
REMARK    3  A    between atoms: C4_7  and  N2_8 
REMARK       I    between atoms: N2_8  and  C5_10 
REMARK       I    between atoms: C5_10  and  N3_12 
REMARK    4  A    between atoms: N3_12  and  C6_14 
ROOT
HETATM    1  C6  UNL     1      40.292  -1.287  31.008  1.00  0.00     0.091 C 
HETATM    2  C7  UNL     1      40.681  -2.246  32.074  1.00  0.00     0.030 C 
HETATM    3  C8  UNL     1      39.637  -2.518  33.097  1.00  0.00    -0.012 C 
HETATM    4  C9  UNL     1      39.132  -1.214  33.691  1.00  0.00     0.010 C 
HETATM    5  C10 UNL     1      37.927  -0.668  33.026  1.00  0.00    -0.010 C 
HETATM    6  C11 UNL     1      37.817   0.816  33.340  1.00  0.00     0.005 C 
HETATM    7  C12 UNL     1      38.545   1.044  32.018  1.00  0.00     0.006 C 
HETATM    8  C13 UNL     1      38.044  -0.291  31.620  1.00  0.00    -0.004 C 
HETATM    9  C14 UNL     1      38.850  -1.163  30.724  1.00  0.00     0.013 C 
HETATM   10  C15 UNL     1      38.103  -2.414  30.421  1.00  0.00     0.015 C 
HETATM   11  C16 UNL     1      38.137  -3.557  31.320  1.00  0.00    -0.047 C 
HETATM   12  C17 UNL     1      38.840  -4.755  30.651  1.00  0.00     0.015 C 
HETATM   13  C18 UNL     1      36.674  -4.077  31.412  1.00  0.00     0.015 C 
HETATM   14  C19 UNL     1      38.535  -3.409  32.735  1.00  0.00     0.013 C 
ENDROOT
BRANCH   1  15
HETATM   15  N3  UNL     1      41.030  -1.582  29.793  1.00  0.00    -0.338 N 
HETATM   16  C5  UNL     1      42.353  -1.114  29.549  1.00  0.00     0.316 C 
HETATM   17  N2  UNL     1      43.044  -1.419  28.355  1.00  0.00    -0.343 N 
HETATM   18  O2  UNL     1      42.890  -0.414  30.442  1.00  0.00    -0.247 OA
ATOM     19  H2  UNL     1      42.591  -1.990  27.643  1.00  0.00     0.164 HD
ATOM     20  H3  UNL     1      40.579  -2.152  29.078  1.00  0.00     0.164 HD
BRANCH  17  21
HETATM   21  C4  UNL     1      44.368  -0.935  28.135  1.00  0.00     0.133 C 
BRANCH  21  22
HETATM   22  C3  UNL     1      44.927  -1.166  26.771  1.00  0.00     0.122 C 
BRANCH  22  23
HETATM   23  C2  UNL     1      44.506  -2.450  26.176  1.00  0.00     0.218 C 
HETATM   24  N1  UNL     1      44.319  -2.572  24.780  1.00  0.00    -0.365 N 
HETATM   25  C1  UNL     1      43.907  -3.808  24.143  1.00  0.00     0.149 C 
ATOM     26  H1  UNL     1      44.482  -1.753  24.194  1.00  0.00     0.161 HD
HETATM   27  O1  UNL     1      44.296  -3.484  26.874  1.00  0.00    -0.274 OA
ENDBRANCH  22  23
ENDBRANCH  21  22
ENDBRANCH  17  21
ENDBRANCH   1  15
TORSDOF 4
ENDMDL
