MODEL 1
REMARK VINA RESULT: -6.762678043      0.000      0.000
REMARK  4 active torsions:
REMARK  status: ('A' for Active; 'I' for Inactive)
REMARK    1  A    between atoms: N1_2  and  C2_4 
REMARK    2  A    between atoms: C7_13  and  C8_14 
REMARK    3  A    between atoms: C8_14  and  N3_15 
REMARK       I    between atoms: N3_15  and  C9_17 
REMARK       I    between atoms: C9_17  and  N4_19 
REMARK    4  A    between atoms: N4_19  and  C10_21 
ROOT
HETATM    1  C2  UNL     1      44.027  -0.153  35.335  1.00  0.00     0.064 A 
HETATM    2  C3  UNL     1      44.878   0.025  36.388  1.00  0.00     0.060 A 
HETATM    3 BR1  UNL     1      44.261  -0.425  38.148  1.00  0.00    -0.047 Br
HETATM    4  C4  UNL     1      46.165   0.516  36.237  1.00  0.00     0.028 A 
HETATM    5  C5  UNL     1      47.072   0.703  37.397  1.00  0.00     0.070 C 
HETATM    6  N2  UNL     1      46.586   0.828  35.009  1.00  0.00    -0.325 N 
ATOM      7  H2  UNL     1      47.529   1.192  34.871  1.00  0.00     0.169 HD
HETATM    8  C6  UNL     1      45.757   0.659  33.939  1.00  0.00     0.259 A 
HETATM    9  O1  UNL     1      46.248   0.977  32.801  1.00  0.00    -0.267 OA
HETATM   10  C7  UNL     1      44.481   0.177  34.051  1.00  0.00     0.075 A 
ENDROOT
BRANCH  10  11
HETATM   11  C8  UNL     1      43.531  -0.087  32.965  1.00  0.00     0.112 C 
BRANCH  11  12
HETATM   12  N3  UNL     1      43.928  -0.878  31.868  1.00  0.00    -0.318 N 
HETATM   13  C9  UNL     1      43.312  -0.952  30.593  1.00  0.00     0.320 C 
HETATM   14  O2  UNL     1      42.273  -0.252  30.410  1.00  0.00    -0.247 OA
HETATM   15  N4  UNL     1      43.805  -1.763  29.536  1.00  0.00    -0.338 N 
ATOM     16  H4  UNL     1      44.643  -2.324  29.688  1.00  0.00     0.164 HD
ATOM     17  H3  UNL     1      44.751  -1.465  32.007  1.00  0.00     0.170 HD
BRANCH  15  18
HETATM   18  C10 UNL     1      43.148  -1.812  28.247  1.00  0.00     0.086 C 
HETATM   19  C11 UNL     1      42.900  -3.250  27.896  1.00  0.00     0.025 C 
HETATM   20  C12 UNL     1      43.258  -3.544  26.463  1.00  0.00     0.002 C 
HETATM   21  C13 UNL     1      44.738  -3.217  26.334  1.00  0.00     0.000 C 
HETATM   22  C14 UNL     1      44.918  -1.732  26.454  1.00  0.00     0.002 C 
HETATM   23  C15 UNL     1      43.863  -1.026  27.210  1.00  0.00     0.025 C 
ENDBRANCH  15  18
ENDBRANCH  11  12
ENDBRANCH  10  11
BRANCH   1  24
HETATM   24  N1  UNL     1      42.716  -0.660  35.484  1.00  0.00    -0.392 N 
HETATM   25  C1  UNL     1      41.628   0.222  35.802  1.00  0.00     0.146 C 
ATOM     26  H1  UNL     1      42.542  -1.658  35.365  1.00  0.00     0.159 HD
ENDBRANCH   1  24
TORSDOF 4
ENDMDL
MODEL 2
REMARK VINA RESULT: -6.437205096      1.330      1.330
REMARK  4 active torsions:
REMARK  status: ('A' for Active; 'I' for Inactive)
REMARK    1  A    between atoms: N1_2  and  C2_4 
REMARK    2  A    between atoms: C7_13  and  C8_14 
REMARK    3  A    between atoms: C8_14  and  N3_15 
REMARK       I    between atoms: N3_15  and  C9_17 
REMARK       I    between atoms: C9_17  and  N4_19 
REMARK    4  A    between atoms: N4_19  and  C10_21 
ROOT
HETATM    1  C2  UNL     1      43.101   0.329  35.056  1.00  0.00     0.064 A 
HETATM    2  C3  UNL     1      43.518   1.335  35.880  1.00  0.00     0.060 A 
HETATM    3 BR1  UNL     1      42.448   1.764  37.413  1.00  0.00    -0.047 Br
HETATM    4  C4  UNL     1      44.680   2.054  35.655  1.00  0.00     0.028 A 
HETATM    5  C5  UNL     1      45.115   3.144  36.565  1.00  0.00     0.070 C 
HETATM    6  N2  UNL     1      45.420   1.749  34.586  1.00  0.00    -0.325 N 
ATOM      7  H2  UNL     1      46.280   2.264  34.397  1.00  0.00     0.169 HD
HETATM    8  C6  UNL     1      45.027   0.749  33.746  1.00  0.00     0.259 A 
HETATM    9  O1  UNL     1      45.800   0.521  32.753  1.00  0.00    -0.267 OA
HETATM   10  C7  UNL     1      43.885   0.018  33.937  1.00  0.00     0.075 A 
ENDROOT
BRANCH  10  11
HETATM   11  C8  UNL     1      43.401  -1.104  33.127  1.00  0.00     0.112 C 
BRANCH  11  12
HETATM   12  N3  UNL     1      43.962  -1.340  31.856  1.00  0.00    -0.318 N 
HETATM   13  C9  UNL     1      43.272  -1.499  30.627  1.00  0.00     0.320 C 
HETATM   14  O2  UNL     1      42.007  -1.449  30.661  1.00  0.00    -0.247 OA
HETATM   15  N4  UNL     1      43.932  -1.707  29.385  1.00  0.00    -0.338 N 
ATOM     16  H4  UNL     1      44.950  -1.745  29.363  1.00  0.00     0.164 HD
ATOM     17  H3  UNL     1      44.979  -1.405  31.815  1.00  0.00     0.170 HD
BRANCH  15  18
HETATM   18  C10 UNL     1      43.192  -1.865  28.151  1.00  0.00     0.086 C 
HETATM   19  C11 UNL     1      42.996  -3.332  27.901  1.00  0.00     0.025 C 
HETATM   20  C12 UNL     1      43.271  -3.696  26.466  1.00  0.00     0.002 C 
HETATM   21  C13 UNL     1      44.720  -3.308  26.215  1.00  0.00     0.000 C 
HETATM   22  C14 UNL     1      44.832  -1.812  26.237  1.00  0.00     0.002 C 
HETATM   23  C15 UNL     1      43.795  -1.112  27.023  1.00  0.00     0.025 C 
ENDBRANCH  15  18
ENDBRANCH  11  12
ENDBRANCH  10  11
BRANCH   1  24
HETATM   24  N1  UNL     1      41.919  -0.411  35.286  1.00  0.00    -0.392 N 
HETATM   25  C1  UNL     1      40.661   0.046  34.762  1.00  0.00     0.146 C 
ATOM     26  H1  UNL     1      41.959  -1.275  35.826  1.00  0.00     0.159 HD
ENDBRANCH   1  24
TORSDOF 4
ENDMDL
MODEL 3
REMARK VINA RESULT: -6.374579917      2.031      2.572
REMARK  4 active torsions:
REMARK  status: ('A' for Active; 'I' for Inactive)
REMARK    1  A    between atoms: N1_2  and  C2_4 
REMARK    2  A    between atoms: C7_13  and  C8_14 
REMARK    3  A    between atoms: C8_14  and  N3_15 
REMARK       I    between atoms: N3_15  and  C9_17 
REMARK       I    between atoms: C9_17  and  N4_19 
REMARK    4  A    between atoms: N4_19  and  C10_21 
ROOT
HETATM    1  C2  UNL     1      44.715   2.008  36.321  1.00  0.00     0.064 A 
HETATM    2  C3  UNL     1      45.591   1.683  37.317  1.00  0.00     0.060 A 
HETATM    3 BR1  UNL     1      45.241   2.328  39.089  1.00  0.00    -0.047 Br
HETATM    4  C4  UNL     1      46.718   0.908  37.100  1.00  0.00     0.028 A 
HETATM    5  C5  UNL     1      47.657   0.567  38.197  1.00  0.00     0.070 C 
HETATM    6  N2  UNL     1      46.955   0.463  35.863  1.00  0.00    -0.325 N 
ATOM      7  H2  UNL     1      47.778  -0.108  35.676  1.00  0.00     0.169 HD
HETATM    8  C6  UNL     1      46.096   0.773  34.849  1.00  0.00     0.259 A 
HETATM    9  O1  UNL     1      46.398   0.298  33.701  1.00  0.00    -0.267 OA
HETATM   10  C7  UNL     1      44.974   1.536  35.028  1.00  0.00     0.075 A 
ENDROOT
BRANCH  10  11
HETATM   11  C8  UNL     1      43.965   1.883  34.022  1.00  0.00     0.112 C 
BRANCH  11  12
HETATM   12  N3  UNL     1      43.959   1.218  32.780  1.00  0.00    -0.318 N 
HETATM   13  C9  UNL     1      43.244   0.042  32.437  1.00  0.00     0.320 C 
HETATM   14  O2  UNL     1      42.544  -0.497  33.344  1.00  0.00    -0.247 OA
HETATM   15  N4  UNL     1      43.281  -0.541  31.141  1.00  0.00    -0.338 N 
ATOM     16  H4  UNL     1      43.845  -0.103  30.414  1.00  0.00     0.164 HD
ATOM     17  H3  UNL     1      44.536   1.627  32.044  1.00  0.00     0.170 HD
BRANCH  15  18
HETATM   18  C10 UNL     1      42.537  -1.743  30.829  1.00  0.00     0.086 C 
HETATM   19  C11 UNL     1      43.409  -2.930  31.121  1.00  0.00     0.025 C 
HETATM   20  C12 UNL     1      43.342  -3.955  30.020  1.00  0.00     0.002 C 
HETATM   21  C13 UNL     1      43.823  -3.243  28.765  1.00  0.00     0.000 C 
HETATM   22  C14 UNL     1      42.801  -2.219  28.368  1.00  0.00     0.002 C 
HETATM   23  C15 UNL     1      41.951  -1.714  29.466  1.00  0.00     0.025 C 
ENDBRANCH  15  18
ENDBRANCH  11  12
ENDBRANCH  10  11
BRANCH   1  24
HETATM   24  N1  UNL     1      43.560   2.794  36.541  1.00  0.00    -0.392 N 
HETATM   25  C1  UNL     1      43.656   4.226  36.603  1.00  0.00     0.146 C 
ATOM     26  H1  UNL     1      42.653   2.341  36.655  1.00  0.00     0.159 HD
ENDBRANCH   1  24
TORSDOF 4
ENDMDL
MODEL 4
REMARK VINA RESULT: -6.316970393      1.928      2.164
REMARK  4 active torsions:
REMARK  status: ('A' for Active; 'I' for Inactive)
REMARK    1  A    between atoms: N1_2  and  C2_4 
REMARK    2  A    between atoms: C7_13  and  C8_14 
REMARK    3  A    between atoms: C8_14  and  N3_15 
REMARK       I    between atoms: N3_15  and  C9_17 
REMARK       I    between atoms: C9_17  and  N4_19 
REMARK    4  A    between atoms: N4_19  and  C10_21 
ROOT
HETATM    1  C2  UNL     1      43.911   2.270  35.804  1.00  0.00     0.064 A 
HETATM    2  C3  UNL     1      44.425   2.308  37.068  1.00  0.00     0.060 A 
HETATM    3 BR1  UNL     1      43.431   3.220  38.432  1.00  0.00    -0.047 Br
HETATM    4  C4  UNL     1      45.631   1.716  37.405  1.00  0.00     0.028 A 
HETATM    5  C5  UNL     1      46.172   1.770  38.786  1.00  0.00     0.070 C 
HETATM    6  N2  UNL     1      46.317   1.083  36.450  1.00  0.00    -0.325 N 
ATOM      7  H2  UNL     1      47.209   0.640  36.671  1.00  0.00     0.169 HD
HETATM    8  C6  UNL     1      45.827   1.029  35.178  1.00  0.00     0.259 A 
HETATM    9  O1  UNL     1      46.547   0.396  34.331  1.00  0.00    -0.267 OA
HETATM   10  C7  UNL     1      44.640   1.603  34.810  1.00  0.00     0.075 A 
ENDROOT
BRANCH  10  11
HETATM   11  C8  UNL     1      44.003   1.560  33.490  1.00  0.00     0.112 C 
BRANCH  11  12
HETATM   12  N3  UNL     1      44.304   0.507  32.603  1.00  0.00    -0.318 N 
HETATM   13  C9  UNL     1      43.385  -0.313  31.899  1.00  0.00     0.320 C 
HETATM   14  O2  UNL     1      42.152  -0.105  32.096  1.00  0.00    -0.247 OA
HETATM   15  N4  UNL     1      43.788  -1.338  31.001  1.00  0.00    -0.338 N 
ATOM     16  H4  UNL     1      44.782  -1.501  30.845  1.00  0.00     0.164 HD
ATOM     17  H3  UNL     1      45.293   0.312  32.451  1.00  0.00     0.170 HD
BRANCH  15  18
HETATM   18  C10 UNL     1      42.820  -2.155  30.300  1.00  0.00     0.086 C 
HETATM   19  C11 UNL     1      43.262  -3.588  30.382  1.00  0.00     0.025 C 
HETATM   20  C12 UNL     1      43.135  -4.288  29.055  1.00  0.00     0.002 C 
HETATM   21  C13 UNL     1      44.026  -3.515  28.096  1.00  0.00     0.000 C 
HETATM   22  C14 UNL     1      43.420  -2.165  27.852  1.00  0.00     0.002 C 
HETATM   23  C15 UNL     1      42.541  -1.662  28.928  1.00  0.00     0.025 C 
ENDBRANCH  15  18
ENDBRANCH  11  12
ENDBRANCH  10  11
BRANCH   1  24
HETATM   24  N1  UNL     1      42.677   2.867  35.458  1.00  0.00    -0.392 N 
HETATM   25  C1  UNL     1      41.446   2.149  35.638  1.00  0.00     0.146 C 
ATOM     26  H1  UNL     1      42.662   3.813  35.078  1.00  0.00     0.159 HD
ENDBRANCH   1  24
TORSDOF 4
ENDMDL
MODEL 5
REMARK VINA RESULT: -6.250384780      3.076      7.819
REMARK  4 active torsions:
REMARK  status: ('A' for Active; 'I' for Inactive)
REMARK    1  A    between atoms: N1_2  and  C2_4 
REMARK    2  A    between atoms: C7_13  and  C8_14 
REMARK    3  A    between atoms: C8_14  and  N3_15 
REMARK       I    between atoms: N3_15  and  C9_17 
REMARK       I    between atoms: C9_17  and  N4_19 
REMARK    4  A    between atoms: N4_19  and  C10_21 
ROOT
HETATM    1  C2  UNL     1      42.919   0.621  34.239  1.00  0.00     0.064 A 
HETATM    2  C3  UNL     1      42.419  -0.127  33.211  1.00  0.00     0.060 A 
HETATM    3 BR1  UNL     1      40.570  -0.633  33.263  1.00  0.00    -0.047 Br
HETATM    4  C4  UNL     1      43.192  -0.532  32.135  1.00  0.00     0.028 A 
HETATM    5  C5  UNL     1      42.628  -1.345  31.029  1.00  0.00     0.070 C 
HETATM    6  N2  UNL     1      44.479  -0.176  32.107  1.00  0.00    -0.325 N 
ATOM      7  H2  UNL     1      45.070  -0.462  31.326  1.00  0.00     0.169 HD
HETATM    8  C6  UNL     1      45.004   0.571  33.120  1.00  0.00     0.259 A 
HETATM    9  O1  UNL     1      46.242   0.872  33.005  1.00  0.00    -0.267 OA
HETATM   10  C7  UNL     1      44.271   0.989  34.198  1.00  0.00     0.075 A 
ENDROOT
BRANCH  10  11
HETATM   11  C8  UNL     1      44.723   1.832  35.309  1.00  0.00     0.112 C 
BRANCH  11  12
HETATM   12  N3  UNL     1      45.986   1.601  35.891  1.00  0.00    -0.318 N 
HETATM   13  C9  UNL     1      46.433   0.418  36.534  1.00  0.00     0.320 C 
HETATM   14  O2  UNL     1      45.609  -0.540  36.625  1.00  0.00    -0.247 OA
HETATM   15  N4  UNL     1      47.741   0.270  37.068  1.00  0.00    -0.338 N 
ATOM     16  H4  UNL     1      48.401   1.044  36.992  1.00  0.00     0.164 HD
ATOM     17  H3  UNL     1      46.653   2.370  35.846  1.00  0.00     0.170 HD
BRANCH  15  18
HETATM   18  C10 UNL     1      48.161  -0.953  37.718  1.00  0.00     0.086 C 
HETATM   19  C11 UNL     1      48.515  -0.636  39.142  1.00  0.00     0.025 C 
HETATM   20  C12 UNL     1      49.800  -1.302  39.559  1.00  0.00     0.002 C 
HETATM   21  C13 UNL     1      50.866  -0.764  38.618  1.00  0.00     0.000 C 
HETATM   22  C14 UNL     1      50.612  -1.301  37.240  1.00  0.00     0.002 C 
HETATM   23  C15 UNL     1      49.210  -1.675  36.956  1.00  0.00     0.025 C 
ENDBRANCH  15  18
ENDBRANCH  11  12
ENDBRANCH  10  11
BRANCH   1  24
HETATM   24  N1  UNL     1      42.132   1.042  35.335  1.00  0.00    -0.392 N 
HETATM   25  C1  UNL     1      41.992   0.204  36.494  1.00  0.00     0.146 C 
ATOM     26  H1  UNL     1      41.662   1.946  35.303  1.00  0.00     0.159 HD
ENDBRANCH   1  24
TORSDOF 4
ENDMDL
