MODEL 1
REMARK VINA RESULT: -6.345653831      0.000      0.000
REMARK  10 active torsions:
REMARK  status: ('A' for Active; 'I' for Inactive)
REMARK    1  A    between atoms: C4_9  and  C5_10 
REMARK    2  A    between atoms: C5_10  and  C6_11 
REMARK    3  A    between atoms: C7_12  and  N3_13 
REMARK    4  A    between atoms: N3_13  and  C8_14 
REMARK    5  A    between atoms: C10_16  and  C11_17 
REMARK    6  A    between atoms: C16_29  and  N7_30 
REMARK    7  A    between atoms: N7_30  and  C17_32 
REMARK    8  A    between atoms: C17_32  and  C18_33 
REMARK    9  A    between atoms: C18_33  and  C19_34 
REMARK   10  A    between atoms: C19_34  and  O2_35 
ROOT
HETATM    1  C6  UNL     1      45.508   2.006  37.040  1.00  0.00     0.033 A 
HETATM    2  C7  UNL     1      44.832   2.495  38.188  1.00  0.00     0.138 A 
HETATM    3  C14 UNL     1      45.290   2.058  39.446  1.00  0.00     0.067 A 
HETATM    4 BR1  UNL     1      44.456   2.622  41.062  1.00  0.00    -0.046 Br
HETATM    5  C15 UNL     1      46.350   1.196  39.526  1.00  0.00     0.112 A 
HETATM    6  N6  UNL     1      46.943   0.765  38.414  1.00  0.00    -0.350 N 
ATOM      7  H6  UNL     1      47.728   0.119  38.501  1.00  0.00     0.166 HD
HETATM    8  C16 UNL     1      46.550   1.148  37.155  1.00  0.00     0.114 A 
ENDROOT
BRANCH   2   9
HETATM    9  N3  UNL     1      43.763   3.277  38.115  1.00  0.00    -0.384 NA
BRANCH   9  10
HETATM   10  C8  UNL     1      42.825   3.982  38.063  1.00  0.00     0.195 A 
HETATM   11  C9  UNL     1      41.536   3.689  38.521  1.00  0.00     0.092 A 
HETATM   12  C10 UNL     1      40.714   4.748  38.260  1.00  0.00     0.034 A 
HETATM   13  N4  UNL     1      41.485   5.642  37.666  1.00  0.00    -0.302 N 
HETATM   14  N5  UNL     1      42.721   5.248  37.526  1.00  0.00    -0.274 N 
ATOM     15  H4  UNL     1      41.147   6.550  37.348  1.00  0.00     0.186 HD
ATOM     16  H5  UNL     1      43.476   5.781  37.095  1.00  0.00     0.189 HD
BRANCH  12  17
HETATM   17  C11 UNL     1      39.264   4.754  38.621  1.00  0.00     0.037 A 
HETATM   18  C12 UNL     1      38.451   3.544  38.509  1.00  0.00     0.011 A 
HETATM   19  C13 UNL     1      38.333   4.580  37.409  1.00  0.00     0.011 A 
ENDBRANCH  12  17
ENDBRANCH   9  10
ENDBRANCH   2   9
BRANCH   1  20
HETATM   20  C5  UNL     1      44.978   2.512  35.775  1.00  0.00     0.092 C 
BRANCH  20  21
HETATM   21  C4  UNL     1      44.372   1.618  34.832  1.00  0.00     0.039 A 
HETATM   22  C2  UNL     1      43.066   1.107  34.817  1.00  0.00     0.034 A 
HETATM   23  C1  UNL     1      41.989   1.355  35.795  1.00  0.00     0.070 C 
HETATM   24  N1  UNL     1      42.924   0.290  33.735  1.00  0.00    -0.302 N 
HETATM   25  N2  UNL     1      44.101   0.283  33.091  1.00  0.00    -0.266 N 
ATOM     26  H1  UNL     1      42.082  -0.219  33.467  1.00  0.00     0.186 HD
HETATM   27  C3  UNL     1      44.960   1.064  33.729  1.00  0.00     0.268 A 
ATOM     28  H2  UNL     1      44.303  -0.243  32.241  1.00  0.00     0.190 HD
HETATM   29  O1  UNL     1      46.168   1.243  33.328  1.00  0.00    -0.266 OA
ENDBRANCH  20  21
ENDBRANCH   1  20
BRANCH   8  30
HETATM   30  N7  UNL     1      47.139   0.629  36.137  1.00  0.00    -0.355 N 
ATOM     31  H7  UNL     1      47.150   1.188  35.284  1.00  0.00     0.166 HD
BRANCH  30  32
HETATM   32  C17 UNL     1      47.766  -0.621  36.073  1.00  0.00     0.064 C 
BRANCH  32  33
HETATM   33  C18 UNL     1      49.230  -0.617  35.718  1.00  0.00     0.070 C 
BRANCH  33  34
HETATM   34  C19 UNL     1      50.050  -0.850  36.976  1.00  0.00     0.169 C 
BRANCH  34  35
HETATM   35  O2  UNL     1      49.820   0.213  37.860  1.00  0.00    -0.401 OA
ATOM     36  H2  UNL     1      50.305   0.050  38.660  1.00  0.00     0.209 HD
ENDBRANCH  34  35
ENDBRANCH  33  34
ENDBRANCH  32  33
ENDBRANCH  30  32
ENDBRANCH   8  30
TORSDOF 10
ENDMDL
MODEL 2
REMARK VINA RESULT: -6.260855498      8.585     12.081
REMARK  10 active torsions:
REMARK  status: ('A' for Active; 'I' for Inactive)
REMARK    1  A    between atoms: C4_9  and  C5_10 
REMARK    2  A    between atoms: C5_10  and  C6_11 
REMARK    3  A    between atoms: C7_12  and  N3_13 
REMARK    4  A    between atoms: N3_13  and  C8_14 
REMARK    5  A    between atoms: C10_16  and  C11_17 
REMARK    6  A    between atoms: C16_29  and  N7_30 
REMARK    7  A    between atoms: N7_30  and  C17_32 
REMARK    8  A    between atoms: C17_32  and  C18_33 
REMARK    9  A    between atoms: C18_33  and  C19_34 
REMARK   10  A    between atoms: C19_34  and  O2_35 
ROOT
HETATM    1  C6  UNL     1      41.896  -4.705  30.240  1.00  0.00     0.033 A 
HETATM    2  C7  UNL     1      42.058  -6.074  30.576  1.00  0.00     0.138 A 
HETATM    3  C14 UNL     1      40.909  -6.887  30.562  1.00  0.00     0.067 A 
HETATM    4 BR1  UNL     1      40.989  -8.734  31.015  1.00  0.00    -0.046 Br
HETATM    5  C15 UNL     1      39.695  -6.348  30.231  1.00  0.00     0.112 A 
HETATM    6  N6  UNL     1      39.599  -5.054  29.930  1.00  0.00    -0.350 N 
ATOM      7  H6  UNL     1      38.682  -4.678  29.691  1.00  0.00     0.166 HD
HETATM    8  C16 UNL     1      40.677  -4.203  29.924  1.00  0.00     0.114 A 
ENDROOT
BRANCH   2   9
HETATM    9  N3  UNL     1      43.219  -6.586  30.962  1.00  0.00    -0.384 NA
BRANCH   9  10
HETATM   10  C8  UNL     1      44.240  -7.045  31.321  1.00  0.00     0.195 A 
HETATM   11  C9  UNL     1      44.656  -8.372  31.169  1.00  0.00     0.092 A 
HETATM   12  C10 UNL     1      45.887  -8.526  31.738  1.00  0.00     0.034 A 
HETATM   13  N4  UNL     1      46.196  -7.331  32.214  1.00  0.00    -0.302 N 
HETATM   14  N5  UNL     1      45.273  -6.435  31.999  1.00  0.00    -0.274 N 
ATOM     15  H4  UNL     1      47.069  -7.131  32.701  1.00  0.00     0.186 HD
ATOM     16  H5  UNL     1      45.310  -5.455  32.282  1.00  0.00     0.189 HD
BRANCH  12  17
HETATM   17  C11 UNL     1      46.615  -9.830  31.753  1.00  0.00     0.037 A 
HETATM   18  C12 UNL     1      45.900 -11.093  31.933  1.00  0.00     0.011 A 
HETATM   19  C13 UNL     1      46.621 -10.511  33.132  1.00  0.00     0.011 A 
ENDBRANCH  12  17
ENDBRANCH   9  10
ENDBRANCH   2   9
BRANCH   1  20
HETATM   20  C5  UNL     1      43.135  -3.931  30.269  1.00  0.00     0.092 C 
BRANCH  20  21
HETATM   21  C4  UNL     1      43.285  -2.768  29.445  1.00  0.00     0.039 A 
HETATM   22  C2  UNL     1      43.433  -2.686  28.054  1.00  0.00     0.034 A 
HETATM   23  C1  UNL     1      43.491  -3.799  27.086  1.00  0.00     0.070 C 
HETATM   24  N1  UNL     1      43.547  -1.376  27.696  1.00  0.00    -0.302 N 
HETATM   25  N2  UNL     1      43.475  -0.653  28.825  1.00  0.00    -0.266 N 
ATOM     26  H1  UNL     1      43.663  -1.013  26.750  1.00  0.00     0.186 HD
HETATM   27  C3  UNL     1      43.319  -1.465  29.862  1.00  0.00     0.268 A 
ATOM     28  H2  UNL     1      43.533   0.363  28.877  1.00  0.00     0.190 HD
HETATM   29  O1  UNL     1      43.221  -1.039  31.070  1.00  0.00    -0.266 OA
ENDBRANCH  20  21
ENDBRANCH   1  20
BRANCH   8  30
HETATM   30  N7  UNL     1      40.479  -2.956  29.685  1.00  0.00    -0.355 N 
ATOM     31  H7  UNL     1      41.201  -2.476  29.146  1.00  0.00     0.166 HD
BRANCH  30  32
HETATM   32  C17 UNL     1      39.381  -2.185  30.083  1.00  0.00     0.064 C 
BRANCH  32  33
HETATM   33  C18 UNL     1      39.483  -1.525  31.433  1.00  0.00     0.070 C 
BRANCH  33  34
HETATM   34  C19 UNL     1      39.829  -0.057  31.247  1.00  0.00     0.169 C 
BRANCH  34  35
HETATM   35  O2  UNL     1      40.540   0.084  30.048  1.00  0.00    -0.401 OA
ATOM     36  H2  UNL     1      41.185  -0.611  29.996  1.00  0.00     0.209 HD
ENDBRANCH  34  35
ENDBRANCH  33  34
ENDBRANCH  32  33
ENDBRANCH  30  32
ENDBRANCH   8  30
TORSDOF 10
ENDMDL
MODEL 3
REMARK VINA RESULT: -6.230059700      7.985     11.981
REMARK  10 active torsions:
REMARK  status: ('A' for Active; 'I' for Inactive)
REMARK    1  A    between atoms: C4_9  and  C5_10 
REMARK    2  A    between atoms: C5_10  and  C6_11 
REMARK    3  A    between atoms: C7_12  and  N3_13 
REMARK    4  A    between atoms: N3_13  and  C8_14 
REMARK    5  A    between atoms: C10_16  and  C11_17 
REMARK    6  A    between atoms: C16_29  and  N7_30 
REMARK    7  A    between atoms: N7_30  and  C17_32 
REMARK    8  A    between atoms: C17_32  and  C18_33 
REMARK    9  A    between atoms: C18_33  and  C19_34 
REMARK   10  A    between atoms: C19_34  and  O2_35 
ROOT
HETATM    1  C6  UNL     1      38.913  -1.561  30.704  1.00  0.00     0.033 A 
HETATM    2  C7  UNL     1      40.316  -1.725  30.844  1.00  0.00     0.138 A 
HETATM    3  C14 UNL     1      40.944  -1.059  31.913  1.00  0.00     0.067 A 
HETATM    4 BR1  UNL     1      42.823  -1.180  32.197  1.00  0.00    -0.046 Br
HETATM    5  C15 UNL     1      40.203  -0.291  32.770  1.00  0.00     0.112 A 
HETATM    6  N6  UNL     1      38.889  -0.168  32.588  1.00  0.00    -0.350 N 
ATOM      7  H6  UNL     1      38.361   0.414  33.238  1.00  0.00     0.166 HD
HETATM    8  C16 UNL     1      38.211  -0.788  31.567  1.00  0.00     0.114 A 
ENDROOT
BRANCH   2   9
HETATM    9  N3  UNL     1      41.048  -2.414  29.979  1.00  0.00    -0.384 NA
BRANCH   9  10
HETATM   10  C8  UNL     1      41.681  -3.026  29.201  1.00  0.00     0.195 A 
HETATM   11  C9  UNL     1      42.702  -2.529  28.382  1.00  0.00     0.092 A 
HETATM   12  C10 UNL     1      43.180  -3.538  27.596  1.00  0.00     0.034 A 
HETATM   13  N4  UNL     1      42.468  -4.601  27.933  1.00  0.00    -0.302 N 
HETATM   14  N5  UNL     1      41.583  -4.358  28.860  1.00  0.00    -0.274 N 
ATOM     15  H4  UNL     1      42.598  -5.519  27.509  1.00  0.00     0.186 HD
ATOM     16  H5  UNL     1      40.933  -5.034  29.262  1.00  0.00     0.189 HD
BRANCH  12  17
HETATM   17  C11 UNL     1      44.276  -3.339  26.601  1.00  0.00     0.037 A 
HETATM   18  C12 UNL     1      44.245  -2.226  25.655  1.00  0.00     0.011 A 
HETATM   19  C13 UNL     1      43.837  -3.594  25.149  1.00  0.00     0.011 A 
ENDBRANCH  12  17
ENDBRANCH   9  10
ENDBRANCH   2   9
BRANCH   1  20
HETATM   20  C5  UNL     1      38.336  -2.290  29.577  1.00  0.00     0.092 C 
BRANCH  20  21
HETATM   21  C4  UNL     1      37.507  -3.438  29.801  1.00  0.00     0.039 A 
HETATM   22  C2  UNL     1      36.132  -3.591  29.575  1.00  0.00     0.034 A 
HETATM   23  C1  UNL     1      35.185  -2.582  29.060  1.00  0.00     0.070 C 
HETATM   24  N1  UNL     1      35.762  -4.853  29.934  1.00  0.00    -0.302 N 
HETATM   25  N2  UNL     1      36.866  -5.475  30.375  1.00  0.00    -0.266 N 
ATOM     26  H1  UNL     1      34.823  -5.248  29.878  1.00  0.00     0.186 HD
HETATM   27  C3  UNL     1      37.900  -4.650  30.299  1.00  0.00     0.268 A 
ATOM     28  H2  UNL     1      36.902  -6.435  30.717  1.00  0.00     0.190 HD
HETATM   29  O1  UNL     1      39.088  -4.988  30.658  1.00  0.00    -0.266 OA
ENDBRANCH  20  21
ENDBRANCH   1  20
BRANCH   8  30
HETATM   30  N7  UNL     1      36.954  -0.558  31.430  1.00  0.00    -0.355 N 
ATOM     31  H7  UNL     1      36.481  -1.051  30.672  1.00  0.00     0.166 HD
BRANCH  30  32
HETATM   32  C17 UNL     1      36.163   0.297  32.207  1.00  0.00     0.064 C 
BRANCH  32  33
HETATM   33  C18 UNL     1      35.073  -0.354  33.018  1.00  0.00     0.070 C 
BRANCH  33  34
HETATM   34  C19 UNL     1      33.946  -0.777  32.090  1.00  0.00     0.169 C 
BRANCH  34  35
HETATM   35  O2  UNL     1      33.884   0.129  31.023  1.00  0.00    -0.401 OA
ATOM     36  H2  UNL     1      33.114  -0.070  30.503  1.00  0.00     0.209 HD
ENDBRANCH  34  35
ENDBRANCH  33  34
ENDBRANCH  32  33
ENDBRANCH  30  32
ENDBRANCH   8  30
TORSDOF 10
ENDMDL
MODEL 4
REMARK VINA RESULT: -6.169339875      6.370      8.731
REMARK  10 active torsions:
REMARK  status: ('A' for Active; 'I' for Inactive)
REMARK    1  A    between atoms: C4_9  and  C5_10 
REMARK    2  A    between atoms: C5_10  and  C6_11 
REMARK    3  A    between atoms: C7_12  and  N3_13 
REMARK    4  A    between atoms: N3_13  and  C8_14 
REMARK    5  A    between atoms: C10_16  and  C11_17 
REMARK    6  A    between atoms: C16_29  and  N7_30 
REMARK    7  A    between atoms: N7_30  and  C17_32 
REMARK    8  A    between atoms: C17_32  and  C18_33 
REMARK    9  A    between atoms: C18_33  and  C19_34 
REMARK   10  A    between atoms: C19_34  and  O2_35 
ROOT
HETATM    1  C6  UNL     1      39.377  -1.342  30.680  1.00  0.00     0.033 A 
HETATM    2  C7  UNL     1      37.970  -1.355  30.870  1.00  0.00     0.138 A 
HETATM    3  C14 UNL     1      37.229  -2.324  30.166  1.00  0.00     0.067 A 
HETATM    4 BR1  UNL     1      35.335  -2.433  30.316  1.00  0.00    -0.046 Br
HETATM    5  C15 UNL     1      37.870  -3.205  29.337  1.00  0.00     0.112 A 
HETATM    6  N6  UNL     1      39.193  -3.143  29.193  1.00  0.00    -0.350 N 
ATOM      7  H6  UNL     1      39.644  -3.809  28.566  1.00  0.00     0.166 HD
HETATM    8  C16 UNL     1      39.977  -2.226  29.847  1.00  0.00     0.114 A 
ENDROOT
BRANCH   2   9
HETATM    9  N3  UNL     1      37.337  -0.462  31.619  1.00  0.00    -0.384 NA
BRANCH   9  10
HETATM   10  C8  UNL     1      36.779   0.317  32.298  1.00  0.00     0.195 A 
HETATM   11  C9  UNL     1      37.371   1.317  33.078  1.00  0.00     0.092 A 
HETATM   12  C10 UNL     1      36.397   2.003  33.745  1.00  0.00     0.034 A 
HETATM   13  N4  UNL     1      35.262   1.432  33.376  1.00  0.00    -0.302 N 
HETATM   14  N5  UNL     1      35.428   0.447  32.537  1.00  0.00    -0.274 N 
ATOM     15  H4  UNL     1      34.348   1.732  33.715  1.00  0.00     0.186 HD
ATOM     16  H5  UNL     1      34.688  -0.126  32.130  1.00  0.00     0.189 HD
BRANCH  12  17
HETATM   17  C11 UNL     1      36.695   3.136  34.671  1.00  0.00     0.037 A 
HETATM   18  C12 UNL     1      37.890   3.130  35.514  1.00  0.00     0.011 A 
HETATM   19  C13 UNL     1      36.570   2.760  36.157  1.00  0.00     0.011 A 
ENDBRANCH  12  17
ENDBRANCH   9  10
ENDBRANCH   2   9
BRANCH   1  20
HETATM   20  C5  UNL     1      40.073  -0.315  31.451  1.00  0.00     0.092 C 
BRANCH  20  21
HETATM   21  C4  UNL     1      40.994  -0.683  32.487  1.00  0.00     0.039 A 
HETATM   22  C2  UNL     1      40.724  -1.163  33.776  1.00  0.00     0.034 A 
HETATM   23  C1  UNL     1      39.404  -1.392  34.395  1.00  0.00     0.070 C 
HETATM   24  N1  UNL     1      41.904  -1.380  34.423  1.00  0.00    -0.302 N 
HETATM   25  N2  UNL     1      42.886  -1.045  33.573  1.00  0.00    -0.266 N 
ATOM     26  H1  UNL     1      42.018  -1.731  35.375  1.00  0.00     0.186 HD
HETATM   27  C3  UNL     1      42.359  -0.634  32.428  1.00  0.00     0.268 A 
ATOM     28  H2  UNL     1      43.884  -1.098  33.776  1.00  0.00     0.190 HD
HETATM   29  O1  UNL     1      43.075  -0.252  31.431  1.00  0.00    -0.266 OA
ENDBRANCH  20  21
ENDBRANCH   1  20
BRANCH   8  30
HETATM   30  N7  UNL     1      41.238  -2.197  29.595  1.00  0.00    -0.355 N 
ATOM     31  H7  UNL     1      41.772  -1.446  30.033  1.00  0.00     0.166 HD
BRANCH  30  32
HETATM   32  C17 UNL     1      41.955  -3.084  28.784  1.00  0.00     0.064 C 
BRANCH  32  33
HETATM   33  C18 UNL     1      43.453  -2.925  28.783  1.00  0.00     0.070 C 
BRANCH  33  34
HETATM   34  C19 UNL     1      43.830  -1.748  27.899  1.00  0.00     0.169 C 
BRANCH  34  35
HETATM   35  O2  UNL     1      43.482  -0.563  28.564  1.00  0.00    -0.401 OA
ATOM     36  H2  UNL     1      43.929  -0.544  29.402  1.00  0.00     0.209 HD
ENDBRANCH  34  35
ENDBRANCH  33  34
ENDBRANCH  32  33
ENDBRANCH  30  32
ENDBRANCH   8  30
TORSDOF 10
ENDMDL
MODEL 5
REMARK VINA RESULT: -6.072594761      9.048     12.787
REMARK  10 active torsions:
REMARK  status: ('A' for Active; 'I' for Inactive)
REMARK    1  A    between atoms: C4_9  and  C5_10 
REMARK    2  A    between atoms: C5_10  and  C6_11 
REMARK    3  A    between atoms: C7_12  and  N3_13 
REMARK    4  A    between atoms: N3_13  and  C8_14 
REMARK    5  A    between atoms: C10_16  and  C11_17 
REMARK    6  A    between atoms: C16_29  and  N7_30 
REMARK    7  A    between atoms: N7_30  and  C17_32 
REMARK    8  A    between atoms: C17_32  and  C18_33 
REMARK    9  A    between atoms: C18_33  and  C19_34 
REMARK   10  A    between atoms: C19_34  and  O2_35 
ROOT
HETATM    1  C6  UNL     1      38.131  -2.541  30.190  1.00  0.00     0.033 A 
HETATM    2  C7  UNL     1      39.504  -2.248  30.394  1.00  0.00     0.138 A 
HETATM    3  C14 UNL     1      39.823  -1.265  31.350  1.00  0.00     0.067 A 
HETATM    4 BR1  UNL     1      41.626  -0.764  31.702  1.00  0.00    -0.046 Br
HETATM    5  C15 UNL     1      38.824  -0.633  32.041  1.00  0.00     0.112 A 
HETATM    6  N6  UNL     1      37.551  -0.944  31.804  1.00  0.00    -0.350 N 
ATOM      7  H6  UNL     1      36.826  -0.456  32.330  1.00  0.00     0.166 HD
HETATM    8  C16 UNL     1      37.167  -1.891  30.887  1.00  0.00     0.114 A 
ENDROOT
BRANCH   2   9
HETATM    9  N3  UNL     1      40.472  -2.808  29.681  1.00  0.00    -0.384 NA
BRANCH   9  10
HETATM   10  C8  UNL     1      41.343  -3.294  29.060  1.00  0.00     0.195 A 
HETATM   11  C9  UNL     1      42.325  -2.614  28.329  1.00  0.00     0.092 A 
HETATM   12  C10 UNL     1      43.144  -3.523  27.723  1.00  0.00     0.034 A 
HETATM   13  N4  UNL     1      42.667  -4.704  28.077  1.00  0.00    -0.302 N 
HETATM   14  N5  UNL     1      41.621  -4.628  28.853  1.00  0.00    -0.274 N 
ATOM     15  H4  UNL     1      43.076  -5.588  27.774  1.00  0.00     0.186 HD
ATOM     16  H5  UNL     1      41.100  -5.416  29.239  1.00  0.00     0.189 HD
BRANCH  12  17
HETATM   17  C11 UNL     1      44.296  -3.124  26.860  1.00  0.00     0.037 A 
HETATM   18  C12 UNL     1      44.247  -1.911  26.045  1.00  0.00     0.011 A 
HETATM   19  C13 UNL     1      44.000  -3.237  25.355  1.00  0.00     0.011 A 
ENDBRANCH  12  17
ENDBRANCH   9  10
ENDBRANCH   2   9
BRANCH   1  20
HETATM   20  C5  UNL     1      37.883  -3.576  29.189  1.00  0.00     0.092 C 
BRANCH  20  21
HETATM   21  C4  UNL     1      37.440  -4.880  29.587  1.00  0.00     0.039 A 
HETATM   22  C2  UNL     1      36.200  -5.495  29.365  1.00  0.00     0.034 A 
HETATM   23  C1  UNL     1      35.025  -4.932  28.672  1.00  0.00     0.070 C 
HETATM   24  N1  UNL     1      36.216  -6.739  29.923  1.00  0.00    -0.302 N 
HETATM   25  N2  UNL     1      37.425  -6.903  30.482  1.00  0.00    -0.266 N 
ATOM     26  H1  UNL     1      35.453  -7.416  29.917  1.00  0.00     0.186 HD
HETATM   27  C3  UNL     1      38.154  -5.813  30.288  1.00  0.00     0.268 A 
ATOM     28  H2  UNL     1      37.735  -7.737  30.980  1.00  0.00     0.190 HD
HETATM   29  O1  UNL     1      39.360  -5.696  30.719  1.00  0.00    -0.266 OA
ENDBRANCH  20  21
ENDBRANCH   1  20
BRANCH   8  30
HETATM   30  N7  UNL     1      35.912  -2.078  30.677  1.00  0.00    -0.355 N 
ATOM     31  H7  UNL     1      35.514  -2.943  31.042  1.00  0.00     0.166 HD
BRANCH  30  32
HETATM   32  C17 UNL     1      35.034  -1.222  30.003  1.00  0.00     0.064 C 
BRANCH  32  33
HETATM   33  C18 UNL     1      35.028  -1.318  28.500  1.00  0.00     0.070 C 
BRANCH  33  34
HETATM   34  C19 UNL     1      33.805  -0.597  27.958  1.00  0.00     0.169 C 
BRANCH  34  35
HETATM   35  O2  UNL     1      34.018  -0.318  26.601  1.00  0.00    -0.401 OA
ATOM     36  H2  UNL     1      33.901   0.614  26.463  1.00  0.00     0.209 HD
ENDBRANCH  34  35
ENDBRANCH  33  34
ENDBRANCH  32  33
ENDBRANCH  30  32
ENDBRANCH   8  30
TORSDOF 10
ENDMDL
