MODEL 1
REMARK VINA RESULT: -5.848419654      0.000      0.000
REMARK  6 active torsions:
REMARK  status: ('A' for Active; 'I' for Inactive)
REMARK    1  A    between atoms: C2_2  and  N1_3 
REMARK       I    between atoms: N1_3  and  C3_5 
REMARK       I    between atoms: C3_5  and  N2_7 
REMARK    2  A    between atoms: N2_7  and  C4_9 
REMARK    3  A    between atoms: C4_9  and  N3_10 
REMARK    4  A    between atoms: C4_9  and  S1_20 
REMARK    5  A    between atoms: N3_10  and  N4_12 
REMARK       I    between atoms: N4_12  and  C5_14 
REMARK    6  A    between atoms: C5_14  and  C6_16 
ROOT
HETATM    1  C4  UNL     1      43.631  -1.985  27.931  1.00  0.00     0.162 C 
ENDROOT
BRANCH   1   2
HETATM    2  N2  UNL     1      42.788  -3.091  28.019  1.00  0.00    -0.288 N 
HETATM    3  C3  UNL     1      43.087  -4.182  28.861  1.00  0.00     0.322 C 
HETATM    4  N1  UNL     1      42.219  -5.305  28.985  1.00  0.00    -0.343 N 
HETATM    5  O1  UNL     1      44.135  -4.218  29.546  1.00  0.00    -0.247 OA
ATOM      6  H1  UNL     1      41.361  -5.306  28.434  1.00  0.00     0.164 HD
ATOM      7  H2  UNL     1      41.935  -3.112  27.460  1.00  0.00     0.172 HD
BRANCH   4   8
HETATM    8  C2  UNL     1      42.470  -6.440  29.833  1.00  0.00     0.120 C 
HETATM    9  C1  UNL     1      41.282  -6.960  30.569  1.00  0.00     0.026 C 
ENDBRANCH   4   8
ENDBRANCH   1   2
BRANCH   1  10
HETATM   10  N3  UNL     1      43.718  -1.092  29.011  1.00  0.00    -0.277 N 
ATOM     11  H3  UNL     1      43.752  -0.100  28.775  1.00  0.00     0.189 HD
BRANCH  10  12
HETATM   12  N4  UNL     1      43.761  -1.404  30.365  1.00  0.00    -0.268 N 
HETATM   13  C5  UNL     1      42.843  -0.842  31.296  1.00  0.00     0.240 C 
HETATM   14  O2  UNL     1      41.993  -0.054  30.862  1.00  0.00    -0.271 OA
ATOM     15  H4  UNL     1      44.471  -2.054  30.700  1.00  0.00     0.190 HD
BRANCH  13  16
HETATM   16  C6  UNL     1      42.918  -1.192  32.714  1.00  0.00     0.083 A 
HETATM   17  C7  UNL     1      42.473  -0.125  33.669  1.00  0.00     0.019 A 
HETATM   18  C8  UNL     1      43.868  -0.633  33.682  1.00  0.00    -0.005 A 
HETATM   19  C9  UNL     1      45.045   0.186  33.284  1.00  0.00     0.011 C 
ENDBRANCH  13  16
ENDBRANCH  10  12
ENDBRANCH   1  10
BRANCH   1  20
HETATM   20  S1  UNL     1      44.528  -1.730  26.567  1.00  0.00    -0.097 SA
HETATM   21  C10 UNL     1      44.209  -2.922  25.154  1.00  0.00     0.099 C 
ENDBRANCH   1  20
TORSDOF 6
ENDMDL
MODEL 2
REMARK VINA RESULT: -5.801613797      0.889      1.415
REMARK  6 active torsions:
REMARK  status: ('A' for Active; 'I' for Inactive)
REMARK    1  A    between atoms: C2_2  and  N1_3 
REMARK       I    between atoms: N1_3  and  C3_5 
REMARK       I    between atoms: C3_5  and  N2_7 
REMARK    2  A    between atoms: N2_7  and  C4_9 
REMARK    3  A    between atoms: C4_9  and  N3_10 
REMARK    4  A    between atoms: C4_9  and  S1_20 
REMARK    5  A    between atoms: N3_10  and  N4_12 
REMARK       I    between atoms: N4_12  and  C5_14 
REMARK    6  A    between atoms: C5_14  and  C6_16 
ROOT
HETATM    1  C4  UNL     1      43.521  -1.968  27.682  1.00  0.00     0.162 C 
ENDROOT
BRANCH   1   2
HETATM    2  N2  UNL     1      42.742  -3.105  27.882  1.00  0.00    -0.288 N 
HETATM    3  C3  UNL     1      43.144  -4.129  28.765  1.00  0.00     0.322 C 
HETATM    4  N1  UNL     1      42.343  -5.283  29.004  1.00  0.00    -0.343 N 
HETATM    5  O1  UNL     1      44.230  -4.075  29.386  1.00  0.00    -0.247 OA
ATOM      6  H1  UNL     1      41.456  -5.357  28.506  1.00  0.00     0.164 HD
ATOM      7  H2  UNL     1      41.860  -3.200  27.378  1.00  0.00     0.172 HD
BRANCH   4   8
HETATM    8  C2  UNL     1      42.699  -6.352  29.898  1.00  0.00     0.120 C 
HETATM    9  C1  UNL     1      41.554  -7.028  30.571  1.00  0.00     0.026 C 
ENDBRANCH   4   8
ENDBRANCH   1   2
BRANCH   1  10
HETATM   10  N3  UNL     1      43.392  -0.876  28.556  1.00  0.00    -0.277 N 
ATOM     11  H3  UNL     1      43.240   0.035  28.122  1.00  0.00     0.189 HD
BRANCH  10  12
HETATM   12  N4  UNL     1      43.448  -0.894  29.944  1.00  0.00    -0.268 N 
HETATM   13  C5  UNL     1      42.284  -1.083  30.741  1.00  0.00     0.240 C 
HETATM   14  O2  UNL     1      41.203  -1.232  30.156  1.00  0.00    -0.271 OA
ATOM     15  H4  UNL     1      44.348  -0.768  30.406  1.00  0.00     0.190 HD
BRANCH  13  16
HETATM   16  C6  UNL     1      42.378  -1.097  32.201  1.00  0.00     0.083 A 
HETATM   17  C7  UNL     1      43.760  -1.259  32.760  1.00  0.00     0.019 A 
HETATM   18  C8  UNL     1      42.703  -2.267  33.023  1.00  0.00    -0.005 A 
HETATM   19  C9  UNL     1      42.735  -3.654  32.485  1.00  0.00     0.011 C 
ENDBRANCH  13  16
ENDBRANCH  10  12
ENDBRANCH   1  10
BRANCH   1  20
HETATM   20  S1  UNL     1      44.595  -1.906  26.427  1.00  0.00    -0.097 SA
HETATM   21  C10 UNL     1      44.206  -3.026  24.974  1.00  0.00     0.099 C 
ENDBRANCH   1  20
TORSDOF 6
ENDMDL
MODEL 3
REMARK VINA RESULT: -5.724373265      3.127      4.242
REMARK  6 active torsions:
REMARK  status: ('A' for Active; 'I' for Inactive)
REMARK    1  A    between atoms: C2_2  and  N1_3 
REMARK       I    between atoms: N1_3  and  C3_5 
REMARK       I    between atoms: C3_5  and  N2_7 
REMARK    2  A    between atoms: N2_7  and  C4_9 
REMARK    3  A    between atoms: C4_9  and  N3_10 
REMARK    4  A    between atoms: C4_9  and  S1_20 
REMARK    5  A    between atoms: N3_10  and  N4_12 
REMARK       I    between atoms: N4_12  and  C5_14 
REMARK    6  A    between atoms: C5_14  and  C6_16 
ROOT
HETATM    1  C4  UNL     1      42.674  -0.973  30.603  1.00  0.00     0.162 C 
ENDROOT
BRANCH   1   2
HETATM    2  N2  UNL     1      42.877  -0.698  29.252  1.00  0.00    -0.288 N 
HETATM    3  C3  UNL     1      43.686  -1.522  28.444  1.00  0.00     0.322 C 
HETATM    4  N1  UNL     1      43.877  -1.271  27.054  1.00  0.00    -0.343 N 
HETATM    5  O1  UNL     1      44.281  -2.521  28.909  1.00  0.00    -0.247 OA
ATOM      6  H1  UNL     1      43.409  -0.460  26.650  1.00  0.00     0.164 HD
ATOM      7  H2  UNL     1      42.429   0.121  28.838  1.00  0.00     0.172 HD
BRANCH   4   8
HETATM    8  C2  UNL     1      44.684  -2.082  26.182  1.00  0.00     0.120 C 
HETATM    9  C1  UNL     1      44.005  -3.284  25.622  1.00  0.00     0.026 C 
ENDBRANCH   4   8
ENDBRANCH   1   2
BRANCH   1  10
HETATM   10  N3  UNL     1      43.772  -0.995  31.478  1.00  0.00    -0.277 N 
ATOM     11  H3  UNL     1      44.685  -1.162  31.054  1.00  0.00     0.189 HD
BRANCH  10  12
HETATM   12  N4  UNL     1      43.757  -0.814  32.856  1.00  0.00    -0.268 N 
HETATM   13  C5  UNL     1      44.746  -0.038  33.523  1.00  0.00     0.240 C 
HETATM   14  O2  UNL     1      45.635   0.479  32.833  1.00  0.00    -0.271 OA
ATOM     15  H4  UNL     1      43.017  -1.250  33.405  1.00  0.00     0.190 HD
BRANCH  13  16
HETATM   16  C6  UNL     1      44.701   0.132  34.975  1.00  0.00     0.083 A 
HETATM   17  C7  UNL     1      45.148   1.469  35.486  1.00  0.00     0.019 A 
HETATM   18  C8  UNL     1      45.868   0.225  35.859  1.00  0.00    -0.005 A 
HETATM   19  C9  UNL     1      47.252  -0.091  35.414  1.00  0.00     0.011 C 
ENDBRANCH  13  16
ENDBRANCH  10  12
ENDBRANCH   1  10
BRANCH   1  20
HETATM   20  S1  UNL     1      41.151  -1.268  31.171  1.00  0.00    -0.097 SA
HETATM   21  C10 UNL     1      39.870   0.043  30.772  1.00  0.00     0.099 C 
ENDBRANCH   1  20
TORSDOF 6
ENDMDL
MODEL 4
REMARK VINA RESULT: -5.720726193      3.446      6.474
REMARK  6 active torsions:
REMARK  status: ('A' for Active; 'I' for Inactive)
REMARK    1  A    between atoms: C2_2  and  N1_3 
REMARK       I    between atoms: N1_3  and  C3_5 
REMARK       I    between atoms: C3_5  and  N2_7 
REMARK    2  A    between atoms: N2_7  and  C4_9 
REMARK    3  A    between atoms: C4_9  and  N3_10 
REMARK    4  A    between atoms: C4_9  and  S1_20 
REMARK    5  A    between atoms: N3_10  and  N4_12 
REMARK       I    between atoms: N4_12  and  C5_14 
REMARK    6  A    between atoms: C5_14  and  C6_16 
ROOT
HETATM    1  C4  UNL     1      41.040  -1.052  30.105  1.00  0.00     0.162 C 
ENDROOT
BRANCH   1   2
HETATM    2  N2  UNL     1      40.054  -0.106  30.377  1.00  0.00    -0.288 N 
HETATM    3  C3  UNL     1      39.634   0.163  31.696  1.00  0.00     0.322 C 
HETATM    4  N1  UNL     1      38.649   1.150  31.992  1.00  0.00    -0.343 N 
HETATM    5  O1  UNL     1      40.106  -0.456  32.678  1.00  0.00    -0.247 OA
ATOM      6  H1  UNL     1      38.242   1.664  31.211  1.00  0.00     0.164 HD
ATOM      7  H2  UNL     1      39.627   0.404  29.604  1.00  0.00     0.172 HD
BRANCH   4   8
HETATM    8  C2  UNL     1      38.189   1.470  33.317  1.00  0.00     0.120 C 
HETATM    9  C1  UNL     1      36.776   1.937  33.404  1.00  0.00     0.026 C 
ENDBRANCH   4   8
ENDBRANCH   1   2
BRANCH   1  10
HETATM   10  N3  UNL     1      42.377  -0.642  29.971  1.00  0.00    -0.277 N 
ATOM     11  H3  UNL     1      42.850  -0.357  30.828  1.00  0.00     0.189 HD
BRANCH  10  12
HETATM   12  N4  UNL     1      43.128  -0.580  28.804  1.00  0.00    -0.268 N 
HETATM   13  C5  UNL     1      44.022  -1.623  28.429  1.00  0.00     0.240 C 
HETATM   14  O2  UNL     1      44.114  -2.601  29.182  1.00  0.00    -0.271 OA
ATOM     15  H4  UNL     1      43.037   0.235  28.198  1.00  0.00     0.190 HD
BRANCH  13  16
HETATM   16  C6  UNL     1      44.798  -1.525  27.192  1.00  0.00     0.083 A 
HETATM   17  C7  UNL     1      44.045  -1.039  25.991  1.00  0.00     0.019 A 
HETATM   18  C8  UNL     1      44.648  -2.395  26.021  1.00  0.00    -0.005 A 
HETATM   19  C9  UNL     1      43.850  -3.651  26.038  1.00  0.00     0.011 C 
ENDBRANCH  13  16
ENDBRANCH  10  12
ENDBRANCH   1  10
BRANCH   1  20
HETATM   20  S1  UNL     1      40.640  -2.648  29.948  1.00  0.00    -0.097 SA
HETATM   21  C10 UNL     1      38.813  -3.005  29.714  1.00  0.00     0.099 C 
ENDBRANCH   1  20
TORSDOF 6
ENDMDL
MODEL 5
REMARK VINA RESULT: -5.716709473      3.173      4.372
REMARK  6 active torsions:
REMARK  status: ('A' for Active; 'I' for Inactive)
REMARK    1  A    between atoms: C2_2  and  N1_3 
REMARK       I    between atoms: N1_3  and  C3_5 
REMARK       I    between atoms: C3_5  and  N2_7 
REMARK    2  A    between atoms: N2_7  and  C4_9 
REMARK    3  A    between atoms: C4_9  and  N3_10 
REMARK    4  A    between atoms: C4_9  and  S1_20 
REMARK    5  A    between atoms: N3_10  and  N4_12 
REMARK       I    between atoms: N4_12  and  C5_14 
REMARK    6  A    between atoms: C5_14  and  C6_16 
ROOT
HETATM    1  C4  UNL     1      42.415  -0.862  30.617  1.00  0.00     0.162 C 
ENDROOT
BRANCH   1   2
HETATM    2  N2  UNL     1      42.726  -0.575  29.290  1.00  0.00    -0.288 N 
HETATM    3  C3  UNL     1      43.611  -1.383  28.548  1.00  0.00     0.322 C 
HETATM    4  N1  UNL     1      43.915  -1.120  27.180  1.00  0.00    -0.343 N 
HETATM    5  O1  UNL     1      44.179  -2.378  29.056  1.00  0.00    -0.247 OA
ATOM      6  H1  UNL     1      43.472  -0.312  26.743  1.00  0.00     0.164 HD
ATOM      7  H2  UNL     1      42.304   0.240  28.845  1.00  0.00     0.172 HD
BRANCH   4   8
HETATM    8  C2  UNL     1      44.803  -1.914  26.374  1.00  0.00     0.120 C 
HETATM    9  C1  UNL     1      44.143  -2.959  25.541  1.00  0.00     0.026 C 
ENDBRANCH   4   8
ENDBRANCH   1   2
BRANCH   1  10
HETATM   10  N3  UNL     1      43.420  -0.792  31.596  1.00  0.00    -0.277 N 
ATOM     11  H3  UNL     1      44.269  -1.326  31.411  1.00  0.00     0.189 HD
BRANCH  10  12
HETATM   12  N4  UNL     1      43.389  -0.079  32.788  1.00  0.00    -0.268 N 
HETATM   13  C5  UNL     1      44.561   0.509  33.343  1.00  0.00     0.240 C 
HETATM   14  O2  UNL     1      45.625   0.364  32.727  1.00  0.00    -0.271 OA
ATOM     15  H4  UNL     1      42.502   0.027  33.280  1.00  0.00     0.190 HD
BRANCH  13  16
HETATM   16  C6  UNL     1      44.493   1.253  34.600  1.00  0.00     0.083 A 
HETATM   17  C7  UNL     1      45.594   0.973  35.579  1.00  0.00     0.019 A 
HETATM   18  C8  UNL     1      44.177   0.682  35.914  1.00  0.00    -0.005 A 
HETATM   19  C9  UNL     1      43.640  -0.695  36.092  1.00  0.00     0.011 C 
ENDBRANCH  13  16
ENDBRANCH  10  12
ENDBRANCH   1  10
BRANCH   1  20
HETATM   20  S1  UNL     1      40.872  -1.278  31.037  1.00  0.00    -0.097 SA
HETATM   21  C10 UNL     1      39.653   0.142  31.149  1.00  0.00     0.099 C 
ENDBRANCH   1  20
TORSDOF 6
ENDMDL
