MODEL 1
REMARK VINA RESULT: -5.446788867      0.000      0.000
REMARK  7 active torsions:
REMARK  status: ('A' for Active; 'I' for Inactive)
REMARK    1  A    between atoms: N1_2  and  C2_4 
REMARK    2  A    between atoms: C2_4  and  N2_6 
REMARK    3  A    between atoms: N2_6  and  N3_8 
REMARK    4  A    between atoms: N3_8  and  C3_10 
REMARK    5  A    between atoms: C3_10  and  N4_12 
REMARK    6  A    between atoms: N4_12  and  C4_14 
REMARK    7  A    between atoms: C4_14  and  C5_15 
ROOT
HETATM    1  C3  UNL     1      42.923  -1.163  29.783  1.00  0.00     0.186 C 
HETATM    2  S2  UNL     1      41.410  -1.837  29.908  1.00  0.00    -0.040 SA
ENDROOT
BRANCH   1   3
HETATM    3  N3  UNL     1      43.359  -0.750  28.517  1.00  0.00    -0.274 N 
ATOM      4  H3  UNL     1      42.873   0.049  28.110  1.00  0.00     0.189 HD
BRANCH   3   5
HETATM    5  N2  UNL     1      44.379  -1.306  27.751  1.00  0.00    -0.274 N 
ATOM      6  H2  UNL     1      45.337  -0.970  27.855  1.00  0.00     0.189 HD
BRANCH   5   7
HETATM    7  C2  UNL     1      44.086  -2.338  26.829  1.00  0.00     0.186 C 
HETATM    8  S1  UNL     1      43.625  -3.791  27.360  1.00  0.00    -0.040 SA
BRANCH   7   9
HETATM    9  N1  UNL     1      44.200  -2.085  25.434  1.00  0.00    -0.370 N 
HETATM   10  C1  UNL     1      44.113  -3.187  24.492  1.00  0.00     0.148 C 
ATOM     11  H1  UNL     1      44.341  -1.133  25.097  1.00  0.00     0.161 HD
ENDBRANCH   7   9
ENDBRANCH   5   7
ENDBRANCH   3   5
ENDBRANCH   1   3
BRANCH   1  12
HETATM   12  N4  UNL     1      43.680  -1.046  30.947  1.00  0.00    -0.364 N 
ATOM     13  H4  UNL     1      44.688  -1.188  30.873  1.00  0.00     0.162 HD
BRANCH  12  14
HETATM   14  C4  UNL     1      43.150  -0.742  32.225  1.00  0.00     0.154 C 
BRANCH  14  15
HETATM   15  C5  UNL     1      44.306  -0.668  33.256  1.00  0.00     0.139 C 
HETATM   16  C6  UNL     1      43.732   0.035  34.460  1.00  0.00     0.035 C 
HETATM   17  C7  UNL     1      44.141   1.481  34.140  1.00  0.00     0.029 C 
HETATM   18  C8  UNL     1      45.531   1.195  33.548  1.00  0.00     0.168 C 
HETATM   19  O1  UNL     1      45.291   0.132  32.725  1.00  0.00    -0.384 OA
ENDBRANCH  14  15
ENDBRANCH  12  14
ENDBRANCH   1  12
TORSDOF 7
ENDMDL
MODEL 2
REMARK VINA RESULT: -5.222315529      1.008      1.134
REMARK  7 active torsions:
REMARK  status: ('A' for Active; 'I' for Inactive)
REMARK    1  A    between atoms: N1_2  and  C2_4 
REMARK    2  A    between atoms: C2_4  and  N2_6 
REMARK    3  A    between atoms: N2_6  and  N3_8 
REMARK    4  A    between atoms: N3_8  and  C3_10 
REMARK    5  A    between atoms: C3_10  and  N4_12 
REMARK    6  A    between atoms: N4_12  and  C4_14 
REMARK    7  A    between atoms: C4_14  and  C5_15 
ROOT
HETATM    1  C3  UNL     1      42.621  -0.853  30.485  1.00  0.00     0.186 C 
HETATM    2  S2  UNL     1      41.144  -0.680  31.224  1.00  0.00    -0.040 SA
ENDROOT
BRANCH   1   3
HETATM    3  N3  UNL     1      42.673  -0.763  29.087  1.00  0.00    -0.274 N 
ATOM      4  H3  UNL     1      41.779  -0.663  28.606  1.00  0.00     0.189 HD
BRANCH   3   5
HETATM    5  N2  UNL     1      43.807  -0.795  28.280  1.00  0.00    -0.274 N 
ATOM      6  H2  UNL     1      44.447   0.001  28.267  1.00  0.00     0.189 HD
BRANCH   5   7
HETATM    7  C2  UNL     1      44.072  -1.930  27.479  1.00  0.00     0.186 C 
HETATM    8  S1  UNL     1      43.785  -3.411  28.055  1.00  0.00    -0.040 SA
BRANCH   7   9
HETATM    9  N1  UNL     1      44.587  -1.757  26.165  1.00  0.00    -0.370 N 
HETATM   10  C1  UNL     1      44.269  -2.725  25.131  1.00  0.00     0.148 C 
ATOM     11  H1  UNL     1      45.180  -0.955  25.950  1.00  0.00     0.161 HD
ENDBRANCH   7   9
ENDBRANCH   5   7
ENDBRANCH   3   5
ENDBRANCH   1   3
BRANCH   1  12
HETATM   12  N4  UNL     1      43.731  -1.079  31.295  1.00  0.00    -0.364 N 
ATOM     13  H4  UNL     1      44.619  -1.285  30.836  1.00  0.00     0.162 HD
BRANCH  12  14
HETATM   14  C4  UNL     1      43.715  -1.044  32.711  1.00  0.00     0.154 C 
BRANCH  14  15
HETATM   15  C5  UNL     1      44.733   0.014  33.210  1.00  0.00     0.139 C 
HETATM   16  C6  UNL     1      44.964  -0.300  34.666  1.00  0.00     0.035 C 
HETATM   17  C7  UNL     1      43.925   0.634  35.305  1.00  0.00     0.029 C 
HETATM   18  C8  UNL     1      44.094   1.836  34.363  1.00  0.00     0.168 C 
HETATM   19  O1  UNL     1      44.128   1.247  33.131  1.00  0.00    -0.384 OA
ENDBRANCH  14  15
ENDBRANCH  12  14
ENDBRANCH   1  12
TORSDOF 7
ENDMDL
MODEL 3
REMARK VINA RESULT: -5.221013303      1.731      1.849
REMARK  7 active torsions:
REMARK  status: ('A' for Active; 'I' for Inactive)
REMARK    1  A    between atoms: N1_2  and  C2_4 
REMARK    2  A    between atoms: C2_4  and  N2_6 
REMARK    3  A    between atoms: N2_6  and  N3_8 
REMARK    4  A    between atoms: N3_8  and  C3_10 
REMARK    5  A    between atoms: C3_10  and  N4_12 
REMARK    6  A    between atoms: N4_12  and  C4_14 
REMARK    7  A    between atoms: C4_14  and  C5_15 
ROOT
HETATM    1  C3  UNL     1      42.375  -1.070  30.762  1.00  0.00     0.186 C 
HETATM    2  S2  UNL     1      41.472  -2.425  31.086  1.00  0.00    -0.040 SA
ENDROOT
BRANCH   1   3
HETATM    3  N3  UNL     1      42.532  -0.686  29.423  1.00  0.00    -0.274 N 
ATOM      4  H3  UNL     1      41.693  -0.359  28.945  1.00  0.00     0.189 HD
BRANCH   3   5
HETATM    5  N2  UNL     1      43.704  -0.699  28.673  1.00  0.00    -0.274 N 
ATOM      6  H2  UNL     1      44.362   0.079  28.739  1.00  0.00     0.189 HD
BRANCH   5   7
HETATM    7  C2  UNL     1      43.983  -1.792  27.818  1.00  0.00     0.186 C 
HETATM    8  S1  UNL     1      44.307  -1.536  26.258  1.00  0.00    -0.040 SA
BRANCH   7   9
HETATM    9  N1  UNL     1      43.977  -3.113  28.345  1.00  0.00    -0.370 N 
HETATM   10  C1  UNL     1      42.942  -4.046  27.939  1.00  0.00     0.148 C 
ATOM     11  H1  UNL     1      44.698  -3.403  29.006  1.00  0.00     0.161 HD
ENDBRANCH   7   9
ENDBRANCH   5   7
ENDBRANCH   3   5
ENDBRANCH   1   3
BRANCH   1  12
HETATM   12  N4  UNL     1      42.930  -0.386  31.842  1.00  0.00    -0.364 N 
ATOM     13  H4  UNL     1      42.679   0.596  31.960  1.00  0.00     0.162 HD
BRANCH  12  14
HETATM   14  C4  UNL     1      43.818  -0.957  32.786  1.00  0.00     0.154 C 
BRANCH  14  15
HETATM   15  C5  UNL     1      44.834   0.118  33.252  1.00  0.00     0.139 C 
HETATM   16  C6  UNL     1      45.108  -0.185  34.703  1.00  0.00     0.035 C 
HETATM   17  C7  UNL     1      44.074   0.739  35.365  1.00  0.00     0.029 C 
HETATM   18  C8  UNL     1      44.201   1.938  34.412  1.00  0.00     0.168 C 
HETATM   19  O1  UNL     1      44.210   1.342  33.183  1.00  0.00    -0.384 OA
ENDBRANCH  14  15
ENDBRANCH  12  14
ENDBRANCH   1  12
TORSDOF 7
ENDMDL
MODEL 4
REMARK VINA RESULT: -5.176918534      1.803      2.198
REMARK  7 active torsions:
REMARK  status: ('A' for Active; 'I' for Inactive)
REMARK    1  A    between atoms: N1_2  and  C2_4 
REMARK    2  A    between atoms: C2_4  and  N2_6 
REMARK    3  A    between atoms: N2_6  and  N3_8 
REMARK    4  A    between atoms: N3_8  and  C3_10 
REMARK    5  A    between atoms: C3_10  and  N4_12 
REMARK    6  A    between atoms: N4_12  and  C4_14 
REMARK    7  A    between atoms: C4_14  and  C5_15 
ROOT
HETATM    1  C3  UNL     1      41.454  -2.661  29.240  1.00  0.00     0.186 C 
HETATM    2  S2  UNL     1      39.944  -3.072  29.795  1.00  0.00    -0.040 SA
ENDROOT
BRANCH   1   3
HETATM    3  N3  UNL     1      42.170  -3.618  28.507  1.00  0.00    -0.274 N 
ATOM      4  H3  UNL     1      41.623  -4.372  28.092  1.00  0.00     0.189 HD
BRANCH   3   5
HETATM    5  N2  UNL     1      43.543  -3.656  28.281  1.00  0.00    -0.274 N 
ATOM      6  H2  UNL     1      44.171  -4.002  29.008  1.00  0.00     0.189 HD
BRANCH   5   7
HETATM    7  C2  UNL     1      44.067  -3.214  27.043  1.00  0.00     0.186 C 
HETATM    8  S1  UNL     1      44.493  -1.669  26.851  1.00  0.00    -0.040 SA
BRANCH   7   9
HETATM    9  N1  UNL     1      44.218  -4.140  25.975  1.00  0.00    -0.370 N 
HETATM   10  C1  UNL     1      43.941  -3.722  24.613  1.00  0.00     0.148 C 
ATOM     11  H1  UNL     1      44.520  -5.096  26.165  1.00  0.00     0.161 HD
ENDBRANCH   7   9
ENDBRANCH   5   7
ENDBRANCH   3   5
ENDBRANCH   1   3
BRANCH   1  12
HETATM   12  N4  UNL     1      41.930  -1.386  29.533  1.00  0.00    -0.364 N 
ATOM     13  H4  UNL     1      42.157  -0.773  28.749  1.00  0.00     0.162 HD
BRANCH  12  14
HETATM   14  C4  UNL     1      42.122  -0.879  30.842  1.00  0.00     0.154 C 
BRANCH  14  15
HETATM   15  C5  UNL     1      43.440  -1.449  31.426  1.00  0.00     0.139 C 
HETATM   16  C6  UNL     1      43.031  -2.267  32.625  1.00  0.00     0.035 C 
HETATM   17  C7  UNL     1      43.188  -1.212  33.730  1.00  0.00     0.029 C 
HETATM   18  C8  UNL     1      44.457  -0.523  33.205  1.00  0.00     0.168 C 
HETATM   19  O1  UNL     1      44.194  -0.388  31.872  1.00  0.00    -0.384 OA
ENDBRANCH  14  15
ENDBRANCH  12  14
ENDBRANCH   1  12
TORSDOF 7
ENDMDL
MODEL 5
REMARK VINA RESULT: -5.073986191      2.942      6.617
REMARK  7 active torsions:
REMARK  status: ('A' for Active; 'I' for Inactive)
REMARK    1  A    between atoms: N1_2  and  C2_4 
REMARK    2  A    between atoms: C2_4  and  N2_6 
REMARK    3  A    between atoms: N2_6  and  N3_8 
REMARK    4  A    between atoms: N3_8  and  C3_10 
REMARK    5  A    between atoms: C3_10  and  N4_12 
REMARK    6  A    between atoms: N4_12  and  C4_14 
REMARK    7  A    between atoms: C4_14  and  C5_15 
ROOT
HETATM    1  C3  UNL     1      42.443  -0.737  31.108  1.00  0.00     0.186 C 
HETATM    2  S2  UNL     1      40.881  -0.502  31.623  1.00  0.00    -0.040 SA
ENDROOT
BRANCH   1   3
HETATM    3  N3  UNL     1      43.443  -0.883  32.080  1.00  0.00    -0.274 N 
ATOM      4  H3  UNL     1      43.386  -1.715  32.666  1.00  0.00     0.189 HD
BRANCH   3   5
HETATM    5  N2  UNL     1      44.505  -0.021  32.335  1.00  0.00    -0.274 N 
ATOM      6  H2  UNL     1      45.199   0.163  31.610  1.00  0.00     0.189 HD
BRANCH   5   7
HETATM    7  C2  UNL     1      44.621   0.601  33.601  1.00  0.00     0.186 C 
HETATM    8  S1  UNL     1      43.302   0.880  34.489  1.00  0.00    -0.040 SA
BRANCH   7   9
HETATM    9  N1  UNL     1      45.906   0.973  34.084  1.00  0.00    -0.370 N 
HETATM   10  C1  UNL     1      46.516   0.220  35.165  1.00  0.00     0.148 C 
ATOM     11  H1  UNL     1      46.397   1.767  33.673  1.00  0.00     0.161 HD
ENDBRANCH   7   9
ENDBRANCH   5   7
ENDBRANCH   3   5
ENDBRANCH   1   3
BRANCH   1  12
HETATM   12  N4  UNL     1      42.676  -0.775  29.736  1.00  0.00    -0.364 N 
ATOM     13  H4  UNL     1      42.937   0.097  29.275  1.00  0.00     0.162 HD
BRANCH  12  14
HETATM   14  C4  UNL     1      42.576  -1.939  28.934  1.00  0.00     0.154 C 
BRANCH  14  15
HETATM   15  C5  UNL     1      43.978  -2.307  28.386  1.00  0.00     0.139 C 
HETATM   16  C6  UNL     1      44.536  -1.031  27.807  1.00  0.00     0.035 C 
HETATM   17  C7  UNL     1      44.099  -1.193  26.343  1.00  0.00     0.029 C 
HETATM   18  C8  UNL     1      44.341  -2.705  26.202  1.00  0.00     0.168 C 
HETATM   19  O1  UNL     1      43.804  -3.201  27.355  1.00  0.00    -0.384 OA
ENDBRANCH  14  15
ENDBRANCH  12  14
ENDBRANCH   1  12
TORSDOF 7
ENDMDL
