MODEL 1
REMARK VINA RESULT: -5.234747676      0.000      0.000
REMARK  7 active torsions:
REMARK  status: ('A' for Active; 'I' for Inactive)
REMARK       I    between atoms: C1_2  and  N1_3 
REMARK    1  A    between atoms: C1_2  and  C7_17 
REMARK    2  A    between atoms: N1_3  and  C2_5 
REMARK    3  A    between atoms: C2_5  and  N2_7 
REMARK    4  A    between atoms: N2_7  and  N3_9 
REMARK    5  A    between atoms: N3_9  and  C3_10 
REMARK    6  A    between atoms: C3_10  and  N4_12 
REMARK    7  A    between atoms: N4_12  and  C4_14 
ROOT
HETATM    1  N2  UNL     1      42.355  -0.450  30.181  1.00  0.00    -0.206 N 
ATOM      2  H2  UNL     1      42.187   0.344  29.564  1.00  0.00     0.204 HD
ENDROOT
BRANCH   1   3
HETATM    3  C2  UNL     1      42.311  -1.772  29.612  1.00  0.00     0.203 C 
HETATM    4  S1  UNL     1      41.637  -2.954  30.473  1.00  0.00    -0.038 SA
BRANCH   3   5
HETATM    5  N1  UNL     1      42.859  -1.989  28.314  1.00  0.00    -0.302 N 
HETATM    6  C1  UNL     1      44.148  -1.468  27.986  1.00  0.00     0.228 C 
HETATM    7  O1  UNL     1      44.794  -0.810  28.874  1.00  0.00    -0.273 OA
ATOM      8  H1  UNL     1      42.330  -2.516  27.618  1.00  0.00     0.171 HD
BRANCH   6   9
HETATM    9  C7  UNL     1      44.810  -1.628  26.683  1.00  0.00     0.078 A 
HETATM   10  C8  UNL     1      44.159  -1.286  25.394  1.00  0.00     0.015 A 
HETATM   11  C9  UNL     1      44.253  -2.770  25.833  1.00  0.00     0.015 A 
ENDBRANCH   6   9
ENDBRANCH   3   5
ENDBRANCH   1   3
BRANCH   1  12
HETATM   12  N3  UNL     1      42.603  -0.204  31.474  1.00  0.00    -0.293 NA
BRANCH  12  13
HETATM   13  C3  UNL     1      42.845  -0.021  32.759  1.00  0.00     0.269 C 
HETATM   14  S2  UNL     1      41.737  -0.124  33.968  1.00  0.00    -0.023 SA
BRANCH  13  15
HETATM   15  N4  UNL     1      44.190   0.313  33.163  1.00  0.00    -0.349 N 
ATOM     16  H4  UNL     1      44.784   0.727  32.444  1.00  0.00     0.163 HD
BRANCH  15  17
HETATM   17  C4  UNL     1      44.774   0.138  34.412  1.00  0.00     0.085 A 
HETATM   18  C5  UNL     1      45.180   1.257  35.299  1.00  0.00     0.027 A 
HETATM   19  C6  UNL     1      46.217   0.344  34.726  1.00  0.00     0.027 A 
ENDBRANCH  15  17
ENDBRANCH  13  15
ENDBRANCH  12  13
ENDBRANCH   1  12
TORSDOF 7
ENDMDL
MODEL 2
REMARK VINA RESULT: -5.234366057      1.104      1.218
REMARK  7 active torsions:
REMARK  status: ('A' for Active; 'I' for Inactive)
REMARK       I    between atoms: C1_2  and  N1_3 
REMARK    1  A    between atoms: C1_2  and  C7_17 
REMARK    2  A    between atoms: N1_3  and  C2_5 
REMARK    3  A    between atoms: C2_5  and  N2_7 
REMARK    4  A    between atoms: N2_7  and  N3_9 
REMARK    5  A    between atoms: N3_9  and  C3_10 
REMARK    6  A    between atoms: C3_10  and  N4_12 
REMARK    7  A    between atoms: N4_12  and  C4_14 
ROOT
HETATM    1  N2  UNL     1      43.564  -1.215  31.136  1.00  0.00    -0.206 N 
ATOM      2  H2  UNL     1      44.288  -1.932  31.139  1.00  0.00     0.204 HD
ENDROOT
BRANCH   1   3
HETATM    3  C2  UNL     1      42.712  -1.116  29.980  1.00  0.00     0.203 C 
HETATM    4  S1  UNL     1      41.123  -1.282  30.183  1.00  0.00    -0.038 SA
BRANCH   3   5
HETATM    5  N1  UNL     1      43.298  -0.874  28.703  1.00  0.00    -0.302 N 
HETATM    6  C1  UNL     1      44.097  -1.881  28.080  1.00  0.00     0.228 C 
HETATM    7  O1  UNL     1      44.273  -2.994  28.687  1.00  0.00    -0.273 OA
ATOM      8  H1  UNL     1      43.146   0.020  28.233  1.00  0.00     0.171 HD
BRANCH   6   9
HETATM    9  C7  UNL     1      44.749  -1.742  26.770  1.00  0.00     0.078 A 
HETATM   10  C8  UNL     1      44.070  -1.169  25.582  1.00  0.00     0.015 A 
HETATM   11  C9  UNL     1      44.228  -2.707  25.706  1.00  0.00     0.015 A 
ENDBRANCH   6   9
ENDBRANCH   3   5
ENDBRANCH   1   3
BRANCH   1  12
HETATM   12  N3  UNL     1      43.459  -0.419  32.209  1.00  0.00    -0.293 NA
BRANCH  12  13
HETATM   13  C3  UNL     1      43.303   0.338  33.280  1.00  0.00     0.269 C 
HETATM   14  S2  UNL     1      42.084   0.210  34.374  1.00  0.00    -0.023 SA
BRANCH  13  15
HETATM   15  N4  UNL     1      44.266   1.384  33.527  1.00  0.00    -0.349 N 
ATOM     16  H4  UNL     1      44.066   2.287  33.098  1.00  0.00     0.163 HD
BRANCH  15  17
HETATM   17  C4  UNL     1      45.432   1.310  34.279  1.00  0.00     0.085 A 
HETATM   18  C5  UNL     1      45.981   0.047  34.832  1.00  0.00     0.027 A 
HETATM   19  C6  UNL     1      45.495   1.119  35.756  1.00  0.00     0.027 A 
ENDBRANCH  15  17
ENDBRANCH  13  15
ENDBRANCH  12  13
ENDBRANCH   1  12
TORSDOF 7
ENDMDL
MODEL 3
REMARK VINA RESULT: -5.182531247      1.650      2.211
REMARK  7 active torsions:
REMARK  status: ('A' for Active; 'I' for Inactive)
REMARK       I    between atoms: C1_2  and  N1_3 
REMARK    1  A    between atoms: C1_2  and  C7_17 
REMARK    2  A    between atoms: N1_3  and  C2_5 
REMARK    3  A    between atoms: C2_5  and  N2_7 
REMARK    4  A    between atoms: N2_7  and  N3_9 
REMARK    5  A    between atoms: N3_9  and  C3_10 
REMARK    6  A    between atoms: C3_10  and  N4_12 
REMARK    7  A    between atoms: N4_12  and  C4_14 
ROOT
HETATM    1  N2  UNL     1      44.128  -0.694  31.822  1.00  0.00    -0.206 N 
ATOM      2  H2  UNL     1      44.837  -1.342  31.480  1.00  0.00     0.204 HD
ENDROOT
BRANCH   1   3
HETATM    3  C2  UNL     1      42.853  -0.669  31.155  1.00  0.00     0.203 C 
HETATM    4  S1  UNL     1      41.518  -0.670  32.055  1.00  0.00    -0.038 SA
BRANCH   3   5
HETATM    5  N1  UNL     1      42.814  -0.641  29.730  1.00  0.00    -0.302 N 
HETATM    6  C1  UNL     1      43.457  -1.671  28.977  1.00  0.00     0.228 C 
HETATM    7  O1  UNL     1      44.062  -2.609  29.603  1.00  0.00    -0.273 OA
ATOM      8  H1  UNL     1      42.326   0.115  29.248  1.00  0.00     0.171 HD
BRANCH   6   9
HETATM    9  C7  UNL     1      43.482  -1.744  27.509  1.00  0.00     0.078 A 
HETATM   10  C8  UNL     1      44.113  -2.860  26.762  1.00  0.00     0.015 A 
HETATM   11  C9  UNL     1      44.860  -1.508  26.894  1.00  0.00     0.015 A 
ENDBRANCH   6   9
ENDBRANCH   3   5
ENDBRANCH   1   3
BRANCH   1  12
HETATM   12  N3  UNL     1      44.438   0.085  32.867  1.00  0.00    -0.293 NA
BRANCH  12  13
HETATM   13  C3  UNL     1      44.799   0.829  33.897  1.00  0.00     0.269 C 
HETATM   14  S2  UNL     1      43.829   1.879  34.708  1.00  0.00    -0.023 SA
BRANCH  13  15
HETATM   15  N4  UNL     1      46.162   0.741  34.364  1.00  0.00    -0.349 N 
ATOM     16  H4  UNL     1      46.850   1.284  33.842  1.00  0.00     0.163 HD
BRANCH  15  17
HETATM   17  C4  UNL     1      46.650   0.006  35.437  1.00  0.00     0.085 A 
HETATM   18  C5  UNL     1      47.054   0.604  36.734  1.00  0.00     0.027 A 
HETATM   19  C6  UNL     1      48.077  -0.053  35.864  1.00  0.00     0.027 A 
ENDBRANCH  15  17
ENDBRANCH  13  15
ENDBRANCH  12  13
ENDBRANCH   1  12
TORSDOF 7
ENDMDL
MODEL 4
REMARK VINA RESULT: -5.136830158      1.774      6.988
REMARK  7 active torsions:
REMARK  status: ('A' for Active; 'I' for Inactive)
REMARK       I    between atoms: C1_2  and  N1_3 
REMARK    1  A    between atoms: C1_2  and  C7_17 
REMARK    2  A    between atoms: N1_3  and  C2_5 
REMARK    3  A    between atoms: C2_5  and  N2_7 
REMARK    4  A    between atoms: N2_7  and  N3_9 
REMARK    5  A    between atoms: N3_9  and  C3_10 
REMARK    6  A    between atoms: C3_10  and  N4_12 
REMARK    7  A    between atoms: N4_12  and  C4_14 
ROOT
HETATM    1  N2  UNL     1      44.171  -0.496  32.036  1.00  0.00    -0.206 N 
ATOM      2  H2  UNL     1      45.150  -0.255  31.877  1.00  0.00     0.204 HD
ENDROOT
BRANCH   1   3
HETATM    3  C2  UNL     1      43.667  -0.423  33.383  1.00  0.00     0.203 C 
HETATM    4  S1  UNL     1      42.091  -0.169  33.597  1.00  0.00    -0.038 SA
BRANCH   3   5
HETATM    5  N1  UNL     1      44.571  -0.579  34.474  1.00  0.00    -0.302 N 
HETATM    6  C1  UNL     1      45.802   0.145  34.492  1.00  0.00     0.228 C 
HETATM    7  O1  UNL     1      46.073   0.930  33.517  1.00  0.00    -0.273 OA
ATOM      8  H1  UNL     1      44.338  -1.209  35.243  1.00  0.00     0.171 HD
BRANCH   6   9
HETATM    9  C7  UNL     1      46.808   0.062  35.561  1.00  0.00     0.078 A 
HETATM   10  C8  UNL     1      46.622  -0.750  36.789  1.00  0.00     0.015 A 
HETATM   11  C9  UNL     1      46.415   0.786  36.848  1.00  0.00     0.015 A 
ENDBRANCH   6   9
ENDBRANCH   3   5
ENDBRANCH   1   3
BRANCH   1  12
HETATM   12  N3  UNL     1      43.431  -0.861  30.982  1.00  0.00    -0.293 NA
BRANCH  12  13
HETATM   13  C3  UNL     1      42.747  -1.207  29.906  1.00  0.00     0.269 C 
HETATM   14  S2  UNL     1      41.354  -2.078  29.895  1.00  0.00    -0.023 SA
BRANCH  13  15
HETATM   15  N4  UNL     1      43.252  -0.809  28.614  1.00  0.00    -0.349 N 
ATOM     16  H4  UNL     1      42.867   0.053  28.229  1.00  0.00     0.163 HD
BRANCH  15  17
HETATM   17  C4  UNL     1      44.200  -1.458  27.832  1.00  0.00     0.085 A 
HETATM   18  C5  UNL     1      44.209  -1.427  26.348  1.00  0.00     0.027 A 
HETATM   19  C6  UNL     1      43.971  -2.717  27.067  1.00  0.00     0.027 A 
ENDBRANCH  15  17
ENDBRANCH  13  15
ENDBRANCH  12  13
ENDBRANCH   1  12
TORSDOF 7
ENDMDL
MODEL 5
REMARK VINA RESULT: -5.098832481      2.045      6.633
REMARK  7 active torsions:
REMARK  status: ('A' for Active; 'I' for Inactive)
REMARK       I    between atoms: C1_2  and  N1_3 
REMARK    1  A    between atoms: C1_2  and  C7_17 
REMARK    2  A    between atoms: N1_3  and  C2_5 
REMARK    3  A    between atoms: C2_5  and  N2_7 
REMARK    4  A    between atoms: N2_7  and  N3_9 
REMARK    5  A    between atoms: N3_9  and  C3_10 
REMARK    6  A    between atoms: C3_10  and  N4_12 
REMARK    7  A    between atoms: N4_12  and  C4_14 
ROOT
HETATM    1  N2  UNL     1      42.514  -1.354  29.209  1.00  0.00    -0.206 N 
ATOM      2  H2  UNL     1      42.958  -0.655  28.614  1.00  0.00     0.204 HD
ENDROOT
BRANCH   1   3
HETATM    3  C2  UNL     1      41.837  -0.902  30.396  1.00  0.00     0.203 C 
HETATM    4  S1  UNL     1      40.228  -0.963  30.430  1.00  0.00    -0.038 SA
BRANCH   3   5
HETATM    5  N1  UNL     1      42.606  -0.421  31.496  1.00  0.00    -0.302 N 
HETATM    6  C1  UNL     1      43.241  -1.344  32.382  1.00  0.00     0.228 C 
HETATM    7  O1  UNL     1      43.106  -2.600  32.168  1.00  0.00    -0.273 OA
ATOM      8  H1  UNL     1      42.703   0.583  31.651  1.00  0.00     0.171 HD
BRANCH   6   9
HETATM    9  C7  UNL     1      44.055  -0.965  33.546  1.00  0.00     0.078 A 
HETATM   10  C8  UNL     1      43.861   0.302  34.293  1.00  0.00     0.015 A 
HETATM   11  C9  UNL     1      45.030   0.181  33.282  1.00  0.00     0.015 A 
ENDBRANCH   6   9
ENDBRANCH   3   5
ENDBRANCH   1   3
BRANCH   1  12
HETATM   12  N3  UNL     1      42.596  -2.639  28.841  1.00  0.00    -0.293 NA
BRANCH  12  13
HETATM   13  C3  UNL     1      42.729  -3.910  28.509  1.00  0.00     0.269 C 
HETATM   14  S2  UNL     1      42.624  -5.186  29.540  1.00  0.00    -0.023 SA
BRANCH  13  15
HETATM   15  N4  UNL     1      43.003  -4.235  27.130  1.00  0.00    -0.349 N 
ATOM     16  H4  UNL     1      42.322  -4.838  26.668  1.00  0.00     0.163 HD
BRANCH  15  17
HETATM   17  C4  UNL     1      44.081  -3.825  26.356  1.00  0.00     0.085 A 
HETATM   18  C5  UNL     1      44.298  -2.425  25.913  1.00  0.00     0.027 A 
HETATM   19  C6  UNL     1      44.024  -3.494  24.903  1.00  0.00     0.027 A 
ENDBRANCH  15  17
ENDBRANCH  13  15
ENDBRANCH  12  13
ENDBRANCH   1  12
TORSDOF 7
ENDMDL
