MODEL 1
REMARK VINA RESULT: -5.357902466      0.000      0.000
REMARK  3 active torsions:
REMARK  status: ('A' for Active; 'I' for Inactive)
REMARK    1  A    between atoms: C2_2  and  N1_4 
REMARK       I    between atoms: C4_6  and  N3_8 
REMARK       I    between atoms: C5_10  and  N4_11 
REMARK       I    between atoms: C5_10  and  N6_15 
REMARK    2  A    between atoms: N6_15  and  C7_17 
REMARK    3  A    between atoms: C7_17  and  C8_18 
ROOT
HETATM    1  N1  UNL     1      40.638  -0.093  31.483  1.00  0.00    -0.360 N 
ATOM      2  H1  UNL     1      41.232   0.718  31.655  1.00  0.00     0.162 HD
HETATM    3  C4  UNL     1      41.003  -0.877  30.552  1.00  0.00     0.203 C 
HETATM    4  N2  UNL     1      40.241  -2.017  30.246  1.00  0.00    -0.063 NA
HETATM    5  N3  UNL     1      42.173  -0.603  29.821  1.00  0.00    -0.163 N 
ATOM      6  H3  UNL     1      42.342   0.366  29.550  1.00  0.00     0.187 HD
HETATM    7  C5  UNL     1      43.041  -1.474  29.469  1.00  0.00     0.689 C 
HETATM    8  N4  UNL     1      42.825  -2.827  29.834  1.00  0.00    -0.126 N 
ATOM      9  H4  UNL     1      42.798  -3.089  30.820  1.00  0.00     0.197 HD
HETATM   10  C6  UNL     1      42.648  -3.804  28.849  1.00  0.00     0.196 C 
HETATM   11  N5  UNL     1      42.492  -4.631  28.040  1.00  0.00    -0.171 NA
HETATM   12  N6  UNL     1      44.174  -1.035  28.730  1.00  0.00    -0.225 N 
ATOM     13  H6  UNL     1      45.062  -0.869  29.202  1.00  0.00     0.177 HD
ENDROOT
BRANCH  12  14
HETATM   14  C7  UNL     1      44.053  -0.823  27.286  1.00  0.00     0.149 C 
BRANCH  14  15
HETATM   15  C8  UNL     1      45.090  -1.682  26.593  1.00  0.00     0.105 C 
HETATM   16 BR1  UNL     1      44.271  -2.866  25.303  1.00  0.00    -0.095 Br
ENDBRANCH  14  15
ENDBRANCH  12  14
BRANCH   1  17
HETATM   17  C2  UNL     1      39.487  -0.225  32.313  1.00  0.00     0.076 C 
HETATM   18  C1  UNL     1      38.497   0.919  32.155  1.00  0.00     0.032 C 
HETATM   19  C3  UNL     1      39.969  -0.154  33.769  1.00  0.00     0.032 C 
ENDBRANCH   1  17
TORSDOF 3
ENDMDL
MODEL 2
REMARK VINA RESULT: -5.296492714      4.104      6.426
REMARK  3 active torsions:
REMARK  status: ('A' for Active; 'I' for Inactive)
REMARK    1  A    between atoms: C2_2  and  N1_4 
REMARK       I    between atoms: C4_6  and  N3_8 
REMARK       I    between atoms: C5_10  and  N4_11 
REMARK       I    between atoms: C5_10  and  N6_15 
REMARK    2  A    between atoms: N6_15  and  C7_17 
REMARK    3  A    between atoms: C7_17  and  C8_18 
ROOT
HETATM    1  N1  UNL     1      43.254  -3.592  26.988  1.00  0.00    -0.360 N 
ATOM      2  H1  UNL     1      42.427  -3.717  26.406  1.00  0.00     0.162 HD
HETATM    3  C4  UNL     1      43.168  -3.994  28.190  1.00  0.00     0.203 C 
HETATM    4  N2  UNL     1      44.261  -3.857  29.063  1.00  0.00    -0.063 NA
HETATM    5  N3  UNL     1      41.974  -4.576  28.653  1.00  0.00    -0.163 N 
ATOM      6  H3  UNL     1      41.097  -4.142  28.365  1.00  0.00     0.187 HD
HETATM    7  C5  UNL     1      41.902  -5.606  29.407  1.00  0.00     0.689 C 
HETATM    8  N4  UNL     1      43.110  -6.225  29.821  1.00  0.00    -0.126 N 
ATOM      9  H4  UNL     1      43.733  -6.638  29.126  1.00  0.00     0.197 HD
HETATM   10  C6  UNL     1      43.451  -6.270  31.176  1.00  0.00     0.196 C 
HETATM   11  N5  UNL     1      43.755  -6.310  32.303  1.00  0.00    -0.171 NA
HETATM   12  N6  UNL     1      40.615  -6.073  29.788  1.00  0.00    -0.225 N 
ATOM     13  H6  UNL     1      40.183  -6.853  29.293  1.00  0.00     0.177 HD
ENDROOT
BRANCH  12  14
HETATM   14  C7  UNL     1      39.914  -5.425  30.899  1.00  0.00     0.149 C 
BRANCH  14  15
HETATM   15  C8  UNL     1      38.555  -4.974  30.404  1.00  0.00     0.105 C 
HETATM   16 BR1  UNL     1      38.625  -3.174  29.706  1.00  0.00    -0.095 Br
ENDBRANCH  14  15
ENDBRANCH  12  14
BRANCH   1  17
HETATM   17  C2  UNL     1      44.383  -2.984  26.366  1.00  0.00     0.076 C 
HETATM   18  C1  UNL     1      44.393  -1.468  26.486  1.00  0.00     0.032 C 
HETATM   19  C3  UNL     1      44.283  -3.278  24.863  1.00  0.00     0.032 C 
ENDBRANCH   1  17
TORSDOF 3
ENDMDL
MODEL 3
REMARK VINA RESULT: -5.234703907      3.253      6.384
REMARK  3 active torsions:
REMARK  status: ('A' for Active; 'I' for Inactive)
REMARK    1  A    between atoms: C2_2  and  N1_4 
REMARK       I    between atoms: C4_6  and  N3_8 
REMARK       I    between atoms: C5_10  and  N4_11 
REMARK       I    between atoms: C5_10  and  N6_15 
REMARK    2  A    between atoms: N6_15  and  C7_17 
REMARK    3  A    between atoms: C7_17  and  C8_18 
ROOT
HETATM    1  N1  UNL     1      43.227  -2.596  27.781  1.00  0.00    -0.360 N 
ATOM      2  H1  UNL     1      42.393  -3.140  27.558  1.00  0.00     0.162 HD
HETATM    3  C4  UNL     1      43.129  -1.777  28.747  1.00  0.00     0.203 C 
HETATM    4  N2  UNL     1      44.230  -0.986  29.119  1.00  0.00    -0.063 NA
HETATM    5  N3  UNL     1      41.915  -1.656  29.446  1.00  0.00    -0.163 N 
ATOM      6  H3  UNL     1      41.055  -1.656  28.898  1.00  0.00     0.187 HD
HETATM    7  C5  UNL     1      41.805  -1.546  30.716  1.00  0.00     0.689 C 
HETATM    8  N4  UNL     1      42.990  -1.543  31.497  1.00  0.00    -0.126 N 
ATOM      9  H4  UNL     1      43.593  -2.365  31.508  1.00  0.00     0.197 HD
HETATM   10  C6  UNL     1      43.334  -0.416  32.251  1.00  0.00     0.196 C 
HETATM   11  N5  UNL     1      43.639   0.518  32.881  1.00  0.00    -0.171 NA
HETATM   12  N6  UNL     1      40.502  -1.433  31.272  1.00  0.00    -0.225 N 
ATOM     13  H6  UNL     1      40.038  -2.251  31.666  1.00  0.00     0.177 HD
ENDROOT
BRANCH  12  14
HETATM   14  C7  UNL     1      39.831  -0.131  31.274  1.00  0.00     0.149 C 
BRANCH  14  15
HETATM   15  C8  UNL     1      39.420   0.188  32.696  1.00  0.00     0.105 C 
HETATM   16 BR1  UNL     1      37.867   1.337  32.736  1.00  0.00    -0.095 Br
ENDBRANCH  14  15
ENDBRANCH  12  14
BRANCH   1  17
HETATM   17  C2  UNL     1      44.377  -2.839  26.974  1.00  0.00     0.076 C 
HETATM   18  C1  UNL     1      44.544  -1.831  25.847  1.00  0.00     0.032 C 
HETATM   19  C3  UNL     1      44.169  -4.195  26.287  1.00  0.00     0.032 C 
ENDBRANCH   1  17
TORSDOF 3
ENDMDL
MODEL 4
REMARK VINA RESULT: -5.116478213      2.747      6.083
REMARK  3 active torsions:
REMARK  status: ('A' for Active; 'I' for Inactive)
REMARK    1  A    between atoms: C2_2  and  N1_4 
REMARK       I    between atoms: C4_6  and  N3_8 
REMARK       I    between atoms: C5_10  and  N4_11 
REMARK       I    between atoms: C5_10  and  N6_15 
REMARK    2  A    between atoms: N6_15  and  C7_17 
REMARK    3  A    between atoms: C7_17  and  C8_18 
ROOT
HETATM    1  N1  UNL     1      43.302  -2.535  27.693  1.00  0.00    -0.360 N 
ATOM      2  H1  UNL     1      42.436  -3.043  27.516  1.00  0.00     0.162 HD
HETATM    3  C4  UNL     1      43.321  -1.789  28.722  1.00  0.00     0.203 C 
HETATM    4  N2  UNL     1      44.474  -1.050  29.039  1.00  0.00    -0.063 NA
HETATM    5  N3  UNL     1      42.186  -1.699  29.546  1.00  0.00    -0.163 N 
ATOM      6  H3  UNL     1      41.276  -1.641  29.089  1.00  0.00     0.187 HD
HETATM    7  C5  UNL     1      42.205  -1.683  30.825  1.00  0.00     0.689 C 
HETATM    8  N4  UNL     1      43.460  -1.762  31.482  1.00  0.00    -0.126 N 
ATOM      9  H4  UNL     1      44.039  -2.595  31.372  1.00  0.00     0.197 HD
HETATM   10  C6  UNL     1      43.906  -0.703  32.279  1.00  0.00     0.196 C 
HETATM   11  N5  UNL     1      44.297   0.175  32.942  1.00  0.00    -0.171 NA
HETATM   12  N6  UNL     1      40.966  -1.588  31.516  1.00  0.00    -0.225 N 
ATOM     13  H6  UNL     1      40.522  -2.425  31.893  1.00  0.00     0.177 HD
ENDROOT
BRANCH  12  14
HETATM   14  C7  UNL     1      40.333  -0.277  31.681  1.00  0.00     0.149 C 
BRANCH  14  15
HETATM   15  C8  UNL     1      38.831  -0.465  31.620  1.00  0.00     0.105 C 
HETATM   16 BR1  UNL     1      38.351  -1.879  30.393  1.00  0.00    -0.095 Br
ENDBRANCH  14  15
ENDBRANCH  12  14
BRANCH   1  17
HETATM   17  C2  UNL     1      44.360  -2.737  26.760  1.00  0.00     0.076 C 
HETATM   18  C1  UNL     1      44.388  -1.699  25.649  1.00  0.00     0.032 C 
HETATM   19  C3  UNL     1      44.097  -4.079  26.063  1.00  0.00     0.032 C 
ENDBRANCH   1  17
TORSDOF 3
ENDMDL
MODEL 5
REMARK VINA RESULT: -5.115440856      4.431      6.646
REMARK  3 active torsions:
REMARK  status: ('A' for Active; 'I' for Inactive)
REMARK    1  A    between atoms: C2_2  and  N1_4 
REMARK       I    between atoms: C4_6  and  N3_8 
REMARK       I    between atoms: C5_10  and  N4_11 
REMARK       I    between atoms: C5_10  and  N6_15 
REMARK    2  A    between atoms: N6_15  and  C7_17 
REMARK    3  A    between atoms: C7_17  and  C8_18 
ROOT
HETATM    1  N1  UNL     1      43.243  -3.582  26.986  1.00  0.00    -0.360 N 
ATOM      2  H1  UNL     1      42.415  -3.710  26.405  1.00  0.00     0.162 HD
HETATM    3  C4  UNL     1      43.164  -3.991  28.186  1.00  0.00     0.203 C 
HETATM    4  N2  UNL     1      44.258  -3.851  29.056  1.00  0.00    -0.063 NA
HETATM    5  N3  UNL     1      41.976  -4.585  28.649  1.00  0.00    -0.163 N 
ATOM      6  H3  UNL     1      41.095  -4.156  28.365  1.00  0.00     0.187 HD
HETATM    7  C5  UNL     1      41.914  -5.620  29.398  1.00  0.00     0.689 C 
HETATM    8  N4  UNL     1      43.128  -6.231  29.804  1.00  0.00    -0.126 N 
ATOM      9  H4  UNL     1      43.752  -6.636  29.105  1.00  0.00     0.197 HD
HETATM   10  C6  UNL     1      43.474  -6.281  31.158  1.00  0.00     0.196 C 
HETATM   11  N5  UNL     1      43.781  -6.325  32.284  1.00  0.00    -0.171 NA
HETATM   12  N6  UNL     1      40.632  -6.099  29.780  1.00  0.00    -0.225 N 
ATOM     13  H6  UNL     1      40.205  -6.879  29.282  1.00  0.00     0.177 HD
ENDROOT
BRANCH  12  14
HETATM   14  C7  UNL     1      39.929  -5.462  30.896  1.00  0.00     0.149 C 
BRANCH  14  15
HETATM   15  C8  UNL     1      39.859  -6.453  32.040  1.00  0.00     0.105 C 
HETATM   16 BR1  UNL     1      40.111  -8.264  31.413  1.00  0.00    -0.095 Br
ENDBRANCH  14  15
ENDBRANCH  12  14
BRANCH   1  17
HETATM   17  C2  UNL     1      44.366  -2.962  26.363  1.00  0.00     0.076 C 
HETATM   18  C1  UNL     1      44.371  -1.448  26.504  1.00  0.00     0.032 C 
HETATM   19  C3  UNL     1      44.255  -3.235  24.857  1.00  0.00     0.032 C 
ENDBRANCH   1  17
TORSDOF 3
ENDMDL
