MODEL 1
REMARK VINA RESULT: -6.162437543      0.000      0.000
REMARK  2 active torsions:
REMARK  status: ('A' for Active; 'I' for Inactive)
REMARK       I    between atoms: C1_2  and  N2_4 
REMARK    1  A    between atoms: N2_4  and  C2_6 
REMARK    2  A    between atoms: C8_12  and  C9_13 
ROOT
HETATM    1  C2  UNL     1      43.026  -2.587  29.448  1.00  0.00     0.052 C 
HETATM    2  C3  UNL     1      41.721  -1.835  29.065  1.00  0.00     0.037 C 
HETATM    3  C4  UNL     1      40.954  -1.512  30.291  1.00  0.00    -0.010 C 
HETATM    4  C5  UNL     1      40.481  -2.841  30.870  1.00  0.00     0.011 C 
HETATM    5  C6  UNL     1      41.686  -3.653  31.207  1.00  0.00     0.008 C 
HETATM    6  C7  UNL     1      42.468  -2.882  32.266  1.00  0.00     0.025 C 
HETATM    7  C8  UNL     1      42.932  -1.560  31.725  1.00  0.00     0.041 C 
HETATM    8  C10 UNL     1      41.722  -0.735  31.313  1.00  0.00     0.023 C 
HETATM    9  C11 UNL     1      43.753  -1.745  30.464  1.00  0.00     0.051 C 
HETATM   10  C12 UNL     1      42.624  -3.899  30.030  1.00  0.00     0.114 C 
HETATM   11 CL1  UNL     1      43.996  -4.792  30.696  1.00  0.00    -0.122 Cl
ENDROOT
BRANCH   1  12
HETATM   12  N2  UNL     1      43.807  -2.622  28.253  1.00  0.00    -0.335 N 
HETATM   13  C1  UNL     1      44.367  -1.608  27.489  1.00  0.00     0.329 C 
HETATM   14  N1  UNL     1      45.130  -1.957  26.321  1.00  0.00    -0.040 NA
HETATM   15  O1  UNL     1      44.238  -0.407  27.774  1.00  0.00    -0.251 OA
ATOM     16  H2  UNL     1      43.986  -3.561  27.897  1.00  0.00     0.164 HD
ENDBRANCH   1  12
BRANCH   7  17
HETATM   17  C9  UNL     1      43.757  -0.894  32.736  1.00  0.00     0.240 C 
HETATM   18  N3  UNL     1      44.896  -0.133  32.357  1.00  0.00    -0.061 NA
HETATM   19  O2  UNL     1      43.493  -0.967  33.969  1.00  0.00    -0.276 OA
ENDBRANCH   7  17
TORSDOF 2
ENDMDL
MODEL 2
REMARK VINA RESULT: -6.125758399      1.976      4.407
REMARK  2 active torsions:
REMARK  status: ('A' for Active; 'I' for Inactive)
REMARK       I    between atoms: C1_2  and  N2_4 
REMARK    1  A    between atoms: N2_4  and  C2_6 
REMARK    2  A    between atoms: C8_12  and  C9_13 
ROOT
HETATM    1  C2  UNL     1      42.345  -1.494  31.690  1.00  0.00     0.052 C 
HETATM    2  C3  UNL     1      42.998  -2.737  32.358  1.00  0.00     0.037 C 
HETATM    3  C4  UNL     1      42.958  -3.884  31.420  1.00  0.00    -0.010 C 
HETATM    4  C5  UNL     1      41.489  -4.259  31.255  1.00  0.00     0.011 C 
HETATM    5  C6  UNL     1      40.775  -3.085  30.673  1.00  0.00     0.008 C 
HETATM    6  C7  UNL     1      41.393  -2.814  29.305  1.00  0.00     0.025 C 
HETATM    7  C8  UNL     1      42.846  -2.458  29.439  1.00  0.00     0.041 C 
HETATM    8  C10 UNL     1      43.587  -3.617  30.090  1.00  0.00     0.023 C 
HETATM    9  C11 UNL     1      43.034  -1.276  30.368  1.00  0.00     0.051 C 
HETATM   10  C12 UNL     1      40.901  -1.807  31.496  1.00  0.00     0.114 C 
HETATM   11 CL1  UNL     1      40.059  -0.561  30.566  1.00  0.00    -0.122 Cl
ENDROOT
BRANCH   1  12
HETATM   12  N2  UNL     1      42.660  -0.396  32.546  1.00  0.00    -0.335 N 
HETATM   13  C1  UNL     1      43.865   0.220  32.848  1.00  0.00     0.329 C 
HETATM   14  N1  UNL     1      43.869   1.337  33.754  1.00  0.00    -0.040 NA
HETATM   15  O1  UNL     1      44.946  -0.151  32.365  1.00  0.00    -0.251 OA
ATOM     16  H2  UNL     1      41.853   0.009  33.022  1.00  0.00     0.164 HD
ENDBRANCH   1  12
BRANCH   7  17
HETATM   17  C9  UNL     1      43.377  -2.115  28.117  1.00  0.00     0.240 C 
HETATM   18  N3  UNL     1      43.935  -0.830  27.871  1.00  0.00    -0.061 NA
HETATM   19  O2  UNL     1      43.361  -2.933  27.157  1.00  0.00    -0.276 OA
ENDBRANCH   7  17
TORSDOF 2
ENDMDL
MODEL 3
REMARK VINA RESULT: -6.030460284      1.805      4.434
REMARK  2 active torsions:
REMARK  status: ('A' for Active; 'I' for Inactive)
REMARK       I    between atoms: C1_2  and  N2_4 
REMARK    1  A    between atoms: N2_4  and  C2_6 
REMARK    2  A    between atoms: C8_12  and  C9_13 
ROOT
HETATM    1  C2  UNL     1      42.724  -2.327  31.824  1.00  0.00     0.052 C 
HETATM    2  C3  UNL     1      43.009  -3.843  32.015  1.00  0.00     0.037 C 
HETATM    3  C4  UNL     1      42.913  -4.537  30.709  1.00  0.00    -0.010 C 
HETATM    4  C5  UNL     1      41.449  -4.468  30.288  1.00  0.00     0.011 C 
HETATM    5  C6  UNL     1      41.077  -3.030  30.144  1.00  0.00     0.008 C 
HETATM    6  C7  UNL     1      41.955  -2.445  29.043  1.00  0.00     0.025 C 
HETATM    7  C8  UNL     1      43.405  -2.516  29.426  1.00  0.00     0.041 C 
HETATM    8  C10 UNL     1      43.795  -3.971  29.642  1.00  0.00     0.023 C 
HETATM    9  C11 UNL     1      43.654  -1.823  30.751  1.00  0.00     0.051 C 
HETATM   10  C12 UNL     1      41.300  -2.198  31.403  1.00  0.00     0.114 C 
HETATM   11 CL1  UNL     1      40.876  -0.541  30.955  1.00  0.00    -0.122 Cl
ENDROOT
BRANCH   1  12
HETATM   12  N2  UNL     1      43.091  -1.715  33.060  1.00  0.00    -0.335 N 
HETATM   13  C1  UNL     1      43.447  -0.411  33.371  1.00  0.00     0.329 C 
HETATM   14  N1  UNL     1      43.757  -0.081  34.736  1.00  0.00    -0.040 NA
HETATM   15  O1  UNL     1      43.507   0.489  32.518  1.00  0.00    -0.251 OA
ATOM     16  H2  UNL     1      43.092  -2.350  33.858  1.00  0.00     0.164 HD
ENDBRANCH   1  12
BRANCH   7  17
HETATM   17  C9  UNL     1      44.206  -1.861  28.389  1.00  0.00     0.240 C 
HETATM   18  N3  UNL     1      44.226  -2.366  27.060  1.00  0.00    -0.061 NA
HETATM   19  O2  UNL     1      44.901  -0.834  28.629  1.00  0.00    -0.276 OA
ENDBRANCH   7  17
TORSDOF 2
ENDMDL
MODEL 4
REMARK VINA RESULT: -5.978556470      5.900      8.021
REMARK  2 active torsions:
REMARK  status: ('A' for Active; 'I' for Inactive)
REMARK       I    between atoms: C1_2  and  N2_4 
REMARK    1  A    between atoms: N2_4  and  C2_6 
REMARK    2  A    between atoms: C8_12  and  C9_13 
ROOT
HETATM    1  C2  UNL     1      44.603   1.960  36.065  1.00  0.00     0.052 C 
HETATM    2  C3  UNL     1      44.204   3.442  35.815  1.00  0.00     0.037 C 
HETATM    3  C4  UNL     1      43.606   4.011  37.046  1.00  0.00    -0.010 C 
HETATM    4  C5  UNL     1      42.283   3.284  37.262  1.00  0.00     0.011 C 
HETATM    5  C6  UNL     1      42.578   1.833  37.448  1.00  0.00     0.008 C 
HETATM    6  C7  UNL     1      43.443   1.705  38.697  1.00  0.00     0.025 C 
HETATM    7  C8  UNL     1      44.747   2.428  38.516  1.00  0.00     0.041 C 
HETATM    8  C10 UNL     1      44.472   3.902  38.260  1.00  0.00     0.023 C 
HETATM    9  C11 UNL     1      45.481   1.928  37.288  1.00  0.00     0.051 C 
HETATM   10  C12 UNL     1      43.342   1.198  36.291  1.00  0.00     0.114 C 
HETATM   11 CL1  UNL     1      43.642  -0.473  36.784  1.00  0.00    -0.122 Cl
ENDROOT
BRANCH   1  12
HETATM   12  N2  UNL     1      45.392   1.586  34.935  1.00  0.00    -0.335 N 
HETATM   13  C1  UNL     1      45.045   1.311  33.620  1.00  0.00     0.329 C 
HETATM   14  N1  UNL     1      46.081   0.967  32.685  1.00  0.00    -0.040 NA
HETATM   15  O1  UNL     1      43.873   1.354  33.214  1.00  0.00    -0.251 OA
ATOM     16  H2  UNL     1      46.390   1.504  35.130  1.00  0.00     0.164 HD
ENDBRANCH   1  12
BRANCH   7  17
HETATM   17  C9  UNL     1      45.586   2.202  39.696  1.00  0.00     0.240 C 
HETATM   18  N3  UNL     1      45.243   2.778  40.950  1.00  0.00    -0.061 NA
HETATM   19  O2  UNL     1      46.631   1.497  39.649  1.00  0.00    -0.276 OA
ENDBRANCH   7  17
TORSDOF 2
ENDMDL
MODEL 5
REMARK VINA RESULT: -5.858387368      2.369      2.980
REMARK  2 active torsions:
REMARK  status: ('A' for Active; 'I' for Inactive)
REMARK       I    between atoms: C1_2  and  N2_4 
REMARK    1  A    between atoms: N2_4  and  C2_6 
REMARK    2  A    between atoms: C8_12  and  C9_13 
ROOT
HETATM    1  C2  UNL     1      43.098  -2.550  29.580  1.00  0.00     0.052 C 
HETATM    2  C3  UNL     1      42.649  -3.944  29.061  1.00  0.00     0.037 C 
HETATM    3  C4  UNL     1      41.459  -4.398  29.820  1.00  0.00    -0.010 C 
HETATM    4  C5  UNL     1      41.926  -4.648  31.250  1.00  0.00     0.011 C 
HETATM    5  C6  UNL     1      42.435  -3.358  31.801  1.00  0.00     0.008 C 
HETATM    6  C7  UNL     1      41.268  -2.377  31.807  1.00  0.00     0.025 C 
HETATM    7  C8  UNL     1      40.778  -2.126  30.410  1.00  0.00     0.041 C 
HETATM    8  C10 UNL     1      40.311  -3.440  29.800  1.00  0.00     0.023 C 
HETATM    9  C11 UNL     1      41.901  -1.636  29.518  1.00  0.00     0.051 C 
HETATM   10  C12 UNL     1      43.561  -2.732  30.985  1.00  0.00     0.114 C 
HETATM   11 CL1  UNL     1      43.922  -1.195  31.781  1.00  0.00    -0.122 Cl
ENDROOT
BRANCH   1  12
HETATM   12  N2  UNL     1      44.064  -2.088  28.635  1.00  0.00    -0.335 N 
HETATM   13  C1  UNL     1      44.217  -2.337  27.279  1.00  0.00     0.329 C 
HETATM   14  N1  UNL     1      45.300  -1.706  26.574  1.00  0.00    -0.040 NA
HETATM   15  O1  UNL     1      43.454  -3.082  26.645  1.00  0.00    -0.251 OA
ATOM     16  H2  UNL     1      44.768  -1.464  29.028  1.00  0.00     0.164 HD
ENDBRANCH   1  12
BRANCH   7  17
HETATM   17  C9  UNL     1      39.723  -1.111  30.449  1.00  0.00     0.240 C 
HETATM   18  N3  UNL     1      40.025   0.235  30.794  1.00  0.00    -0.061 NA
HETATM   19  O2  UNL     1      38.521  -1.385  30.181  1.00  0.00    -0.276 OA
ENDBRANCH   7  17
TORSDOF 2
ENDMDL
