MODEL 1
REMARK VINA RESULT: -7.331036495      0.000      0.000
REMARK  2 active torsions:
REMARK  status: ('A' for Active; 'I' for Inactive)
REMARK       I    between atoms: N1_2  and  C2_4 
REMARK       I    between atoms: C2_4  and  N3_8 
REMARK    1  A    between atoms: C4_10  and  N4_11 
REMARK       I    between atoms: N4_11  and  C5_13 
REMARK       I    between atoms: C5_13  and  N5_15 
REMARK    2  A    between atoms: N5_15  and  C6_17 
ROOT
HETATM    1  C1  UNL     1      44.444  -2.494  26.034  1.00  0.00     0.165 C 
HETATM    2  N1  UNL     1      43.763  -1.867  27.128  1.00  0.00    -0.231 N 
ATOM      3  H1  UNL     1      42.771  -1.654  27.021  1.00  0.00     0.177 HD
HETATM    4  C2  UNL     1      44.397  -1.528  28.354  1.00  0.00     0.670 C 
HETATM    5  N2  UNL     1      45.420  -0.751  28.303  1.00  0.00    -0.235 N 
ATOM      6  H21 UNL     1      45.875  -0.508  29.183  1.00  0.00     0.174 HD
ATOM      7  H22 UNL     1      45.759  -0.393  27.410  1.00  0.00     0.174 HD
HETATM    8  N3  UNL     1      43.921  -2.032  29.611  1.00  0.00    -0.208 N 
HETATM    9  C3  UNL     1      44.141  -1.386  30.892  1.00  0.00     0.167 C 
HETATM   10  C4  UNL     1      43.000  -1.898  31.704  1.00  0.00     0.107 C 
HETATM   11  C14 UNL     1      43.015  -3.385  31.323  1.00  0.00     0.057 C 
HETATM   12  C15 UNL     1      43.155  -3.249  29.800  1.00  0.00     0.044 C 
HETATM   13  C16 UNL     1      41.732  -3.092  29.277  1.00  0.00     0.039 C 
HETATM   14  C17 UNL     1      43.792  -4.451  29.185  1.00  0.00     0.039 C 
ENDROOT
BRANCH  10  15
HETATM   15  N4  UNL     1      43.102  -1.697  33.101  1.00  0.00    -0.337 N 
HETATM   16  C5  UNL     1      43.241  -0.384  33.625  1.00  0.00     0.316 C 
HETATM   17  O1  UNL     1      43.277   0.630  32.843  1.00  0.00    -0.247 OA
HETATM   18  N5  UNL     1      43.347  -0.116  35.014  1.00  0.00    -0.338 N 
ATOM     19  H5  UNL     1      43.324  -0.887  35.682  1.00  0.00     0.164 HD
ATOM     20  H4  UNL     1      43.075  -2.496  33.733  1.00  0.00     0.164 HD
BRANCH  18  21
HETATM   21  C6  UNL     1      43.486   1.223  35.480  1.00  0.00     0.090 C 
HETATM   22  C7  UNL     1      43.016   1.435  36.900  1.00  0.00     0.030 C 
HETATM   23  C8  UNL     1      43.849   2.599  37.446  1.00  0.00    -0.012 C 
HETATM   24  C9  UNL     1      44.813   2.095  38.529  1.00  0.00     0.005 C 
HETATM   25  C13 UNL     1      44.743   3.023  36.281  1.00  0.00     0.011 C 
HETATM   26  C10 UNL     1      46.009   1.457  37.869  1.00  0.00     0.001 C 
HETATM   27  C11 UNL     1      45.610   0.739  36.580  1.00  0.00     0.007 C 
HETATM   28  C12 UNL     1      44.950   1.662  35.602  1.00  0.00     0.009 C 
ENDBRANCH  18  21
ENDBRANCH  10  15
TORSDOF 2
ENDMDL
MODEL 2
REMARK VINA RESULT: -6.879672032      1.090      1.210
REMARK  2 active torsions:
REMARK  status: ('A' for Active; 'I' for Inactive)
REMARK       I    between atoms: N1_2  and  C2_4 
REMARK       I    between atoms: C2_4  and  N3_8 
REMARK    1  A    between atoms: C4_10  and  N4_11 
REMARK       I    between atoms: N4_11  and  C5_13 
REMARK       I    between atoms: C5_13  and  N5_15 
REMARK    2  A    between atoms: N5_15  and  C6_17 
ROOT
HETATM    1  C1  UNL     1      43.803  -3.306  27.078  1.00  0.00     0.165 C 
HETATM    2  N1  UNL     1      43.216  -2.522  28.124  1.00  0.00    -0.231 N 
ATOM      3  H1  UNL     1      42.207  -2.370  28.106  1.00  0.00     0.177 HD
HETATM    4  C2  UNL     1      43.966  -1.944  29.185  1.00  0.00     0.670 C 
HETATM    5  N2  UNL     1      44.928  -1.149  28.873  1.00  0.00    -0.235 N 
ATOM      6  H21 UNL     1      45.465  -0.735  29.634  1.00  0.00     0.174 HD
ATOM      7  H22 UNL     1      45.138  -0.943  27.897  1.00  0.00     0.174 HD
HETATM    8  N3  UNL     1      43.671  -2.234  30.559  1.00  0.00    -0.208 N 
HETATM    9  C3  UNL     1      43.997  -1.362  31.671  1.00  0.00     0.167 C 
HETATM   10  C4  UNL     1      42.991  -1.765  32.696  1.00  0.00     0.107 C 
HETATM   11  C14 UNL     1      43.053  -3.294  32.578  1.00  0.00     0.057 C 
HETATM   12  C15 UNL     1      43.006  -3.427  31.049  1.00  0.00     0.044 C 
HETATM   13  C16 UNL     1      41.526  -3.422  30.689  1.00  0.00     0.039 C 
HETATM   14  C17 UNL     1      43.640  -4.693  30.576  1.00  0.00     0.039 C 
ENDROOT
BRANCH  10  15
HETATM   15  N4  UNL     1      43.241  -1.314  34.013  1.00  0.00    -0.337 N 
HETATM   16  C5  UNL     1      43.159   0.071  34.322  1.00  0.00     0.316 C 
HETATM   17  O1  UNL     1      42.859   0.924  33.415  1.00  0.00    -0.247 OA
HETATM   18  N5  UNL     1      43.397   0.585  35.622  1.00  0.00    -0.338 N 
ATOM     19  H5  UNL     1      43.639  -0.050  36.382  1.00  0.00     0.164 HD
ATOM     20  H4  UNL     1      43.482  -1.984  34.743  1.00  0.00     0.164 HD
BRANCH  18  21
HETATM   21  C6  UNL     1      43.300   1.985  35.870  1.00  0.00     0.090 C 
HETATM   22  C7  UNL     1      42.530   2.339  37.121  1.00  0.00     0.030 C 
HETATM   23  C8  UNL     1      43.110   3.671  37.606  1.00  0.00    -0.012 C 
HETATM   24  C9  UNL     1      43.877   3.465  38.919  1.00  0.00     0.005 C 
HETATM   25  C13 UNL     1      44.175   4.035  36.573  1.00  0.00     0.011 C 
HETATM   26  C10 UNL     1      45.242   2.903  38.611  1.00  0.00     0.001 C 
HETATM   27  C11 UNL     1      45.191   1.957  37.412  1.00  0.00     0.007 C 
HETATM   28  C12 UNL     1      44.656   2.629  36.186  1.00  0.00     0.009 C 
ENDBRANCH  18  21
ENDBRANCH  10  15
TORSDOF 2
ENDMDL
MODEL 3
REMARK VINA RESULT: -6.683674588      1.954      8.649
REMARK  2 active torsions:
REMARK  status: ('A' for Active; 'I' for Inactive)
REMARK       I    between atoms: N1_2  and  C2_4 
REMARK       I    between atoms: C2_4  and  N3_8 
REMARK    1  A    between atoms: C4_10  and  N4_11 
REMARK       I    between atoms: N4_11  and  C5_13 
REMARK       I    between atoms: C5_13  and  N5_15 
REMARK    2  A    between atoms: N5_15  and  C6_17 
ROOT
HETATM    1  C1  UNL     1      42.313   5.053  38.560  1.00  0.00     0.165 C 
HETATM    2  N1  UNL     1      42.684   4.456  37.311  1.00  0.00    -0.231 N 
ATOM      3  H1  UNL     1      43.397   4.920  36.746  1.00  0.00     0.177 HD
HETATM    4  C2  UNL     1      42.111   3.252  36.817  1.00  0.00     0.670 C 
HETATM    5  N2  UNL     1      40.834   3.214  36.670  1.00  0.00    -0.235 N 
ATOM      6  H21 UNL     1      40.424   2.350  36.316  1.00  0.00     0.174 HD
ATOM      7  H22 UNL     1      40.259   4.024  36.899  1.00  0.00     0.174 HD
HETATM    8  N3  UNL     1      42.920   2.111  36.495  1.00  0.00    -0.208 N 
HETATM    9  C3  UNL     1      42.542   1.075  35.552  1.00  0.00     0.167 C 
HETATM   10  C4  UNL     1      43.866   0.538  35.124  1.00  0.00     0.107 C 
HETATM   11  C14 UNL     1      44.591   0.440  36.474  1.00  0.00     0.057 C 
HETATM   12  C15 UNL     1      44.228   1.816  37.051  1.00  0.00     0.044 C 
HETATM   13  C16 UNL     1      45.285   2.771  36.512  1.00  0.00     0.039 C 
HETATM   14  C17 UNL     1      44.251   1.823  38.544  1.00  0.00     0.039 C 
ENDROOT
BRANCH  10  15
HETATM   15  N4  UNL     1      43.835  -0.698  34.437  1.00  0.00    -0.337 N 
HETATM   16  C5  UNL     1      43.366  -0.757  33.097  1.00  0.00     0.316 C 
HETATM   17  O1  UNL     1      42.968   0.302  32.497  1.00  0.00    -0.247 OA
HETATM   18  N5  UNL     1      43.311  -1.965  32.354  1.00  0.00    -0.338 N 
ATOM     19  H5  UNL     1      43.616  -2.839  32.782  1.00  0.00     0.164 HD
ATOM     20  H4  UNL     1      44.148  -1.548  34.904  1.00  0.00     0.164 HD
BRANCH  18  21
HETATM   21  C6  UNL     1      42.830  -1.961  31.012  1.00  0.00     0.090 C 
HETATM   22  C7  UNL     1      43.919  -2.030  29.966  1.00  0.00     0.030 C 
HETATM   23  C8  UNL     1      43.288  -2.720  28.752  1.00  0.00    -0.012 C 
HETATM   24  C9  UNL     1      43.910  -4.109  28.554  1.00  0.00     0.005 C 
HETATM   25  C13 UNL     1      41.840  -2.985  29.159  1.00  0.00     0.011 C 
HETATM   26  C10 UNL     1      43.277  -5.077  29.521  1.00  0.00     0.001 C 
HETATM   27  C11 UNL     1      42.944  -4.394  30.847  1.00  0.00     0.007 C 
HETATM   28  C12 UNL     1      42.029  -3.222  30.664  1.00  0.00     0.009 C 
ENDBRANCH  18  21
ENDBRANCH  10  15
TORSDOF 2
ENDMDL
MODEL 4
REMARK VINA RESULT: -6.609549363      1.827      8.749
REMARK  2 active torsions:
REMARK  status: ('A' for Active; 'I' for Inactive)
REMARK       I    between atoms: N1_2  and  C2_4 
REMARK       I    between atoms: C2_4  and  N3_8 
REMARK    1  A    between atoms: C4_10  and  N4_11 
REMARK       I    between atoms: N4_11  and  C5_13 
REMARK       I    between atoms: C5_13  and  N5_15 
REMARK    2  A    between atoms: N5_15  and  C6_17 
ROOT
HETATM    1  C1  UNL     1      41.861   3.353  39.714  1.00  0.00     0.165 C 
HETATM    2  N1  UNL     1      41.744   2.962  38.340  1.00  0.00    -0.231 N 
ATOM      3  H1  UNL     1      41.409   3.652  37.668  1.00  0.00     0.177 HD
HETATM    4  C2  UNL     1      42.071   1.662  37.866  1.00  0.00     0.670 C 
HETATM    5  N2  UNL     1      41.462   0.661  38.397  1.00  0.00    -0.235 N 
ATOM      6  H21 UNL     1      41.697  -0.271  38.056  1.00  0.00     0.174 HD
ATOM      7  H22 UNL     1      40.769   0.803  39.132  1.00  0.00     0.174 HD
HETATM    8  N3  UNL     1      43.046   1.462  36.832  1.00  0.00    -0.208 N 
HETATM    9  C3  UNL     1      43.086   0.309  35.952  1.00  0.00     0.167 C 
HETATM   10  C4  UNL     1      43.800   0.848  34.758  1.00  0.00     0.107 C 
HETATM   11  C14 UNL     1      44.939   1.630  35.427  1.00  0.00     0.057 C 
HETATM   12  C15 UNL     1      44.132   2.367  36.506  1.00  0.00     0.044 C 
HETATM   13  C16 UNL     1      43.614   3.630  35.830  1.00  0.00     0.039 C 
HETATM   14  C17 UNL     1      44.973   2.731  37.685  1.00  0.00     0.039 C 
ENDROOT
BRANCH  10  15
HETATM   15  N4  UNL     1      44.274  -0.117  33.839  1.00  0.00    -0.337 N 
HETATM   16  C5  UNL     1      43.527  -0.416  32.667  1.00  0.00     0.316 C 
HETATM   17  O1  UNL     1      42.420   0.182  32.430  1.00  0.00    -0.247 OA
HETATM   18  N5  UNL     1      43.949  -1.371  31.708  1.00  0.00    -0.338 N 
ATOM     19  H5  UNL     1      44.824  -1.877  31.847  1.00  0.00     0.164 HD
ATOM     20  H4  UNL     1      45.154  -0.601  34.017  1.00  0.00     0.164 HD
BRANCH  18  21
HETATM   21  C6  UNL     1      43.156  -1.628  30.552  1.00  0.00     0.090 C 
HETATM   22  C7  UNL     1      43.959  -1.913  29.304  1.00  0.00     0.030 C 
HETATM   23  C8  UNL     1      43.078  -2.822  28.440  1.00  0.00    -0.012 C 
HETATM   24  C9  UNL     1      43.686  -4.229  28.367  1.00  0.00     0.005 C 
HETATM   25  C13 UNL     1      41.784  -2.986  29.236  1.00  0.00     0.011 C 
HETATM   26  C10 UNL     1      43.346  -4.981  29.629  1.00  0.00     0.001 C 
HETATM   27  C11 UNL     1      43.321  -4.046  30.838  1.00  0.00     0.007 C 
HETATM   28  C12 UNL     1      42.344  -2.925  30.663  1.00  0.00     0.009 C 
ENDBRANCH  18  21
ENDBRANCH  10  15
TORSDOF 2
ENDMDL
MODEL 5
REMARK VINA RESULT: -6.501157279      0.871      1.283
REMARK  2 active torsions:
REMARK  status: ('A' for Active; 'I' for Inactive)
REMARK       I    between atoms: N1_2  and  C2_4 
REMARK       I    between atoms: C2_4  and  N3_8 
REMARK    1  A    between atoms: C4_10  and  N4_11 
REMARK       I    between atoms: N4_11  and  C5_13 
REMARK       I    between atoms: C5_13  and  N5_15 
REMARK    2  A    between atoms: N5_15  and  C6_17 
ROOT
HETATM    1  C1  UNL     1      44.482  -2.750  26.546  1.00  0.00     0.165 C 
HETATM    2  N1  UNL     1      43.718  -2.011  27.507  1.00  0.00    -0.231 N 
ATOM      3  H1  UNL     1      42.739  -1.816  27.300  1.00  0.00     0.177 HD
HETATM    4  C2  UNL     1      44.255  -1.535  28.735  1.00  0.00     0.670 C 
HETATM    5  N2  UNL     1      45.282  -0.763  28.680  1.00  0.00    -0.235 N 
ATOM      6  H21 UNL     1      45.666  -0.422  29.560  1.00  0.00     0.174 HD
ATOM      7  H22 UNL     1      45.690  -0.503  27.782  1.00  0.00     0.174 HD
HETATM    8  N3  UNL     1      43.680  -1.900  29.998  1.00  0.00    -0.208 N 
HETATM    9  C3  UNL     1      43.800  -1.117  31.214  1.00  0.00     0.167 C 
HETATM   10  C4  UNL     1      42.597  -1.543  31.985  1.00  0.00     0.107 C 
HETATM   11  C14 UNL     1      42.638  -3.063  31.772  1.00  0.00     0.057 C 
HETATM   12  C15 UNL     1      42.897  -3.094  30.259  1.00  0.00     0.044 C 
HETATM   13  C16 UNL     1      41.521  -3.003  29.613  1.00  0.00     0.039 C 
HETATM   14  C17 UNL     1      43.577  -4.352  29.832  1.00  0.00     0.039 C 
ENDROOT
BRANCH  10  15
HETATM   15  N4  UNL     1      42.589  -1.189  33.355  1.00  0.00    -0.337 N 
HETATM   16  C5  UNL     1      43.282  -0.030  33.797  1.00  0.00     0.316 C 
HETATM   17  O1  UNL     1      43.920   0.705  32.966  1.00  0.00    -0.247 OA
HETATM   18  N5  UNL     1      43.311   0.379  35.155  1.00  0.00    -0.338 N 
ATOM     19  H5  UNL     1      42.819  -0.170  35.861  1.00  0.00     0.164 HD
ATOM     20  H4  UNL     1      42.085  -1.766  34.027  1.00  0.00     0.164 HD
BRANCH  18  21
HETATM   21  C6  UNL     1      44.024   1.551  35.538  1.00  0.00     0.090 C 
HETATM   22  C7  UNL     1      43.174   2.799  35.598  1.00  0.00     0.030 C 
HETATM   23  C8  UNL     1      43.832   3.701  36.647  1.00  0.00    -0.012 C 
HETATM   24  C9  UNL     1      42.932   3.814  37.885  1.00  0.00     0.005 C 
HETATM   25  C13 UNL     1      45.063   2.927  37.116  1.00  0.00     0.011 C 
HETATM   26  C10 UNL     1      43.105   2.581  38.736  1.00  0.00     0.001 C 
HETATM   27  C11 UNL     1      43.338   1.342  37.871  1.00  0.00     0.007 C 
HETATM   28  C12 UNL     1      44.535   1.492  36.984  1.00  0.00     0.009 C 
ENDBRANCH  18  21
ENDBRANCH  10  15
TORSDOF 2
ENDMDL
