MODEL 1
REMARK VINA RESULT: -7.270798486      0.000      0.000
REMARK  3 active torsions:
REMARK  status: ('A' for Active; 'I' for Inactive)
REMARK    1  A    between atoms: C6_6  and  N1_7 
REMARK       I    between atoms: N1_7  and  C7_9 
REMARK       I    between atoms: N3_11  and  C8_13 
REMARK       I    between atoms: C8_13  and  N6_24 
REMARK       I    between atoms: N4_14  and  C9_16 
REMARK       I    between atoms: C9_16  and  N5_18 
REMARK    2  A    between atoms: N5_18  and  C10_20 
REMARK    3  A    between atoms: N6_24  and  C14_26 
ROOT
HETATM    1  N1  UNL     1      43.562  -6.250  30.875  1.00  0.00    -0.359 N 
ATOM      2  H1  UNL     1      43.381  -5.876  31.806  1.00  0.00     0.162 HD
HETATM    3  C7  UNL     1      42.910  -5.693  29.742  1.00  0.00     0.203 C 
HETATM    4  N2  UNL     1      41.828  -6.426  29.185  1.00  0.00    -0.063 NA
HETATM    5  N3  UNL     1      43.330  -4.578  29.300  1.00  0.00    -0.164 N 
ATOM      6  H3  UNL     1      44.116  -4.165  29.802  1.00  0.00     0.187 HD
HETATM    7  C8  UNL     1      42.848  -3.850  28.211  1.00  0.00     0.684 C 
HETATM    8  N4  UNL     1      42.121  -2.803  28.348  1.00  0.00    -0.141 N 
ATOM      9  H4  UNL     1      41.791  -2.305  27.521  1.00  0.00     0.189 HD
HETATM   10  C9  UNL     1      41.771  -2.332  29.640  1.00  0.00     0.335 C 
HETATM   11  O1  UNL     1      40.531  -2.096  29.818  1.00  0.00    -0.246 OA
HETATM   12  N5  UNL     1      42.706  -2.119  30.692  1.00  0.00    -0.334 N 
ATOM     13  H5  UNL     1      43.697  -2.310  30.547  1.00  0.00     0.165 HD
HETATM   14  N6  UNL     1      43.206  -4.321  26.902  1.00  0.00    -0.222 N 
ATOM     15  H6  UNL     1      42.671  -5.080  26.479  1.00  0.00     0.178 HD
ENDROOT
BRANCH  14  16
HETATM   16  C14 UNL     1      44.314  -3.735  26.170  1.00  0.00     0.091 C 
HETATM   17  C15 UNL     1      44.431  -2.275  26.463  1.00  0.00     0.032 C 
HETATM   18  C16 UNL     1      44.141  -3.904  24.675  1.00  0.00     0.032 C 
ENDBRANCH  14  16
BRANCH   1  19
HETATM   19  C6  UNL     1      44.487  -7.358  30.699  1.00  0.00     0.084 C 
HETATM   20  C5  UNL     1      43.808  -8.619  31.098  1.00  0.00     0.025 C 
HETATM   21  C4  UNL     1      44.759  -9.749  31.415  1.00  0.00     0.002 C 
HETATM   22  C3  UNL     1      46.187  -9.396  31.145  1.00  0.00     0.004 C 
HETATM   23  C2  UNL     1      46.537  -8.164  31.941  1.00  0.00    -0.017 C 
HETATM   24  C1  UNL     1      46.374  -8.384  33.421  1.00  0.00     0.010 C 
HETATM   25  C17 UNL     1      45.731  -7.014  31.453  1.00  0.00     0.029 C 
ENDBRANCH   1  19
BRANCH  12  26
HETATM   26  C10 UNL     1      42.240  -1.635  31.961  1.00  0.00     0.023 C 
HETATM   27  C11 UNL     1      43.355  -0.826  32.606  1.00  0.00     0.037 C 
HETATM   28  C12 UNL     1      41.828  -2.826  32.790  1.00  0.00     0.037 C 
HETATM   29  C13 UNL     1      41.086  -0.678  31.735  1.00  0.00     0.037 C 
ENDBRANCH  12  26
TORSDOF 3
ENDMDL
MODEL 2
REMARK VINA RESULT: -6.901996575      4.322      6.320
REMARK  3 active torsions:
REMARK  status: ('A' for Active; 'I' for Inactive)
REMARK    1  A    between atoms: C6_6  and  N1_7 
REMARK       I    between atoms: N1_7  and  C7_9 
REMARK       I    between atoms: N3_11  and  C8_13 
REMARK       I    between atoms: C8_13  and  N6_24 
REMARK       I    between atoms: N4_14  and  C9_16 
REMARK       I    between atoms: C9_16  and  N5_18 
REMARK    2  A    between atoms: N5_18  and  C10_20 
REMARK    3  A    between atoms: N6_24  and  C14_26 
ROOT
HETATM    1  N1  UNL     1      39.256  -2.338  30.629  1.00  0.00    -0.359 N 
ATOM      2  H1  UNL     1      38.992  -2.588  31.582  1.00  0.00     0.162 HD
HETATM    3  C7  UNL     1      40.319  -1.424  30.398  1.00  0.00     0.203 C 
HETATM    4  N2  UNL     1      39.971  -0.098  30.023  1.00  0.00    -0.063 NA
HETATM    5  N3  UNL     1      41.509  -1.844  30.543  1.00  0.00    -0.164 N 
ATOM      6  H3  UNL     1      41.609  -2.822  30.819  1.00  0.00     0.187 HD
HETATM    7  C8  UNL     1      42.698  -1.132  30.372  1.00  0.00     0.684 C 
HETATM    8  N4  UNL     1      43.398  -0.711  31.359  1.00  0.00    -0.141 N 
ATOM      9  H4  UNL     1      44.260  -0.193  31.184  1.00  0.00     0.189 HD
HETATM   10  C9  UNL     1      42.987  -0.959  32.695  1.00  0.00     0.335 C 
HETATM   11  O1  UNL     1      42.970   0.061  33.460  1.00  0.00    -0.246 OA
HETATM   12  N5  UNL     1      42.612  -2.240  33.189  1.00  0.00    -0.334 N 
ATOM     13  H5  UNL     1      42.626  -3.053  32.575  1.00  0.00     0.165 HD
HETATM   14  N6  UNL     1      43.121  -0.884  29.022  1.00  0.00    -0.222 N 
ATOM     15  H6  UNL     1      42.717  -0.103  28.506  1.00  0.00     0.178 HD
ENDROOT
BRANCH  14  16
HETATM   16  C14 UNL     1      44.113  -1.727  28.380  1.00  0.00     0.091 C 
HETATM   17  C15 UNL     1      44.818  -0.984  27.293  1.00  0.00     0.032 C 
HETATM   18  C16 UNL     1      43.481  -2.962  27.773  1.00  0.00     0.032 C 
ENDBRANCH  14  16
BRANCH   1  19
HETATM   19  C6  UNL     1      38.545  -2.914  29.499  1.00  0.00     0.084 C 
HETATM   20  C5  UNL     1      37.245  -2.211  29.341  1.00  0.00     0.025 C 
HETATM   21  C4  UNL     1      36.226  -2.988  28.540  1.00  0.00     0.002 C 
HETATM   22  C3  UNL     1      36.781  -4.255  27.972  1.00  0.00     0.004 C 
HETATM   23  C2  UNL     1      37.323  -5.092  29.102  1.00  0.00    -0.017 C 
HETATM   24  C1  UNL     1      36.257  -5.448  30.102  1.00  0.00     0.010 C 
HETATM   25  C17 UNL     1      38.471  -4.388  29.733  1.00  0.00     0.029 C 
ENDBRANCH   1  19
BRANCH  12  26
HETATM   26  C10 UNL     1      42.215  -2.376  34.562  1.00  0.00     0.023 C 
HETATM   27  C11 UNL     1      40.758  -1.958  34.685  1.00  0.00     0.037 C 
HETATM   28  C12 UNL     1      43.139  -1.530  35.401  1.00  0.00     0.037 C 
HETATM   29  C13 UNL     1      42.279  -3.840  34.954  1.00  0.00     0.037 C 
ENDBRANCH  12  26
TORSDOF 3
ENDMDL
MODEL 3
REMARK VINA RESULT: -6.494082769      1.373      1.855
REMARK  3 active torsions:
REMARK  status: ('A' for Active; 'I' for Inactive)
REMARK    1  A    between atoms: C6_6  and  N1_7 
REMARK       I    between atoms: N1_7  and  C7_9 
REMARK       I    between atoms: N3_11  and  C8_13 
REMARK       I    between atoms: C8_13  and  N6_24 
REMARK       I    between atoms: N4_14  and  C9_16 
REMARK       I    between atoms: C9_16  and  N5_18 
REMARK    2  A    between atoms: N5_18  and  C10_20 
REMARK    3  A    between atoms: N6_24  and  C14_26 
ROOT
HETATM    1  N1  UNL     1      42.860  -5.356  31.261  1.00  0.00    -0.359 N 
ATOM      2  H1  UNL     1      42.764  -5.138  32.253  1.00  0.00     0.162 HD
HETATM    3  C7  UNL     1      42.420  -4.426  30.280  1.00  0.00     0.203 C 
HETATM    4  N2  UNL     1      41.193  -4.705  29.621  1.00  0.00    -0.063 NA
HETATM    5  N3  UNL     1      43.145  -3.407  30.056  1.00  0.00    -0.164 N 
ATOM      6  H3  UNL     1      44.001  -3.336  30.608  1.00  0.00     0.187 HD
HETATM    7  C8  UNL     1      42.914  -2.373  29.148  1.00  0.00     0.684 C 
HETATM    8  N4  UNL     1      42.502  -1.215  29.510  1.00  0.00    -0.141 N 
ATOM      9  H4  UNL     1      42.347  -0.491  28.808  1.00  0.00     0.189 HD
HETATM   10  C9  UNL     1      42.261  -0.931  30.879  1.00  0.00     0.335 C 
HETATM   11  O1  UNL     1      41.130  -0.401  31.137  1.00  0.00    -0.246 OA
HETATM   12  N5  UNL     1      43.188  -1.199  31.926  1.00  0.00    -0.334 N 
ATOM     13  H5  UNL     1      44.091  -1.623  31.717  1.00  0.00     0.165 HD
HETATM   14  N6  UNL     1      43.163  -2.656  27.761  1.00  0.00    -0.222 N 
ATOM     15  H6  UNL     1      42.451  -3.137  27.213  1.00  0.00     0.178 HD
ENDROOT
BRANCH  14  16
HETATM   16  C14 UNL     1      44.411  -2.267  27.128  1.00  0.00     0.091 C 
HETATM   17  C15 UNL     1      44.500  -0.782  27.001  1.00  0.00     0.032 C 
HETATM   18  C16 UNL     1      44.539  -2.867  25.744  1.00  0.00     0.032 C 
ENDBRANCH  14  16
BRANCH   1  19
HETATM   19  C6  UNL     1      43.447  -6.619  30.843  1.00  0.00     0.084 C 
HETATM   20  C5  UNL     1      42.668  -7.733  31.445  1.00  0.00     0.025 C 
HETATM   21  C4  UNL     1      43.416  -9.044  31.491  1.00  0.00     0.002 C 
HETATM   22  C3  UNL     1      44.746  -8.975  30.810  1.00  0.00     0.004 C 
HETATM   23  C2  UNL     1      45.557  -7.875  31.447  1.00  0.00    -0.017 C 
HETATM   24  C1  UNL     1      45.787  -8.122  32.914  1.00  0.00     0.010 C 
HETATM   25  C17 UNL     1      44.898  -6.566  31.195  1.00  0.00     0.029 C 
ENDBRANCH   1  19
BRANCH  12  26
HETATM   26  C10 UNL     1      42.840  -0.866  33.278  1.00  0.00     0.023 C 
HETATM   27  C11 UNL     1      41.400  -0.378  33.299  1.00  0.00     0.037 C 
HETATM   28  C12 UNL     1      43.817   0.173  33.767  1.00  0.00     0.037 C 
HETATM   29  C13 UNL     1      42.882  -2.123  34.125  1.00  0.00     0.037 C 
ENDBRANCH  12  26
TORSDOF 3
ENDMDL
MODEL 4
REMARK VINA RESULT: -6.303256974      1.006      1.605
REMARK  3 active torsions:
REMARK  status: ('A' for Active; 'I' for Inactive)
REMARK    1  A    between atoms: C6_6  and  N1_7 
REMARK       I    between atoms: N1_7  and  C7_9 
REMARK       I    between atoms: N3_11  and  C8_13 
REMARK       I    between atoms: C8_13  and  N6_24 
REMARK       I    between atoms: N4_14  and  C9_16 
REMARK       I    between atoms: C9_16  and  N5_18 
REMARK    2  A    between atoms: N5_18  and  C10_20 
REMARK    3  A    between atoms: N6_24  and  C14_26 
ROOT
HETATM    1  N1  UNL     1      43.290  -6.377  31.045  1.00  0.00    -0.359 N 
ATOM      2  H1  UNL     1      43.096  -6.221  32.034  1.00  0.00     0.162 HD
HETATM    3  C7  UNL     1      42.535  -5.694  30.053  1.00  0.00     0.203 C 
HETATM    4  N2  UNL     1      41.533  -6.434  29.370  1.00  0.00    -0.063 NA
HETATM    5  N3  UNL     1      42.798  -4.469  29.841  1.00  0.00    -0.164 N 
ATOM      6  H3  UNL     1      43.544  -4.066  30.409  1.00  0.00     0.187 HD
HETATM    7  C8  UNL     1      42.192  -3.607  28.925  1.00  0.00     0.684 C 
HETATM    8  N4  UNL     1      41.346  -2.711  29.277  1.00  0.00    -0.141 N 
ATOM      9  H4  UNL     1      40.929  -2.105  28.570  1.00  0.00     0.189 HD
HETATM   10  C9  UNL     1      40.985  -2.554  30.640  1.00  0.00     0.335 C 
HETATM   11  O1  UNL     1      39.732  -2.519  30.874  1.00  0.00    -0.246 OA
HETATM   12  N5  UNL     1      41.923  -2.436  31.705  1.00  0.00    -0.334 N 
ATOM     13  H5  UNL     1      42.924  -2.465  31.515  1.00  0.00     0.165 HD
HETATM   14  N6  UNL     1      42.559  -3.759  27.545  1.00  0.00    -0.222 N 
ATOM     15  H6  UNL     1      42.108  -4.482  26.983  1.00  0.00     0.178 HD
ENDROOT
BRANCH  14  16
HETATM   16  C14 UNL     1      43.561  -2.903  26.936  1.00  0.00     0.091 C 
HETATM   17  C15 UNL     1      44.448  -3.688  26.027  1.00  0.00     0.032 C 
HETATM   18  C16 UNL     1      44.428  -2.236  27.982  1.00  0.00     0.032 C 
ENDBRANCH  14  16
BRANCH   1  19
HETATM   19  C6  UNL     1      44.338  -7.299  30.642  1.00  0.00     0.084 C 
HETATM   20  C5  UNL     1      43.828  -8.690  30.764  1.00  0.00     0.025 C 
HETATM   21  C4  UNL     1      44.917  -9.735  30.838  1.00  0.00     0.002 C 
HETATM   22  C3  UNL     1      46.284  -9.158  30.651  1.00  0.00     0.004 C 
HETATM   23  C2  UNL     1      46.501  -8.087  31.689  1.00  0.00    -0.017 C 
HETATM   24  C1  UNL     1      46.402  -8.631  33.089  1.00  0.00     0.010 C 
HETATM   25  C17 UNL     1      45.549  -6.969  31.453  1.00  0.00     0.029 C 
ENDBRANCH   1  19
BRANCH  12  26
HETATM   26  C10 UNL     1      41.445  -2.277  33.050  1.00  0.00     0.023 C 
HETATM   27  C11 UNL     1      40.527  -3.445  33.376  1.00  0.00     0.037 C 
HETATM   28  C12 UNL     1      40.749  -0.942  33.141  1.00  0.00     0.037 C 
HETATM   29  C13 UNL     1      42.618  -2.369  34.007  1.00  0.00     0.037 C 
ENDBRANCH  12  26
TORSDOF 3
ENDMDL
MODEL 5
REMARK VINA RESULT: -6.205099468      5.359      8.469
REMARK  3 active torsions:
REMARK  status: ('A' for Active; 'I' for Inactive)
REMARK    1  A    between atoms: C6_6  and  N1_7 
REMARK       I    between atoms: N1_7  and  C7_9 
REMARK       I    between atoms: N3_11  and  C8_13 
REMARK       I    between atoms: C8_13  and  N6_24 
REMARK       I    between atoms: N4_14  and  C9_16 
REMARK       I    between atoms: C9_16  and  N5_18 
REMARK    2  A    between atoms: N5_18  and  C10_20 
REMARK    3  A    between atoms: N6_24  and  C14_26 
ROOT
HETATM    1  N1  UNL     1      43.289  -0.407  33.679  1.00  0.00    -0.359 N 
ATOM      2  H1  UNL     1      42.387  -0.117  34.056  1.00  0.00     0.162 HD
HETATM    3  C7  UNL     1      44.470   0.301  34.030  1.00  0.00     0.203 C 
HETATM    4  N2  UNL     1      45.012   1.187  33.060  1.00  0.00    -0.063 NA
HETATM    5  N3  UNL     1      44.966   0.102  35.182  1.00  0.00    -0.164 N 
ATOM      6  H3  UNL     1      44.468  -0.562  35.775  1.00  0.00     0.187 HD
HETATM    7  C8  UNL     1      46.108   0.681  35.737  1.00  0.00     0.684 C 
HETATM    8  N4  UNL     1      46.053   1.612  36.615  1.00  0.00    -0.141 N 
ATOM      9  H4  UNL     1      46.917   2.005  36.991  1.00  0.00     0.189 HD
HETATM   10  C9  UNL     1      44.802   2.102  37.071  1.00  0.00     0.335 C 
HETATM   11  O1  UNL     1      44.671   3.370  37.054  1.00  0.00    -0.246 OA
HETATM   12  N5  UNL     1      43.739   1.272  37.528  1.00  0.00    -0.334 N 
ATOM     13  H5  UNL     1      43.846   0.258  37.540  1.00  0.00     0.165 HD
HETATM   14  N6  UNL     1      47.377   0.184  35.282  1.00  0.00    -0.222 N 
ATOM     15  H6  UNL     1      47.768   0.535  34.408  1.00  0.00     0.178 HD
ENDROOT
BRANCH  14  16
HETATM   16  C14 UNL     1      48.112  -0.808  36.046  1.00  0.00     0.091 C 
HETATM   17  C15 UNL     1      48.755  -0.187  37.243  1.00  0.00     0.032 C 
HETATM   18  C16 UNL     1      49.198  -1.456  35.212  1.00  0.00     0.032 C 
ENDBRANCH  14  16
BRANCH   1  19
HETATM   19  C6  UNL     1      43.374  -1.546  32.780  1.00  0.00     0.084 C 
HETATM   20  C5  UNL     1      42.886  -1.135  31.437  1.00  0.00     0.025 C 
HETATM   21  C4  UNL     1      42.477  -2.294  30.557  1.00  0.00     0.002 C 
HETATM   22  C3  UNL     1      42.762  -3.623  31.181  1.00  0.00     0.004 C 
HETATM   23  C2  UNL     1      42.059  -3.690  32.513  1.00  0.00    -0.017 C 
HETATM   24  C1  UNL     1      40.569  -3.543  32.371  1.00  0.00     0.010 C 
HETATM   25  C17 UNL     1      42.639  -2.674  33.431  1.00  0.00     0.029 C 
ENDBRANCH   1  19
BRANCH  12  26
HETATM   26  C10 UNL     1      42.514   1.875  37.970  1.00  0.00     0.023 C 
HETATM   27  C11 UNL     1      41.776   0.878  38.849  1.00  0.00     0.037 C 
HETATM   28  C12 UNL     1      41.725   2.276  36.749  1.00  0.00     0.037 C 
HETATM   29  C13 UNL     1      42.837   3.068  38.849  1.00  0.00     0.037 C 
ENDBRANCH  12  26
TORSDOF 3
ENDMDL
