MODEL 1
REMARK VINA RESULT: -5.554644736      0.000      0.000
REMARK  8 active torsions:
REMARK  status: ('A' for Active; 'I' for Inactive)
REMARK    1  A    between atoms: C2_2  and  N1_4 
REMARK    2  A    between atoms: N1_4  and  C3_6 
REMARK    3  A    between atoms: C4_11  and  N4_12 
REMARK    4  A    between atoms: N4_12  and  C5_14 
REMARK    5  A    between atoms: C5_14  and  N5_16 
REMARK    6  A    between atoms: N5_16  and  C6_18 
REMARK    7  A    between atoms: C6_18  and  C7_19 
REMARK    8  A    between atoms: C7_19  and  O1_20 
ROOT
HETATM    1  N4  UNL     1      42.484  -5.148  27.938  1.00  0.00    -0.164 N 
ATOM      2  H4  UNL     1      42.547  -5.575  27.014  1.00  0.00     0.186 HD
ENDROOT
BRANCH   1   3
HETATM    3  C4  UNL     1      42.938  -3.954  28.147  1.00  0.00     0.714 A 
HETATM    4  N3  UNL     1      44.096  -3.453  27.695  1.00  0.00    -0.117 N 
HETATM    5  N2  UNL     1      44.213  -2.209  28.112  1.00  0.00    -0.117 N 
ATOM      6  H3  UNL     1      44.774  -3.952  27.121  1.00  0.00     0.206 HD
HETATM    7  C3  UNL     1      43.122  -1.914  28.837  1.00  0.00     0.712 A 
ATOM      8  H2  UNL     1      44.993  -1.582  27.919  1.00  0.00     0.206 HD
HETATM    9  N6  UNL     1      42.333  -2.994  28.859  1.00  0.00    -0.019 N 
ATOM     10  H6  UNL     1      41.434  -3.072  29.333  1.00  0.00     0.203 HD
BRANCH   7  11
HETATM   11  N1  UNL     1      42.874  -0.764  29.422  1.00  0.00    -0.184 N 
ATOM     12  H1  UNL     1      43.254   0.108  29.053  1.00  0.00     0.185 HD
BRANCH  11  13
HETATM   13  C2  UNL     1      42.060  -0.774  30.583  1.00  0.00     0.090 C 
HETATM   14  C1  UNL     1      40.632  -0.361  30.453  1.00  0.00     0.082 C 
HETATM   15  S1  UNL     1      42.595  -1.212  32.066  1.00  0.00    -0.065 SA
ENDBRANCH  11  13
ENDBRANCH   7  11
ENDBRANCH   1   3
BRANCH   1  16
HETATM   16  C5  UNL     1      41.900  -5.848  29.014  1.00  0.00     0.190 C 
HETATM   17  S2  UNL     1      42.991  -6.604  30.014  1.00  0.00    -0.040 SA
BRANCH  16  18
HETATM   18  N5  UNL     1      40.537  -5.910  29.234  1.00  0.00    -0.343 N 
ATOM     19  H5  UNL     1      40.024  -6.576  28.658  1.00  0.00     0.167 HD
BRANCH  18  20
HETATM   20  C6  UNL     1      39.766  -5.174  30.151  1.00  0.00     0.101 C 
BRANCH  20  21
HETATM   21  C7  UNL     1      38.913  -4.130  29.554  1.00  0.00     0.089 C 
HETATM   22  C8  UNL     1      38.269  -3.095  30.364  1.00  0.00     0.043 C 
HETATM   23  C9  UNL     1      37.238  -2.493  29.372  1.00  0.00     0.004 C 
HETATM   24  C10 UNL     1      36.975  -3.596  28.370  1.00  0.00     0.004 C 
HETATM   25  C11 UNL     1      37.657  -4.820  28.927  1.00  0.00     0.043 C 
BRANCH  21  26
HETATM   26  O1  UNL     1      39.589  -3.475  28.492  1.00  0.00    -0.384 OA
ATOM     27  H1  UNL     1      39.649  -4.041  27.731  1.00  0.00     0.211 HD
ENDBRANCH  21  26
ENDBRANCH  20  21
ENDBRANCH  18  20
ENDBRANCH  16  18
ENDBRANCH   1  16
TORSDOF 8
ENDMDL
MODEL 2
REMARK VINA RESULT: -5.468330503      2.572      4.642
REMARK  8 active torsions:
REMARK  status: ('A' for Active; 'I' for Inactive)
REMARK    1  A    between atoms: C2_2  and  N1_4 
REMARK    2  A    between atoms: N1_4  and  C3_6 
REMARK    3  A    between atoms: C4_11  and  N4_12 
REMARK    4  A    between atoms: N4_12  and  C5_14 
REMARK    5  A    between atoms: C5_14  and  N5_16 
REMARK    6  A    between atoms: N5_16  and  C6_18 
REMARK    7  A    between atoms: C6_18  and  C7_19 
REMARK    8  A    between atoms: C7_19  and  O1_20 
ROOT
HETATM    1  N4  UNL     1      40.246  -1.897  29.843  1.00  0.00    -0.164 N 
ATOM      2  H4  UNL     1      39.723  -1.066  30.121  1.00  0.00     0.186 HD
ENDROOT
BRANCH   1   3
HETATM    3  C4  UNL     1      41.477  -1.803  29.453  1.00  0.00     0.714 A 
HETATM    4  N3  UNL     1      42.333  -0.816  29.750  1.00  0.00    -0.117 N 
HETATM    5  N2  UNL     1      43.490  -1.067  29.172  1.00  0.00    -0.117 N 
ATOM      6  H3  UNL     1      42.124  -0.004  30.329  1.00  0.00     0.206 HD
HETATM    7  C3  UNL     1      43.371  -2.224  28.500  1.00  0.00     0.712 A 
ATOM      8  H2  UNL     1      44.326  -0.487  29.226  1.00  0.00     0.206 HD
HETATM    9  N6  UNL     1      42.125  -2.679  28.673  1.00  0.00    -0.019 N 
ATOM     10  H6  UNL     1      41.739  -3.537  28.282  1.00  0.00     0.203 HD
BRANCH   7  11
HETATM   11  N1  UNL     1      44.315  -2.805  27.796  1.00  0.00    -0.184 N 
ATOM     12  H1  UNL     1      45.029  -3.380  28.244  1.00  0.00     0.185 HD
BRANCH  11  13
HETATM   13  C2  UNL     1      44.310  -2.607  26.391  1.00  0.00     0.090 C 
HETATM   14  C1  UNL     1      44.428  -1.214  25.870  1.00  0.00     0.082 C 
HETATM   15  S1  UNL     1      44.183  -3.821  25.302  1.00  0.00    -0.065 SA
ENDBRANCH  11  13
ENDBRANCH   7  11
ENDBRANCH   1   3
BRANCH   1  16
HETATM   16  C5  UNL     1      39.642  -3.171  29.877  1.00  0.00     0.190 C 
HETATM   17  S2  UNL     1      38.213  -3.275  29.037  1.00  0.00    -0.040 SA
BRANCH  16  18
HETATM   18  N5  UNL     1      40.180  -4.253  30.547  1.00  0.00    -0.343 N 
ATOM     19  H5  UNL     1      40.553  -4.060  31.476  1.00  0.00     0.167 HD
BRANCH  18  20
HETATM   20  C6  UNL     1      40.280  -5.587  30.113  1.00  0.00     0.101 C 
BRANCH  20  21
HETATM   21  C7  UNL     1      41.655  -6.067  29.881  1.00  0.00     0.089 C 
HETATM   22  C8  UNL     1      42.075  -7.422  30.242  1.00  0.00     0.043 C 
HETATM   23  C9  UNL     1      43.622  -7.324  30.146  1.00  0.00     0.004 C 
HETATM   24  C10 UNL     1      43.930  -5.858  30.349  1.00  0.00     0.004 C 
HETATM   25  C11 UNL     1      42.628  -5.224  30.769  1.00  0.00     0.043 C 
BRANCH  21  26
HETATM   26  O1  UNL     1      42.043  -5.850  28.533  1.00  0.00    -0.384 OA
ATOM     27  H1  UNL     1      42.590  -5.077  28.461  1.00  0.00     0.211 HD
ENDBRANCH  21  26
ENDBRANCH  20  21
ENDBRANCH  18  20
ENDBRANCH  16  18
ENDBRANCH   1  16
TORSDOF 8
ENDMDL
MODEL 3
REMARK VINA RESULT: -5.395729667      2.127      3.206
REMARK  8 active torsions:
REMARK  status: ('A' for Active; 'I' for Inactive)
REMARK    1  A    between atoms: C2_2  and  N1_4 
REMARK    2  A    between atoms: N1_4  and  C3_6 
REMARK    3  A    between atoms: C4_11  and  N4_12 
REMARK    4  A    between atoms: N4_12  and  C5_14 
REMARK    5  A    between atoms: C5_14  and  N5_16 
REMARK    6  A    between atoms: N5_16  and  C6_18 
REMARK    7  A    between atoms: C6_18  and  C7_19 
REMARK    8  A    between atoms: C7_19  and  O1_20 
ROOT
HETATM    1  N4  UNL     1      44.349  -2.604  28.436  1.00  0.00    -0.164 N 
ATOM      2  H4  UNL     1      45.361  -2.592  28.565  1.00  0.00     0.186 HD
ENDROOT
BRANCH   1   3
HETATM    3  C4  UNL     1      43.576  -1.921  29.218  1.00  0.00     0.714 A 
HETATM    4  N3  UNL     1      43.861  -1.514  30.462  1.00  0.00    -0.117 N 
HETATM    5  N2  UNL     1      42.830  -0.849  30.940  1.00  0.00    -0.117 N 
ATOM      6  H3  UNL     1      44.734  -1.691  30.958  1.00  0.00     0.206 HD
HETATM    7  C3  UNL     1      41.878  -0.831  29.993  1.00  0.00     0.712 A 
ATOM      8  H2  UNL     1      42.766  -0.423  31.864  1.00  0.00     0.206 HD
HETATM    9  N6  UNL     1      42.339  -1.495  28.928  1.00  0.00    -0.019 N 
ATOM     10  H6  UNL     1      41.839  -1.650  28.053  1.00  0.00     0.203 HD
BRANCH   7  11
HETATM   11  N1  UNL     1      40.700  -0.260  30.097  1.00  0.00    -0.184 N 
ATOM     12  H1  UNL     1      40.505   0.633  29.644  1.00  0.00     0.185 HD
BRANCH  11  13
HETATM   13  C2  UNL     1      39.706  -0.926  30.859  1.00  0.00     0.090 C 
HETATM   14  C1  UNL     1      38.595  -1.610  30.134  1.00  0.00     0.082 C 
HETATM   15  S1  UNL     1      39.703  -0.991  32.493  1.00  0.00    -0.065 SA
ENDBRANCH  11  13
ENDBRANCH   7  11
ENDBRANCH   1   3
BRANCH   1  16
HETATM   16  C5  UNL     1      43.765  -3.364  27.402  1.00  0.00     0.190 C 
HETATM   17  S2  UNL     1      44.282  -2.959  25.876  1.00  0.00    -0.040 SA
BRANCH  16  18
HETATM   18  N5  UNL     1      42.838  -4.365  27.621  1.00  0.00    -0.343 N 
ATOM     19  H5  UNL     1      42.165  -4.520  26.871  1.00  0.00     0.167 HD
BRANCH  18  20
HETATM   20  C6  UNL     1      42.704  -5.200  28.746  1.00  0.00     0.101 C 
BRANCH  20  21
HETATM   21  C7  UNL     1      41.514  -4.940  29.577  1.00  0.00     0.089 C 
HETATM   22  C8  UNL     1      41.620  -4.512  30.973  1.00  0.00     0.043 C 
HETATM   23  C9  UNL     1      40.173  -4.720  31.493  1.00  0.00     0.004 C 
HETATM   24  C10 UNL     1      39.583  -5.775  30.584  1.00  0.00     0.004 C 
HETATM   25  C11 UNL     1      40.733  -6.284  29.753  1.00  0.00     0.043 C 
BRANCH  21  26
HETATM   26  O1  UNL     1      40.632  -4.040  28.925  1.00  0.00    -0.384 OA
ATOM     27  H1  UNL     1      40.799  -3.147  29.200  1.00  0.00     0.211 HD
ENDBRANCH  21  26
ENDBRANCH  20  21
ENDBRANCH  18  20
ENDBRANCH  16  18
ENDBRANCH   1  16
TORSDOF 8
ENDMDL
MODEL 4
REMARK VINA RESULT: -5.377232282      2.617      4.199
REMARK  8 active torsions:
REMARK  status: ('A' for Active; 'I' for Inactive)
REMARK    1  A    between atoms: C2_2  and  N1_4 
REMARK    2  A    between atoms: N1_4  and  C3_6 
REMARK    3  A    between atoms: C4_11  and  N4_12 
REMARK    4  A    between atoms: N4_12  and  C5_14 
REMARK    5  A    between atoms: C5_14  and  N5_16 
REMARK    6  A    between atoms: N5_16  and  C6_18 
REMARK    7  A    between atoms: C6_18  and  C7_19 
REMARK    8  A    between atoms: C7_19  and  O1_20 
ROOT
HETATM    1  N4  UNL     1      44.583  -1.239  28.821  1.00  0.00    -0.164 N 
ATOM      2  H4  UNL     1      45.419  -0.658  28.881  1.00  0.00     0.186 HD
ENDROOT
BRANCH   1   3
HETATM    3  C4  UNL     1      43.658  -1.162  29.724  1.00  0.00     0.714 A 
HETATM    4  N3  UNL     1      43.752  -1.571  30.996  1.00  0.00    -0.117 N 
HETATM    5  N2  UNL     1      42.611  -1.329  31.607  1.00  0.00    -0.117 N 
ATOM      6  H3  UNL     1      44.574  -2.000  31.422  1.00  0.00     0.206 HD
HETATM    7  C3  UNL     1      41.782  -0.760  30.718  1.00  0.00     0.712 A 
ATOM      8  H2  UNL     1      42.396  -1.537  32.582  1.00  0.00     0.206 HD
HETATM    9  N6  UNL     1      42.429  -0.657  29.552  1.00  0.00    -0.019 N 
ATOM     10  H6  UNL     1      42.054  -0.266  28.689  1.00  0.00     0.203 HD
BRANCH   7  11
HETATM   11  N1  UNL     1      40.548  -0.373  30.954  1.00  0.00    -0.184 N 
ATOM     12  H1  UNL     1      40.301   0.616  30.974  1.00  0.00     0.185 HD
BRANCH  11  13
HETATM   13  C2  UNL     1      39.571  -1.376  31.180  1.00  0.00     0.090 C 
HETATM   14  C1  UNL     1      38.681  -1.768  30.047  1.00  0.00     0.082 C 
HETATM   15  S1  UNL     1      39.359  -2.134  32.614  1.00  0.00    -0.065 SA
ENDBRANCH  11  13
ENDBRANCH   7  11
ENDBRANCH   1   3
BRANCH   1  16
HETATM   16  C5  UNL     1      44.411  -2.142  27.752  1.00  0.00     0.190 C 
HETATM   17  S2  UNL     1      44.475  -1.444  26.246  1.00  0.00    -0.040 SA
BRANCH  16  18
HETATM   18  N5  UNL     1      44.204  -3.497  27.924  1.00  0.00    -0.343 N 
ATOM     19  H5  UNL     1      44.998  -4.026  28.283  1.00  0.00     0.167 HD
BRANCH  18  20
HETATM   20  C6  UNL     1      43.038  -4.242  27.668  1.00  0.00     0.101 C 
BRANCH  20  21
HETATM   21  C7  UNL     1      42.421  -4.863  28.854  1.00  0.00     0.089 C 
HETATM   22  C8  UNL     1      41.394  -4.180  29.643  1.00  0.00     0.043 C 
HETATM   23  C9  UNL     1      41.335  -5.046  30.929  1.00  0.00     0.004 C 
HETATM   24  C10 UNL     1      42.690  -5.712  31.010  1.00  0.00     0.004 C 
HETATM   25  C11 UNL     1      43.528  -5.057  29.942  1.00  0.00     0.043 C 
BRANCH  21  26
HETATM   26  O1  UNL     1      41.925  -6.156  28.544  1.00  0.00    -0.384 OA
ATOM     27  H1  UNL     1      41.531  -6.558  29.309  1.00  0.00     0.211 HD
ENDBRANCH  21  26
ENDBRANCH  20  21
ENDBRANCH  18  20
ENDBRANCH  16  18
ENDBRANCH   1  16
TORSDOF 8
ENDMDL
MODEL 5
REMARK VINA RESULT: -5.370570224      3.070      4.309
REMARK  8 active torsions:
REMARK  status: ('A' for Active; 'I' for Inactive)
REMARK    1  A    between atoms: C2_2  and  N1_4 
REMARK    2  A    between atoms: N1_4  and  C3_6 
REMARK    3  A    between atoms: C4_11  and  N4_12 
REMARK    4  A    between atoms: N4_12  and  C5_14 
REMARK    5  A    between atoms: C5_14  and  N5_16 
REMARK    6  A    between atoms: N5_16  and  C6_18 
REMARK    7  A    between atoms: C6_18  and  C7_19 
REMARK    8  A    between atoms: C7_19  and  O1_20 
ROOT
HETATM    1  N4  UNL     1      44.663  -1.206  28.568  1.00  0.00    -0.164 N 
ATOM      2  H4  UNL     1      45.467  -0.579  28.546  1.00  0.00     0.186 HD
ENDROOT
BRANCH   1   3
HETATM    3  C4  UNL     1      43.807  -1.148  29.538  1.00  0.00     0.714 A 
HETATM    4  N3  UNL     1      42.534  -0.739  29.452  1.00  0.00    -0.117 N 
HETATM    5  N2  UNL     1      41.979  -0.819  30.644  1.00  0.00    -0.117 N 
ATOM      6  H3  UNL     1      42.070  -0.418  28.603  1.00  0.00     0.206 HD
HETATM    7  C3  UNL     1      42.906  -1.283  31.498  1.00  0.00     0.712 A 
ATOM      8  H2  UNL     1      41.018  -0.573  30.877  1.00  0.00     0.206 HD
HETATM    9  N6  UNL     1      44.037  -1.486  30.814  1.00  0.00    -0.019 N 
ATOM     10  H6  UNL     1      44.916  -1.835  31.195  1.00  0.00     0.203 HD
BRANCH   7  11
HETATM   11  N1  UNL     1      42.730  -1.499  32.782  1.00  0.00    -0.184 N 
ATOM     12  H1  UNL     1      42.515  -2.431  33.135  1.00  0.00     0.185 HD
BRANCH  11  13
HETATM   13  C2  UNL     1      42.850  -0.393  33.662  1.00  0.00     0.090 C 
HETATM   14  C1  UNL     1      41.651   0.021  34.449  1.00  0.00     0.082 C 
HETATM   15  S1  UNL     1      44.230   0.461  33.868  1.00  0.00    -0.065 SA
ENDBRANCH  11  13
ENDBRANCH   7  11
ENDBRANCH   1   3
BRANCH   1  16
HETATM   16  C5  UNL     1      44.461  -2.154  27.544  1.00  0.00     0.190 C 
HETATM   17  S2  UNL     1      44.567  -1.536  26.006  1.00  0.00    -0.040 SA
BRANCH  16  18
HETATM   18  N5  UNL     1      44.196  -3.489  27.781  1.00  0.00    -0.343 N 
ATOM     19  H5  UNL     1      44.978  -4.043  28.131  1.00  0.00     0.167 HD
BRANCH  18  20
HETATM   20  C6  UNL     1      42.986  -4.184  27.603  1.00  0.00     0.101 C 
BRANCH  20  21
HETATM   21  C7  UNL     1      42.428  -4.790  28.825  1.00  0.00     0.089 C 
HETATM   22  C8  UNL     1      41.394  -4.124  29.620  1.00  0.00     0.043 C 
HETATM   23  C9  UNL     1      41.406  -4.948  30.935  1.00  0.00     0.004 C 
HETATM   24  C10 UNL     1      42.790  -5.554  30.999  1.00  0.00     0.004 C 
HETATM   25  C11 UNL     1      43.571  -4.901  29.887  1.00  0.00     0.043 C 
BRANCH  21  26
HETATM   26  O1  UNL     1      41.978  -6.112  28.572  1.00  0.00    -0.384 OA
ATOM     27  H1  UNL     1      42.714  -6.696  28.429  1.00  0.00     0.211 HD
ENDBRANCH  21  26
ENDBRANCH  20  21
ENDBRANCH  18  20
ENDBRANCH  16  18
ENDBRANCH   1  16
TORSDOF 8
ENDMDL
