MODEL 1
REMARK VINA RESULT: -5.919469287      0.000      0.000
REMARK  4 active torsions:
REMARK  status: ('A' for Active; 'I' for Inactive)
REMARK    1  A    between atoms: C2_2  and  N1_4 
REMARK    2  A    between atoms: N1_4  and  C3_6 
REMARK    3  A    between atoms: C9_17  and  N5_18 
REMARK    4  A    between atoms: C11_22  and  C12_23 
ROOT
HETATM    1  C3  UNL     1      43.054  -3.624  31.741  1.00  0.00     0.107 C 
HETATM    2  C4  UNL     1      42.456  -2.283  31.429  1.00  0.00     0.148 C 
HETATM    3  N2  UNL     1      42.289  -2.265  30.012  1.00  0.00    -0.380 N 
HETATM    4  C5  UNL     1      42.888  -1.196  29.329  1.00  0.00     0.064 C 
HETATM    5  C6  UNL     1      43.980  -1.552  28.366  1.00  0.00     0.089 C 
HETATM    6  C7  UNL     1      43.707  -2.787  27.621  1.00  0.00     0.018 A 
HETATM    7  C8  UNL     1      42.897  -3.736  28.160  1.00  0.00     0.059 A 
HETATM    8  N3  UNL     1      42.830  -4.730  27.272  1.00  0.00    -0.300 N 
ATOM      9  H3  UNL     1      42.294  -5.590  27.395  1.00  0.00     0.186 HD
HETATM   10  N4  UNL     1      43.569  -4.434  26.201  1.00  0.00    -0.285 N 
ATOM     11  H4  UNL     1      43.683  -5.031  25.381  1.00  0.00     0.188 HD
HETATM   12  C9  UNL     1      44.144  -3.219  26.370  1.00  0.00     0.122 A 
HETATM   13  C10 UNL     1      42.284  -3.549  29.485  1.00  0.00     0.142 C 
HETATM   14  C11 UNL     1      42.808  -4.479  30.525  1.00  0.00     0.049 C 
ENDROOT
BRANCH   1  15
HETATM   15  N1  UNL     1      42.595  -4.205  32.963  1.00  0.00    -0.378 N 
ATOM     16  H1  UNL     1      43.090  -3.927  33.811  1.00  0.00     0.160 HD
BRANCH  15  17
HETATM   17  C2  UNL     1      41.539  -5.117  33.129  1.00  0.00     0.069 C 
HETATM   18  C1  UNL     1      41.849  -6.518  33.493  1.00  0.00     0.081 C 
HETATM   19  S1  UNL     1      39.984  -4.711  32.935  1.00  0.00    -0.066 SA
ENDBRANCH  15  17
ENDBRANCH   1  15
BRANCH  14  20
HETATM   20  C12 UNL     1      44.098  -5.162  30.129  1.00  0.00     0.094 C 
HETATM   21 BR1  UNL     1      43.747  -7.084  30.244  1.00  0.00    -0.096 Br
ENDBRANCH  14  20
BRANCH  12  22
HETATM   22  N5  UNL     1      44.925  -2.587  25.563  1.00  0.00    -0.384 N 
ATOM     23  H52 UNL     1      45.922  -2.395  25.669  1.00  0.00     0.157 HD
ATOM     24  H51 UNL     1      44.670  -2.167  24.669  1.00  0.00     0.157 HD
ENDBRANCH  12  22
TORSDOF 4
ENDMDL
MODEL 2
REMARK VINA RESULT: -5.866029580      2.314      3.197
REMARK  4 active torsions:
REMARK  status: ('A' for Active; 'I' for Inactive)
REMARK    1  A    between atoms: C2_2  and  N1_4 
REMARK    2  A    between atoms: N1_4  and  C3_6 
REMARK    3  A    between atoms: C9_17  and  N5_18 
REMARK    4  A    between atoms: C11_22  and  C12_23 
ROOT
HETATM    1  C3  UNL     1      41.628  -3.062  31.512  1.00  0.00     0.107 C 
HETATM    2  C4  UNL     1      42.716  -4.096  31.535  1.00  0.00     0.148 C 
HETATM    3  N2  UNL     1      43.673  -3.659  30.571  1.00  0.00    -0.380 N 
HETATM    4  C5  UNL     1      44.005  -4.578  29.566  1.00  0.00     0.064 C 
HETATM    5  C6  UNL     1      43.643  -4.188  28.164  1.00  0.00     0.089 C 
HETATM    6  C7  UNL     1      43.849  -2.759  27.896  1.00  0.00     0.018 A 
HETATM    7  C8  UNL     1      43.796  -1.866  28.918  1.00  0.00     0.059 A 
HETATM    8  N3  UNL     1      44.017  -0.662  28.386  1.00  0.00    -0.300 N 
ATOM      9  H3  UNL     1      44.039   0.215  28.908  1.00  0.00     0.186 HD
HETATM   10  N4  UNL     1      44.205  -0.774  27.070  1.00  0.00    -0.285 N 
ATOM     11  H4  UNL     1      44.393   0.001  26.433  1.00  0.00     0.188 HD
HETATM   12  C9  UNL     1      44.108  -2.077  26.709  1.00  0.00     0.122 A 
HETATM   13  C10 UNL     1      43.536  -2.305  30.298  1.00  0.00     0.142 C 
HETATM   14  C11 UNL     1      42.220  -1.854  30.834  1.00  0.00     0.049 C 
ENDROOT
BRANCH   1  15
HETATM   15  N1  UNL     1      41.047  -2.787  32.788  1.00  0.00    -0.378 N 
ATOM     16  H1  UNL     1      40.299  -3.412  33.090  1.00  0.00     0.160 HD
BRANCH  15  17
HETATM   17  C2  UNL     1      41.390  -1.751  33.675  1.00  0.00     0.069 C 
HETATM   18  C1  UNL     1      42.587  -1.905  34.531  1.00  0.00     0.081 C 
HETATM   19  S1  UNL     1      40.529  -0.387  33.813  1.00  0.00    -0.066 SA
ENDBRANCH  15  17
ENDBRANCH   1  15
BRANCH  14  20
HETATM   20  C12 UNL     1      41.269  -1.368  29.764  1.00  0.00     0.094 C 
HETATM   21 BR1  UNL     1      40.139  -2.900  29.310  1.00  0.00    -0.096 Br
ENDBRANCH  14  20
BRANCH  12  22
HETATM   22  N5  UNL     1      44.228  -2.589  25.533  1.00  0.00    -0.384 N 
ATOM     23  H52 UNL     1      44.343  -3.572  25.280  1.00  0.00     0.157 HD
ATOM     24  H51 UNL     1      44.227  -2.089  24.644  1.00  0.00     0.157 HD
ENDBRANCH  12  22
TORSDOF 4
ENDMDL
MODEL 3
REMARK VINA RESULT: -5.857036223      0.833      1.020
REMARK  4 active torsions:
REMARK  status: ('A' for Active; 'I' for Inactive)
REMARK    1  A    between atoms: C2_2  and  N1_4 
REMARK    2  A    between atoms: N1_4  and  C3_6 
REMARK    3  A    between atoms: C9_17  and  N5_18 
REMARK    4  A    between atoms: C11_22  and  C12_23 
ROOT
HETATM    1  C3  UNL     1      43.102  -3.661  31.726  1.00  0.00     0.107 C 
HETATM    2  C4  UNL     1      42.521  -2.310  31.428  1.00  0.00     0.148 C 
HETATM    3  N2  UNL     1      42.351  -2.276  30.012  1.00  0.00    -0.380 N 
HETATM    4  C5  UNL     1      42.963  -1.208  29.339  1.00  0.00     0.064 C 
HETATM    5  C6  UNL     1      44.048  -1.568  28.369  1.00  0.00     0.089 C 
HETATM    6  C7  UNL     1      43.757  -2.792  27.613  1.00  0.00     0.018 A 
HETATM    7  C8  UNL     1      42.937  -3.736  28.144  1.00  0.00     0.059 A 
HETATM    8  N3  UNL     1      42.855  -4.721  27.247  1.00  0.00    -0.300 N 
ATOM      9  H3  UNL     1      42.308  -5.575  27.363  1.00  0.00     0.186 HD
HETATM   10  N4  UNL     1      43.596  -4.424  26.177  1.00  0.00    -0.285 N 
ATOM     11  H4  UNL     1      43.700  -5.014  25.351  1.00  0.00     0.188 HD
HETATM   12  C9  UNL     1      44.187  -3.218  26.357  1.00  0.00     0.122 A 
HETATM   13  C10 UNL     1      42.329  -3.554  29.472  1.00  0.00     0.142 C 
HETATM   14  C11 UNL     1      42.844  -4.501  30.502  1.00  0.00     0.049 C 
ENDROOT
BRANCH   1  15
HETATM   15  N1  UNL     1      42.639  -4.249  32.943  1.00  0.00    -0.378 N 
ATOM     16  H1  UNL     1      42.995  -5.179  33.162  1.00  0.00     0.160 HD
BRANCH  15  17
HETATM   17  C2  UNL     1      41.748  -3.688  33.875  1.00  0.00     0.069 C 
HETATM   18  C1  UNL     1      42.290  -2.898  35.003  1.00  0.00     0.081 C 
HETATM   19  S1  UNL     1      40.142  -3.870  33.779  1.00  0.00    -0.066 SA
ENDBRANCH  15  17
ENDBRANCH   1  15
BRANCH  14  20
HETATM   20  C12 UNL     1      44.123  -5.197  30.096  1.00  0.00     0.094 C 
HETATM   21 BR1  UNL     1      43.827  -7.104  30.424  1.00  0.00    -0.096 Br
ENDBRANCH  14  20
BRANCH  12  22
HETATM   22  N5  UNL     1      44.974  -2.588  25.555  1.00  0.00    -0.384 N 
ATOM     23  H52 UNL     1      45.601  -2.977  24.850  1.00  0.00     0.157 HD
ATOM     24  H51 UNL     1      45.100  -1.578  25.489  1.00  0.00     0.157 HD
ENDBRANCH  12  22
TORSDOF 4
ENDMDL
MODEL 4
REMARK VINA RESULT: -5.840014550      2.563      3.289
REMARK  4 active torsions:
REMARK  status: ('A' for Active; 'I' for Inactive)
REMARK    1  A    between atoms: C2_2  and  N1_4 
REMARK    2  A    between atoms: N1_4  and  C3_6 
REMARK    3  A    between atoms: C9_17  and  N5_18 
REMARK    4  A    between atoms: C11_22  and  C12_23 
ROOT
HETATM    1  C3  UNL     1      41.521  -3.675  31.002  1.00  0.00     0.107 C 
HETATM    2  C4  UNL     1      42.643  -4.665  30.882  1.00  0.00     0.148 C 
HETATM    3  N2  UNL     1      43.636  -4.015  30.089  1.00  0.00    -0.380 N 
HETATM    4  C5  UNL     1      44.058  -4.699  28.940  1.00  0.00     0.064 C 
HETATM    5  C6  UNL     1      43.762  -4.037  27.627  1.00  0.00     0.089 C 
HETATM    6  C7  UNL     1      43.930  -2.579  27.670  1.00  0.00     0.018 A 
HETATM    7  C8  UNL     1      43.787  -1.918  28.848  1.00  0.00     0.059 A 
HETATM    8  N3  UNL     1      43.993  -0.625  28.588  1.00  0.00    -0.300 N 
ATOM      9  H3  UNL     1      43.954   0.126  29.278  1.00  0.00     0.186 HD
HETATM   10  N4  UNL     1      44.259  -0.459  27.291  1.00  0.00    -0.285 N 
ATOM     11  H4  UNL     1      44.454   0.435  26.839  1.00  0.00     0.188 HD
HETATM   12  C9  UNL     1      44.231  -1.661  26.666  1.00  0.00     0.122 A 
HETATM   13  C10 UNL     1      43.466  -2.638  30.090  1.00  0.00     0.142 C 
HETATM   14  C11 UNL     1      42.106  -2.339  30.623  1.00  0.00     0.049 C 
ENDROOT
BRANCH   1  15
HETATM   15  N1  UNL     1      40.859  -3.682  32.268  1.00  0.00    -0.378 N 
ATOM     16  H1  UNL     1      41.447  -3.842  33.086  1.00  0.00     0.160 HD
BRANCH  15  17
HETATM   17  C2  UNL     1      39.488  -3.494  32.514  1.00  0.00     0.069 C 
HETATM   18  C1  UNL     1      38.509  -3.903  31.482  1.00  0.00     0.081 C 
HETATM   19  S1  UNL     1      38.919  -2.838  33.881  1.00  0.00    -0.066 SA
ENDBRANCH  15  17
ENDBRANCH   1  15
BRANCH  14  20
HETATM   20  C12 UNL     1      41.199  -1.666  29.618  1.00  0.00     0.094 C 
HETATM   21 BR1  UNL     1      40.240  -0.274  30.604  1.00  0.00    -0.096 Br
ENDBRANCH  14  20
BRANCH  12  22
HETATM   22  N5  UNL     1      44.436  -1.917  25.420  1.00  0.00    -0.384 N 
ATOM     23  H52 UNL     1      44.799  -2.775  25.003  1.00  0.00     0.157 HD
ATOM     24  H51 UNL     1      44.263  -1.295  24.631  1.00  0.00     0.157 HD
ENDBRANCH  12  22
TORSDOF 4
ENDMDL
MODEL 5
REMARK VINA RESULT: -5.816618420      2.509      3.181
REMARK  4 active torsions:
REMARK  status: ('A' for Active; 'I' for Inactive)
REMARK    1  A    between atoms: C2_2  and  N1_4 
REMARK    2  A    between atoms: N1_4  and  C3_6 
REMARK    3  A    between atoms: C9_17  and  N5_18 
REMARK    4  A    between atoms: C11_22  and  C12_23 
ROOT
HETATM    1  C3  UNL     1      41.381  -3.909  30.945  1.00  0.00     0.107 C 
HETATM    2  C4  UNL     1      42.537  -4.861  30.840  1.00  0.00     0.148 C 
HETATM    3  N2  UNL     1      43.540  -4.159  30.106  1.00  0.00    -0.380 N 
HETATM    4  C5  UNL     1      44.026  -4.794  28.955  1.00  0.00     0.064 C 
HETATM    5  C6  UNL     1      43.761  -4.102  27.652  1.00  0.00     0.089 C 
HETATM    6  C7  UNL     1      43.883  -2.642  27.744  1.00  0.00     0.018 A 
HETATM    7  C8  UNL     1      43.675  -2.021  28.935  1.00  0.00     0.059 A 
HETATM    8  N3  UNL     1      43.851  -0.715  28.721  1.00  0.00    -0.300 N 
ATOM      9  H3  UNL     1      43.762   0.012  29.431  1.00  0.00     0.186 HD
HETATM   10  N4  UNL     1      44.162  -0.502  27.441  1.00  0.00    -0.285 N 
ATOM     11  H4  UNL     1      44.347   0.411  27.023  1.00  0.00     0.188 HD
HETATM   12  C9  UNL     1      44.194  -1.685  26.780  1.00  0.00     0.122 A 
HETATM   13  C10 UNL     1      43.328  -2.788  30.142  1.00  0.00     0.142 C 
HETATM   14  C11 UNL     1      41.940  -2.545  30.629  1.00  0.00     0.049 C 
ENDROOT
BRANCH   1  15
HETATM   15  N1  UNL     1      40.672  -3.974  32.183  1.00  0.00    -0.378 N 
ATOM     16  H1  UNL     1      39.910  -4.651  32.234  1.00  0.00     0.160 HD
BRANCH  15  17
HETATM   17  C2  UNL     1      40.905  -3.211  33.340  1.00  0.00     0.069 C 
HETATM   18  C1  UNL     1      42.157  -3.424  34.101  1.00  0.00     0.081 C 
HETATM   19  S1  UNL     1      39.861  -2.104  33.892  1.00  0.00    -0.066 SA
ENDBRANCH  15  17
ENDBRANCH   1  15
BRANCH  14  20
HETATM   20  C12 UNL     1      41.052  -1.868  29.609  1.00  0.00     0.094 C 
HETATM   21 BR1  UNL     1      40.266  -0.324  30.518  1.00  0.00    -0.096 Br
ENDBRANCH  14  20
BRANCH  12  22
HETATM   22  N5  UNL     1      44.454  -1.897  25.536  1.00  0.00    -0.384 N 
ATOM     23  H52 UNL     1      45.125  -1.411  24.940  1.00  0.00     0.157 HD
ATOM     24  H51 UNL     1      44.027  -2.599  24.932  1.00  0.00     0.157 HD
ENDBRANCH  12  22
TORSDOF 4
ENDMDL
