MODEL 1
REMARK VINA RESULT: -7.149956845      0.000      0.000
REMARK  5 active torsions:
REMARK  status: ('A' for Active; 'I' for Inactive)
REMARK       I    between atoms: C2_2  and  N1_4 
REMARK    1  A    between atoms: N1_4  and  C3_6 
REMARK    2  A    between atoms: C3_6  and  C4_7 
REMARK    3  A    between atoms: C3_6  and  C10_21 
REMARK       I    between atoms: C4_7  and  N2_9 
REMARK    4  A    between atoms: N2_9  and  N3_11 
REMARK       I    between atoms: N3_11  and  C5_13 
REMARK       I    between atoms: C5_13  and  N4_15 
REMARK    5  A    between atoms: N4_15  and  C6_17 
ROOT
HETATM    1  C4  UNL     1       7.624   5.797  23.239  1.00  0.00     0.263 C 
HETATM    2  O2  UNL     1       7.743   6.265  22.069  1.00  0.00    -0.269 OA
HETATM    3  N2  UNL     1       6.371   5.819  23.857  1.00  0.00    -0.264 N 
ATOM      4  H2  UNL     1       6.277   5.443  24.801  1.00  0.00     0.190 HD
ENDROOT
BRANCH   1   5
HETATM    5  C3  UNL     1       8.856   5.254  23.868  1.00  0.00     0.211 C 
BRANCH   5   6
HETATM    6  N1  UNL     1      10.040   5.741  23.214  1.00  0.00    -0.344 N 
HETATM    7  C2  UNL     1      10.695   6.946  23.560  1.00  0.00     0.214 C 
HETATM    8  C1  UNL     1      11.911   7.447  22.888  1.00  0.00     0.117 C 
HETATM    9  O1  UNL     1      10.213   7.630  24.492  1.00  0.00    -0.274 OA
ATOM     10  H1  UNL     1      10.432   5.184  22.455  1.00  0.00     0.163 HD
ENDBRANCH   5   6
BRANCH   5  11
HETATM   11  C10 UNL     1       8.820   3.803  24.034  1.00  0.00    -0.026 A 
HETATM   12  C11 UNL     1       8.334   3.229  25.184  1.00  0.00     0.011 A 
HETATM   13  C12 UNL     1       8.286   1.860  25.364  1.00  0.00     0.019 A 
HETATM   14  C13 UNL     1       8.737   1.032  24.364  1.00  0.00     0.011 A 
HETATM   15 BR1  UNL     1       8.678  -0.877  24.598  1.00  0.00    -0.051 Br
HETATM   16  C14 UNL     1       9.234   1.568  23.193  1.00  0.00     0.019 A 
HETATM   17  C15 UNL     1       9.266   2.954  23.049  1.00  0.00     0.011 A 
ENDBRANCH   5  11
ENDBRANCH   1   5
BRANCH   3  18
HETATM   18  N3  UNL     1       5.247   6.342  23.218  1.00  0.00    -0.249 N 
HETATM   19  C5  UNL     1       4.839   7.685  23.391  1.00  0.00     0.335 C 
HETATM   20  O3  UNL     1       5.510   8.425  24.144  1.00  0.00    -0.246 OA
HETATM   21  N4  UNL     1       3.705   8.200  22.740  1.00  0.00    -0.334 N 
ATOM     22  H4  UNL     1       3.161   7.595  22.125  1.00  0.00     0.165 HD
ATOM     23  H3  UNL     1       4.702   5.735  22.606  1.00  0.00     0.192 HD
BRANCH  21  24
HETATM   24  C6  UNL     1       3.304   9.562  22.927  1.00  0.00     0.023 C 
HETATM   25  C7  UNL     1       2.336   9.632  24.065  1.00  0.00     0.037 C 
HETATM   26  C8  UNL     1       4.514  10.435  23.240  1.00  0.00     0.037 C 
HETATM   27  C9  UNL     1       2.727  10.121  21.634  1.00  0.00     0.037 C 
ENDBRANCH  21  24
ENDBRANCH   3  18
TORSDOF 5
ENDMDL
MODEL 2
REMARK VINA RESULT: -7.142375815      1.111      1.488
REMARK  5 active torsions:
REMARK  status: ('A' for Active; 'I' for Inactive)
REMARK       I    between atoms: C2_2  and  N1_4 
REMARK    1  A    between atoms: N1_4  and  C3_6 
REMARK    2  A    between atoms: C3_6  and  C4_7 
REMARK    3  A    between atoms: C3_6  and  C10_21 
REMARK       I    between atoms: C4_7  and  N2_9 
REMARK    4  A    between atoms: N2_9  and  N3_11 
REMARK       I    between atoms: N3_11  and  C5_13 
REMARK       I    between atoms: C5_13  and  N4_15 
REMARK    5  A    between atoms: N4_15  and  C6_17 
ROOT
HETATM    1  C4  UNL     1       7.376   5.363  24.926  1.00  0.00     0.263 C 
HETATM    2  O2  UNL     1       7.057   5.820  26.062  1.00  0.00    -0.269 OA
HETATM    3  N2  UNL     1       6.443   5.405  23.888  1.00  0.00    -0.264 N 
ATOM      4  H2  UNL     1       6.700   5.034  22.973  1.00  0.00     0.190 HD
ENDROOT
BRANCH   1   5
HETATM    5  C3  UNL     1       8.748   4.807  24.793  1.00  0.00     0.211 C 
BRANCH   5   6
HETATM    6  N1  UNL     1       9.508   5.511  23.797  1.00  0.00    -0.344 N 
HETATM    7  C2  UNL     1      10.042   6.808  23.981  1.00  0.00     0.214 C 
HETATM    8  C1  UNL     1      10.822   7.532  22.957  1.00  0.00     0.117 C 
HETATM    9  O1  UNL     1       9.840   7.376  25.078  1.00  0.00    -0.274 OA
ATOM     10  H1  UNL     1       9.672   5.049  22.903  1.00  0.00     0.163 HD
ENDBRANCH   5   6
BRANCH   5  11
HETATM   11  C10 UNL     1       8.762   3.354  24.638  1.00  0.00    -0.026 A 
HETATM   12  C11 UNL     1       8.378   2.524  25.663  1.00  0.00     0.011 A 
HETATM   13  C12 UNL     1       8.379   1.148  25.540  1.00  0.00     0.019 A 
HETATM   14  C13 UNL     1       8.775   0.577  24.354  1.00  0.00     0.011 A 
HETATM   15 BR1  UNL     1       8.783  -1.338  24.165  1.00  0.00    -0.051 Br
HETATM   16  C14 UNL     1       9.169   1.375  23.299  1.00  0.00     0.019 A 
HETATM   17  C15 UNL     1       9.154   2.759  23.462  1.00  0.00     0.011 A 
ENDBRANCH   5  11
ENDBRANCH   1   5
BRANCH   3  18
HETATM   18  N3  UNL     1       5.167   5.940  24.069  1.00  0.00    -0.249 N 
HETATM   19  C5  UNL     1       4.826   7.240  23.628  1.00  0.00     0.335 C 
HETATM   20  O3  UNL     1       5.699   7.930  23.057  1.00  0.00    -0.246 OA
HETATM   21  N4  UNL     1       3.537   7.767  23.816  1.00  0.00    -0.334 N 
ATOM     22  H4  UNL     1       2.826   7.202  24.279  1.00  0.00     0.165 HD
ATOM     23  H3  UNL     1       4.458   5.375  24.536  1.00  0.00     0.192 HD
BRANCH  21  24
HETATM   24  C6  UNL     1       3.209   9.086  23.364  1.00  0.00     0.023 C 
HETATM   25  C7  UNL     1       2.875   9.033  21.907  1.00  0.00     0.037 C 
HETATM   26  C8  UNL     1       2.012   9.630  24.137  1.00  0.00     0.037 C 
HETATM   27  C9  UNL     1       4.353  10.043  23.666  1.00  0.00     0.037 C 
ENDBRANCH  21  24
ENDBRANCH   3  18
TORSDOF 5
ENDMDL
MODEL 3
REMARK VINA RESULT: -7.116303087      3.666      5.807
REMARK  5 active torsions:
REMARK  status: ('A' for Active; 'I' for Inactive)
REMARK       I    between atoms: C2_2  and  N1_4 
REMARK    1  A    between atoms: N1_4  and  C3_6 
REMARK    2  A    between atoms: C3_6  and  C4_7 
REMARK    3  A    between atoms: C3_6  and  C10_21 
REMARK       I    between atoms: C4_7  and  N2_9 
REMARK    4  A    between atoms: N2_9  and  N3_11 
REMARK       I    between atoms: N3_11  and  C5_13 
REMARK       I    between atoms: C5_13  and  N4_15 
REMARK    5  A    between atoms: N4_15  and  C6_17 
ROOT
HETATM    1  C4  UNL     1       9.749   5.939  23.483  1.00  0.00     0.263 C 
HETATM    2  O2  UNL     1       9.258   6.244  22.358  1.00  0.00    -0.269 OA
HETATM    3  N2  UNL     1      11.110   6.156  23.715  1.00  0.00    -0.264 N 
ATOM      4  H2  UNL     1      11.505   5.908  24.622  1.00  0.00     0.190 HD
ENDROOT
BRANCH   1   5
HETATM    5  C3  UNL     1       8.814   5.361  24.484  1.00  0.00     0.211 C 
BRANCH   5   6
HETATM    6  N1  UNL     1       9.019   5.933  25.787  1.00  0.00    -0.344 N 
HETATM    7  C2  UNL     1       8.045   6.691  26.479  1.00  0.00     0.214 C 
HETATM    8  C1  UNL     1       8.255   7.278  27.818  1.00  0.00     0.117 C 
HETATM    9  O1  UNL     1       6.939   6.875  25.923  1.00  0.00    -0.274 OA
ATOM     10  H1  UNL     1       9.920   5.783  26.241  1.00  0.00     0.163 HD
ENDBRANCH   5   6
BRANCH   5  11
HETATM   11  C10 UNL     1       8.794   3.901  24.469  1.00  0.00    -0.026 A 
HETATM   12  C11 UNL     1       8.365   3.183  25.559  1.00  0.00     0.011 A 
HETATM   13  C12 UNL     1       8.332   1.802  25.569  1.00  0.00     0.019 A 
HETATM   14  C13 UNL     1       8.742   1.110  24.455  1.00  0.00     0.011 A 
HETATM   15 BR1  UNL     1       8.704  -0.814  24.451  1.00  0.00    -0.051 Br
HETATM   16  C14 UNL     1       9.182   1.793  23.339  1.00  0.00     0.019 A 
HETATM   17  C15 UNL     1       9.199   3.186  23.367  1.00  0.00     0.011 A 
ENDBRANCH   5  11
ENDBRANCH   1   5
BRANCH   3  18
HETATM   18  N3  UNL     1      11.942   6.703  22.739  1.00  0.00    -0.249 N 
HETATM   19  C5  UNL     1      12.275   8.078  22.716  1.00  0.00     0.335 C 
HETATM   20  O3  UNL     1      11.805   8.825  23.602  1.00  0.00    -0.246 OA
HETATM   21  N4  UNL     1      13.116   8.616  21.727  1.00  0.00    -0.334 N 
ATOM     22  H4  UNL     1      13.499   8.005  21.007  1.00  0.00     0.165 HD
ATOM     23  H3  UNL     1      12.323   6.092  22.017  1.00  0.00     0.192 HD
BRANCH  21  24
HETATM   24  C6  UNL     1      13.441  10.011  21.718  1.00  0.00     0.023 C 
HETATM   25  C7  UNL     1      14.157  10.352  22.985  1.00  0.00     0.037 C 
HETATM   26  C8  UNL     1      14.335  10.340  20.528  1.00  0.00     0.037 C 
HETATM   27  C9  UNL     1      12.181  10.841  21.517  1.00  0.00     0.037 C 
ENDBRANCH  21  24
ENDBRANCH   3  18
TORSDOF 5
ENDMDL
MODEL 4
REMARK VINA RESULT: -7.062021072      3.540      6.642
REMARK  5 active torsions:
REMARK  status: ('A' for Active; 'I' for Inactive)
REMARK       I    between atoms: C2_2  and  N1_4 
REMARK    1  A    between atoms: N1_4  and  C3_6 
REMARK    2  A    between atoms: C3_6  and  C4_7 
REMARK    3  A    between atoms: C3_6  and  C10_21 
REMARK       I    between atoms: C4_7  and  N2_9 
REMARK    4  A    between atoms: N2_9  and  N3_11 
REMARK       I    between atoms: N3_11  and  C5_13 
REMARK       I    between atoms: C5_13  and  N4_15 
REMARK    5  A    between atoms: N4_15  and  C6_17 
ROOT
HETATM    1  C4  UNL     1       9.394   5.755  23.482  1.00  0.00     0.263 C 
HETATM    2  O2  UNL     1       9.008   5.724  22.277  1.00  0.00    -0.269 OA
HETATM    3  N2  UNL     1      10.660   6.268  23.779  1.00  0.00    -0.264 N 
ATOM      4  H2  UNL     1      10.971   6.291  24.750  1.00  0.00     0.190 HD
ENDROOT
BRANCH   1   5
HETATM    5  C3  UNL     1       8.447   5.230  24.499  1.00  0.00     0.211 C 
BRANCH   5   6
HETATM    6  N1  UNL     1       8.314   3.802  24.408  1.00  0.00    -0.344 N 
HETATM    7  C2  UNL     1       8.833   2.897  25.363  1.00  0.00     0.214 C 
HETATM    8  C1  UNL     1       8.697   1.429  25.269  1.00  0.00     0.117 C 
HETATM    9  O1  UNL     1       9.446   3.369  26.348  1.00  0.00    -0.274 OA
ATOM     10  H1  UNL     1       7.816   3.417  23.605  1.00  0.00     0.163 HD
ENDBRANCH   5   6
BRANCH   5  11
HETATM   11  C10 UNL     1       7.175   5.948  24.519  1.00  0.00    -0.026 A 
HETATM   12  C11 UNL     1       7.112   7.278  24.857  1.00  0.00     0.011 A 
HETATM   13  C12 UNL     1       5.922   7.980  24.879  1.00  0.00     0.019 A 
HETATM   14  C13 UNL     1       4.753   7.335  24.553  1.00  0.00     0.011 A 
HETATM   15 BR1  UNL     1       3.086   8.297  24.578  1.00  0.00    -0.051 Br
HETATM   16  C14 UNL     1       4.772   5.999  24.208  1.00  0.00     0.019 A 
HETATM   17  C15 UNL     1       5.992   5.326  24.197  1.00  0.00     0.011 A 
ENDBRANCH   5  11
ENDBRANCH   1   5
BRANCH   3  18
HETATM   18  N3  UNL     1      11.508   6.748  22.782  1.00  0.00    -0.249 N 
HETATM   19  C5  UNL     1      11.708   8.132  22.565  1.00  0.00     0.335 C 
HETATM   20  O3  UNL     1      11.101   8.948  23.292  1.00  0.00    -0.246 OA
HETATM   21  N4  UNL     1      12.567   8.603  21.558  1.00  0.00    -0.334 N 
ATOM     22  H4  UNL     1      13.063   7.936  20.967  1.00  0.00     0.165 HD
ATOM     23  H3  UNL     1      12.001   6.080  22.190  1.00  0.00     0.192 HD
BRANCH  21  24
HETATM   24  C6  UNL     1      12.757  10.007  21.350  1.00  0.00     0.023 C 
HETATM   25  C7  UNL     1      13.296  10.617  22.605  1.00  0.00     0.037 C 
HETATM   26  C8  UNL     1      13.739  10.249  20.209  1.00  0.00     0.037 C 
HETATM   27  C9  UNL     1      11.452  10.652  20.903  1.00  0.00     0.037 C 
ENDBRANCH  21  24
ENDBRANCH   3  18
TORSDOF 5
ENDMDL
MODEL 5
REMARK VINA RESULT: -7.047369405      3.648      5.762
REMARK  5 active torsions:
REMARK  status: ('A' for Active; 'I' for Inactive)
REMARK       I    between atoms: C2_2  and  N1_4 
REMARK    1  A    between atoms: N1_4  and  C3_6 
REMARK    2  A    between atoms: C3_6  and  C4_7 
REMARK    3  A    between atoms: C3_6  and  C10_21 
REMARK       I    between atoms: C4_7  and  N2_9 
REMARK    4  A    between atoms: N2_9  and  N3_11 
REMARK       I    between atoms: N3_11  and  C5_13 
REMARK       I    between atoms: C5_13  and  N4_15 
REMARK    5  A    between atoms: N4_15  and  C6_17 
ROOT
HETATM    1  C4  UNL     1       9.676   5.844  23.507  1.00  0.00     0.263 C 
HETATM    2  O2  UNL     1       9.201   6.126  22.368  1.00  0.00    -0.269 OA
HETATM    3  N2  UNL     1      11.025   6.096  23.765  1.00  0.00    -0.264 N 
ATOM      4  H2  UNL     1      11.407   5.867  24.682  1.00  0.00     0.190 HD
ENDROOT
BRANCH   1   5
HETATM    5  C3  UNL     1       8.734   5.252  24.493  1.00  0.00     0.211 C 
BRANCH   5   6
HETATM    6  N1  UNL     1       8.914   5.824  25.800  1.00  0.00    -0.344 N 
HETATM    7  C2  UNL     1       7.907   6.531  26.498  1.00  0.00     0.214 C 
HETATM    8  C1  UNL     1       8.092   7.117  27.841  1.00  0.00     0.117 C 
HETATM    9  O1  UNL     1       6.793   6.668  25.944  1.00  0.00    -0.274 OA
ATOM     10  H1  UNL     1       9.822   5.712  26.252  1.00  0.00     0.163 HD
ENDBRANCH   5   6
BRANCH   5  11
HETATM   11  C10 UNL     1       8.732   3.792  24.475  1.00  0.00    -0.026 A 
HETATM   12  C11 UNL     1       9.142   3.092  23.366  1.00  0.00     0.011 A 
HETATM   13  C12 UNL     1       9.153   1.712  23.325  1.00  0.00     0.019 A 
HETATM   14  C13 UNL     1       8.741   1.001  24.427  1.00  0.00     0.011 A 
HETATM   15 BR1  UNL     1       8.750  -0.923  24.388  1.00  0.00    -0.051 Br
HETATM   16  C14 UNL     1       8.321   1.665  25.561  1.00  0.00     0.019 A 
HETATM   17  C15 UNL     1       8.325   3.059  25.564  1.00  0.00     0.011 A 
ENDBRANCH   5  11
ENDBRANCH   1   5
BRANCH   3  18
HETATM   18  N3  UNL     1      11.864   6.654  22.800  1.00  0.00    -0.249 N 
HETATM   19  C5  UNL     1      12.085   8.049  22.709  1.00  0.00     0.335 C 
HETATM   20  O3  UNL     1      11.506   8.803  23.521  1.00  0.00    -0.246 OA
HETATM   21  N4  UNL     1      12.934   8.598  21.734  1.00  0.00    -0.334 N 
ATOM     22  H4  UNL     1      13.406   7.981  21.074  1.00  0.00     0.165 HD
ATOM     23  H3  UNL     1      12.334   6.037  22.139  1.00  0.00     0.192 HD
BRANCH  21  24
HETATM   24  C6  UNL     1      13.144  10.012  21.654  1.00  0.00     0.023 C 
HETATM   25  C7  UNL     1      13.807  10.477  22.912  1.00  0.00     0.037 C 
HETATM   26  C8  UNL     1      14.030  10.352  20.461  1.00  0.00     0.037 C 
HETATM   27  C9  UNL     1      11.825  10.725  21.392  1.00  0.00     0.037 C 
ENDBRANCH  21  24
ENDBRANCH   3  18
TORSDOF 5
ENDMDL
