MODEL 1
REMARK VINA RESULT: -7.210818600      0.000      0.000
REMARK  8 active torsions:
REMARK  status: ('A' for Active; 'I' for Inactive)
REMARK    1  A    between atoms: C3_3  and  C5_5 
REMARK       I    between atoms: C5_5  and  N1_7 
REMARK    2  A    between atoms: N1_7  and  C6_9 
REMARK    3  A    between atoms: C9_12  and  C10_13 
REMARK    4  A    between atoms: C10_13  and  N2_15 
REMARK    5  A    between atoms: N2_15  and  N3_17 
REMARK    6  A    between atoms: N3_17  and  C11_19 
REMARK    7  A    between atoms: C11_19  and  N4_21 
REMARK       I    between atoms: N4_21  and  C12_23 
REMARK    8  A    between atoms: C12_23  and  C13_25 
ROOT
HETATM    1  C6  UNL     1      20.583 -14.262  20.853  1.00  0.00     0.035 A 
HETATM    2  C7  UNL     1      20.998 -13.098  20.182  1.00  0.00     0.030 A 
HETATM    3  C8  UNL     1      20.639 -12.833  18.890  1.00  0.00     0.017 A 
HETATM    4  C9  UNL     1      19.847 -13.686  18.157  1.00  0.00     0.003 A 
HETATM    5  C14 UNL     1      19.426 -14.829  18.789  1.00  0.00     0.017 A 
HETATM    6  C15 UNL     1      19.793 -15.105  20.115  1.00  0.00     0.030 A 
ENDROOT
BRANCH   4   7
HETATM    7  C10 UNL     1      19.467 -13.392  16.773  1.00  0.00     0.125 C 
HETATM    8  S1  UNL     1      20.636 -13.170  15.688  1.00  0.00    -0.058 SA
BRANCH   7   9
HETATM    9  N2  UNL     1      18.093 -13.317  16.448  1.00  0.00    -0.287 N 
ATOM     10  H2  UNL     1      17.602 -14.180  16.216  1.00  0.00     0.188 HD
BRANCH   9  11
HETATM   11  N3  UNL     1      17.379 -12.123  16.430  1.00  0.00    -0.275 N 
ATOM     12  H3  UNL     1      17.895 -11.246  16.355  1.00  0.00     0.189 HD
BRANCH  11  13
HETATM   13  C11 UNL     1      15.969 -12.074  16.510  1.00  0.00     0.193 C 
HETATM   14  S2  UNL     1      15.075 -11.212  15.483  1.00  0.00    -0.039 SA
BRANCH  13  15
HETATM   15  N4  UNL     1      15.335 -12.822  17.546  1.00  0.00    -0.302 N 
HETATM   16  C12 UNL     1      15.805 -12.813  18.881  1.00  0.00     0.237 C 
HETATM   17  O2  UNL     1      16.809 -12.138  19.195  1.00  0.00    -0.272 OA
ATOM     18  H4  UNL     1      14.514 -13.383  17.317  1.00  0.00     0.171 HD
BRANCH  16  19
HETATM   19  C13 UNL     1      15.111 -13.605  19.918  1.00  0.00     0.217 C 
HETATM   20 CL1  UNL     1      16.256 -14.402  21.022  1.00  0.00    -0.121 Cl
ENDBRANCH  16  19
ENDBRANCH  13  15
ENDBRANCH  11  13
ENDBRANCH   9  11
ENDBRANCH   7   9
ENDBRANCH   4   7
BRANCH   1  21
HETATM   21  N1  UNL     1      20.981 -14.452  22.198  1.00  0.00    -0.323 N 
HETATM   22  C5  UNL     1      20.129 -14.345  23.311  1.00  0.00     0.251 C 
HETATM   23  O1  UNL     1      18.917 -14.077  23.241  1.00  0.00    -0.268 OA
ATOM     24  H1  UNL     1      21.959 -14.684  22.373  1.00  0.00     0.169 HD
BRANCH  22  25
HETATM   25  C3  UNL     1      20.672 -14.557  24.643  1.00  0.00     0.002 C 
HETATM   26  C2  UNL     1      20.540 -13.638  25.559  1.00  0.00    -0.019 C 
HETATM   27  C1  UNL     1      21.089 -13.845  26.916  1.00  0.00     0.036 C 
HETATM   28  C4  UNL     1      21.373 -15.829  24.932  1.00  0.00     0.054 C 
ENDBRANCH  22  25
ENDBRANCH   1  21
TORSDOF 8
ENDMDL
MODEL 2
REMARK VINA RESULT: -7.133235381      2.830      3.413
REMARK  8 active torsions:
REMARK  status: ('A' for Active; 'I' for Inactive)
REMARK    1  A    between atoms: C3_3  and  C5_5 
REMARK       I    between atoms: C5_5  and  N1_7 
REMARK    2  A    between atoms: N1_7  and  C6_9 
REMARK    3  A    between atoms: C9_12  and  C10_13 
REMARK    4  A    between atoms: C10_13  and  N2_15 
REMARK    5  A    between atoms: N2_15  and  N3_17 
REMARK    6  A    between atoms: N3_17  and  C11_19 
REMARK    7  A    between atoms: C11_19  and  N4_21 
REMARK       I    between atoms: N4_21  and  C12_23 
REMARK    8  A    between atoms: C12_23  and  C13_25 
ROOT
HETATM    1  C6  UNL     1      20.733 -14.256  20.801  1.00  0.00     0.035 A 
HETATM    2  C7  UNL     1      21.037 -13.046  20.150  1.00  0.00     0.030 A 
HETATM    3  C8  UNL     1      20.661 -12.798  18.859  1.00  0.00     0.017 A 
HETATM    4  C9  UNL     1      19.961 -13.712  18.108  1.00  0.00     0.003 A 
HETATM    5  C14 UNL     1      19.650 -14.901  18.720  1.00  0.00     0.017 A 
HETATM    6  C15 UNL     1      20.034 -15.160  20.045  1.00  0.00     0.030 A 
ENDROOT
BRANCH   4   7
HETATM    7  C10 UNL     1      19.563 -13.437  16.726  1.00  0.00     0.125 C 
HETATM    8  S1  UNL     1      20.717 -13.186  15.630  1.00  0.00    -0.058 SA
BRANCH   7   9
HETATM    9  N2  UNL     1      18.185 -13.402  16.410  1.00  0.00    -0.287 N 
ATOM     10  H2  UNL     1      17.765 -14.228  15.986  1.00  0.00     0.188 HD
BRANCH   9  11
HETATM   11  N3  UNL     1      17.376 -12.295  16.651  1.00  0.00    -0.275 N 
ATOM     12  H3  UNL     1      17.187 -12.029  17.616  1.00  0.00     0.189 HD
BRANCH  11  13
HETATM   13  C11 UNL     1      16.806 -11.526  15.612  1.00  0.00     0.193 C 
HETATM   14  S2  UNL     1      15.218 -11.268  15.500  1.00  0.00    -0.039 SA
BRANCH  13  15
HETATM   15  N4  UNL     1      17.685 -10.967  14.636  1.00  0.00    -0.302 N 
HETATM   16  C12 UNL     1      18.133 -11.703  13.513  1.00  0.00     0.237 C 
HETATM   17  O2  UNL     1      17.765 -12.885  13.342  1.00  0.00    -0.272 OA
ATOM     18  H4  UNL     1      18.001 -10.004  14.753  1.00  0.00     0.171 HD
BRANCH  16  19
HETATM   19  C13 UNL     1      19.042 -11.078  12.531  1.00  0.00     0.217 C 
HETATM   20 CL1  UNL     1      19.382 -12.158  11.159  1.00  0.00    -0.121 Cl
ENDBRANCH  16  19
ENDBRANCH  13  15
ENDBRANCH  11  13
ENDBRANCH   9  11
ENDBRANCH   7   9
ENDBRANCH   4   7
BRANCH   1  21
HETATM   21  N1  UNL     1      21.139 -14.426  22.146  1.00  0.00    -0.323 N 
HETATM   22  C5  UNL     1      20.289 -14.328  23.261  1.00  0.00     0.251 C 
HETATM   23  O1  UNL     1      19.072 -14.086  23.193  1.00  0.00    -0.268 OA
ATOM     24  H1  UNL     1      22.122 -14.635  22.319  1.00  0.00     0.169 HD
BRANCH  22  25
HETATM   25  C3  UNL     1      20.841 -14.518  24.592  1.00  0.00     0.002 C 
HETATM   26  C2  UNL     1      20.569 -13.666  25.542  1.00  0.00    -0.019 C 
HETATM   27  C1  UNL     1      21.126 -13.850  26.899  1.00  0.00     0.036 C 
HETATM   28  C4  UNL     1      21.710 -15.690  24.843  1.00  0.00     0.054 C 
ENDBRANCH  22  25
ENDBRANCH   1  21
TORSDOF 8
ENDMDL
MODEL 3
REMARK VINA RESULT: -7.087849955      3.674      7.386
REMARK  8 active torsions:
REMARK  status: ('A' for Active; 'I' for Inactive)
REMARK    1  A    between atoms: C3_3  and  C5_5 
REMARK       I    between atoms: C5_5  and  N1_7 
REMARK    2  A    between atoms: N1_7  and  C6_9 
REMARK    3  A    between atoms: C9_12  and  C10_13 
REMARK    4  A    between atoms: C10_13  and  N2_15 
REMARK    5  A    between atoms: N2_15  and  N3_17 
REMARK    6  A    between atoms: N3_17  and  C11_19 
REMARK    7  A    between atoms: C11_19  and  N4_21 
REMARK       I    between atoms: N4_21  and  C12_23 
REMARK    8  A    between atoms: C12_23  and  C13_25 
ROOT
HETATM    1  C6  UNL     1      19.383 -13.199  16.684  1.00  0.00     0.035 A 
HETATM    2  C7  UNL     1      18.160 -13.415  17.343  1.00  0.00     0.030 A 
HETATM    3  C8  UNL     1      18.086 -13.647  18.688  1.00  0.00     0.017 A 
HETATM    4  C9  UNL     1      19.203 -13.684  19.490  1.00  0.00     0.003 A 
HETATM    5  C14 UNL     1      20.410 -13.474  18.872  1.00  0.00     0.017 A 
HETATM    6  C15 UNL     1      20.490 -13.237  17.492  1.00  0.00     0.030 A 
ENDROOT
BRANCH   4   7
HETATM    7  C10 UNL     1      19.114 -13.932  20.931  1.00  0.00     0.125 C 
HETATM    8  S1  UNL     1      20.274 -14.801  21.633  1.00  0.00    -0.058 SA
BRANCH   7   9
HETATM    9  N2  UNL     1      18.015 -13.401  21.644  1.00  0.00    -0.287 N 
ATOM     10  H2  UNL     1      17.877 -12.390  21.639  1.00  0.00     0.188 HD
BRANCH   9  11
HETATM   11  N3  UNL     1      17.112 -14.189  22.352  1.00  0.00    -0.275 N 
ATOM     12  H3  UNL     1      17.339 -14.450  23.311  1.00  0.00     0.189 HD
BRANCH  11  13
HETATM   13  C11 UNL     1      15.894 -14.642  21.797  1.00  0.00     0.193 C 
HETATM   14  S2  UNL     1      15.806 -15.952  20.861  1.00  0.00    -0.039 SA
BRANCH  13  15
HETATM   15  N4  UNL     1      14.712 -13.897  22.086  1.00  0.00    -0.302 N 
HETATM   16  C12 UNL     1      14.498 -12.593  21.579  1.00  0.00     0.237 C 
HETATM   17  O2  UNL     1      15.355 -12.046  20.852  1.00  0.00    -0.272 OA
ATOM     18  H4  UNL     1      13.997 -14.319  22.678  1.00  0.00     0.171 HD
BRANCH  16  19
HETATM   19  C13 UNL     1      13.256 -11.864  21.907  1.00  0.00     0.217 C 
HETATM   20 CL1  UNL     1      13.518 -10.106  21.985  1.00  0.00    -0.121 Cl
ENDBRANCH  16  19
ENDBRANCH  13  15
ENDBRANCH  11  13
ENDBRANCH   9  11
ENDBRANCH   7   9
ENDBRANCH   4   7
BRANCH   1  21
HETATM   21  N1  UNL     1      19.371 -12.945  15.292  1.00  0.00    -0.323 N 
HETATM   22  C5  UNL     1      19.003 -11.724  14.700  1.00  0.00     0.251 C 
HETATM   23  O1  UNL     1      18.650 -10.717  15.337  1.00  0.00    -0.268 OA
ATOM     24  H1  UNL     1      19.651 -13.704  14.671  1.00  0.00     0.169 HD
BRANCH  22  25
HETATM   25  C3  UNL     1      19.028 -11.601  13.252  1.00  0.00     0.002 C 
HETATM   26  C2  UNL     1      19.419 -12.605  12.516  1.00  0.00    -0.019 C 
HETATM   27  C1  UNL     1      19.448 -12.491  11.043  1.00  0.00     0.036 C 
HETATM   28  C4  UNL     1      18.604 -10.323  12.637  1.00  0.00     0.054 C 
ENDBRANCH  22  25
ENDBRANCH   1  21
TORSDOF 8
ENDMDL
MODEL 4
REMARK VINA RESULT: -7.022620223      4.212      7.491
REMARK  8 active torsions:
REMARK  status: ('A' for Active; 'I' for Inactive)
REMARK    1  A    between atoms: C3_3  and  C5_5 
REMARK       I    between atoms: C5_5  and  N1_7 
REMARK    2  A    between atoms: N1_7  and  C6_9 
REMARK    3  A    between atoms: C9_12  and  C10_13 
REMARK    4  A    between atoms: C10_13  and  N2_15 
REMARK    5  A    between atoms: N2_15  and  N3_17 
REMARK    6  A    between atoms: N3_17  and  C11_19 
REMARK    7  A    between atoms: C11_19  and  N4_21 
REMARK       I    between atoms: N4_21  and  C12_23 
REMARK    8  A    between atoms: C12_23  and  C13_25 
ROOT
HETATM    1  C6  UNL     1      18.422 -13.146  16.952  1.00  0.00     0.035 A 
HETATM    2  C7  UNL     1      19.281 -13.641  17.950  1.00  0.00     0.030 A 
HETATM    3  C8  UNL     1      18.883 -13.788  19.249  1.00  0.00     0.017 A 
HETATM    4  C9  UNL     1      17.614 -13.463  19.670  1.00  0.00     0.003 A 
HETATM    5  C14 UNL     1      16.755 -12.979  18.716  1.00  0.00     0.017 A 
HETATM    6  C15 UNL     1      17.160 -12.826  17.382  1.00  0.00     0.030 A 
ENDROOT
BRANCH   4   7
HETATM    7  C10 UNL     1      17.197 -13.624  21.065  1.00  0.00     0.125 C 
HETATM    8  S1  UNL     1      18.105 -14.531  22.038  1.00  0.00    -0.058 SA
BRANCH   7   9
HETATM    9  N2  UNL     1      16.016 -12.978  21.499  1.00  0.00    -0.287 N 
ATOM     10  H2  UNL     1      15.937 -11.971  21.363  1.00  0.00     0.188 HD
BRANCH   9  11
HETATM   11  N3  UNL     1      14.957 -13.651  22.101  1.00  0.00    -0.275 N 
ATOM     12  H3  UNL     1      15.150 -14.244  22.907  1.00  0.00     0.189 HD
BRANCH  11  13
HETATM   13  C11 UNL     1      13.625 -13.545  21.642  1.00  0.00     0.193 C 
HETATM   14  S2  UNL     1      13.070 -14.407  20.398  1.00  0.00    -0.039 SA
BRANCH  13  15
HETATM   15  N4  UNL     1      12.757 -12.636  22.317  1.00  0.00    -0.302 N 
HETATM   16  C12 UNL     1      12.936 -11.233  22.255  1.00  0.00     0.237 C 
HETATM   17  O2  UNL     1      13.878 -10.742  21.595  1.00  0.00    -0.272 OA
ATOM     18  H4  UNL     1      11.981 -13.009  22.864  1.00  0.00     0.171 HD
BRANCH  16  19
HETATM   19  C13 UNL     1      12.009 -10.334  22.971  1.00  0.00     0.217 C 
HETATM   20 CL1  UNL     1      11.182 -11.162  24.311  1.00  0.00    -0.121 Cl
ENDBRANCH  16  19
ENDBRANCH  13  15
ENDBRANCH  11  13
ENDBRANCH   9  11
ENDBRANCH   7   9
ENDBRANCH   4   7
BRANCH   1  21
HETATM   21  N1  UNL     1      18.905 -13.044  15.626  1.00  0.00    -0.323 N 
HETATM   22  C5  UNL     1      18.991 -11.849  14.891  1.00  0.00     0.251 C 
HETATM   23  O1  UNL     1      18.656 -10.734  15.328  1.00  0.00    -0.268 OA
ATOM     24  H1  UNL     1      19.215 -13.902  15.169  1.00  0.00     0.169 HD
BRANCH  22  25
HETATM   25  C3  UNL     1      19.501 -11.887  13.531  1.00  0.00     0.002 C 
HETATM   26  C2  UNL     1      18.763 -12.365  12.567  1.00  0.00    -0.019 C 
HETATM   27  C1  UNL     1      19.273 -12.409  11.180  1.00  0.00     0.036 C 
HETATM   28  C4  UNL     1      20.866 -11.378  13.266  1.00  0.00     0.054 C 
ENDBRANCH  22  25
ENDBRANCH   1  21
TORSDOF 8
ENDMDL
MODEL 5
REMARK VINA RESULT: -6.988862549      4.166      7.026
REMARK  8 active torsions:
REMARK  status: ('A' for Active; 'I' for Inactive)
REMARK    1  A    between atoms: C3_3  and  C5_5 
REMARK       I    between atoms: C5_5  and  N1_7 
REMARK    2  A    between atoms: N1_7  and  C6_9 
REMARK    3  A    between atoms: C9_12  and  C10_13 
REMARK    4  A    between atoms: C10_13  and  N2_15 
REMARK    5  A    between atoms: N2_15  and  N3_17 
REMARK    6  A    between atoms: N3_17  and  C11_19 
REMARK    7  A    between atoms: C11_19  and  N4_21 
REMARK       I    between atoms: N4_21  and  C12_23 
REMARK    8  A    between atoms: C12_23  and  C13_25 
ROOT
HETATM    1  C6  UNL     1      19.081 -13.737  18.500  1.00  0.00     0.035 A 
HETATM    2  C7  UNL     1      17.854 -14.426  18.522  1.00  0.00     0.030 A 
HETATM    3  C8  UNL     1      17.182 -14.683  19.684  1.00  0.00     0.017 A 
HETATM    4  C9  UNL     1      17.658 -14.286  20.912  1.00  0.00     0.003 A 
HETATM    5  C14 UNL     1      18.852 -13.610  20.919  1.00  0.00     0.017 A 
HETATM    6  C15 UNL     1      19.545 -13.345  19.728  1.00  0.00     0.030 A 
ENDROOT
BRANCH   4   7
HETATM    7  C10 UNL     1      16.930 -14.567  22.151  1.00  0.00     0.125 C 
HETATM    8  S1  UNL     1      17.724 -15.259  23.369  1.00  0.00    -0.058 SA
BRANCH   7   9
HETATM    9  N2  UNL     1      15.561 -14.219  22.228  1.00  0.00    -0.287 N 
ATOM     10  H2  UNL     1      15.317 -13.234  22.328  1.00  0.00     0.188 HD
BRANCH   9  11
HETATM   11  N3  UNL     1      14.533 -15.154  22.174  1.00  0.00    -0.275 N 
ATOM     12  H3  UNL     1      14.680 -16.068  22.602  1.00  0.00     0.189 HD
BRANCH  11  13
HETATM   13  C11 UNL     1      13.292 -14.891  21.550  1.00  0.00     0.193 C 
HETATM   14  S2  UNL     1      13.027 -15.203  19.991  1.00  0.00    -0.039 SA
BRANCH  13  15
HETATM   15  N4  UNL     1      12.252 -14.328  22.346  1.00  0.00    -0.302 N 
HETATM   16  C12 UNL     1      12.274 -12.979  22.775  1.00  0.00     0.237 C 
HETATM   17  O2  UNL     1      13.226 -12.230  22.463  1.00  0.00    -0.272 OA
ATOM     18  H4  UNL     1      11.464 -14.917  22.617  1.00  0.00     0.171 HD
BRANCH  16  19
HETATM   19  C13 UNL     1      11.171 -12.442  23.598  1.00  0.00     0.217 C 
HETATM   20 CL1  UNL     1      11.502 -10.785  24.155  1.00  0.00    -0.121 Cl
ENDBRANCH  16  19
ENDBRANCH  13  15
ENDBRANCH  11  13
ENDBRANCH   9  11
ENDBRANCH   7   9
ENDBRANCH   4   7
BRANCH   1  21
HETATM   21  N1  UNL     1      19.702 -13.492  17.253  1.00  0.00    -0.323 N 
HETATM   22  C5  UNL     1      19.170 -12.682  16.234  1.00  0.00     0.251 C 
HETATM   23  O1  UNL     1      18.087 -12.078  16.316  1.00  0.00    -0.268 OA
ATOM     24  H1  UNL     1      20.604 -13.936  17.079  1.00  0.00     0.169 HD
BRANCH  22  25
HETATM   25  C3  UNL     1      19.912 -12.522  14.995  1.00  0.00     0.002 C 
HETATM   26  C2  UNL     1      19.513 -11.663  14.098  1.00  0.00    -0.019 C 
HETATM   27  C1  UNL     1      20.261 -11.493  12.834  1.00  0.00     0.036 C 
HETATM   28  C4  UNL     1      21.120 -13.350  14.775  1.00  0.00     0.054 C 
ENDBRANCH  22  25
ENDBRANCH   1  21
TORSDOF 8
ENDMDL
