MODEL 1
REMARK VINA RESULT: -7.137115891      0.000      0.000
REMARK  6 active torsions:
REMARK  status: ('A' for Active; 'I' for Inactive)
REMARK    1  A    between atoms: C4_4  and  S1_5 
REMARK    2  A    between atoms: S1_5  and  N1_8 
REMARK    3  A    between atoms: N1_8  and  C5_10 
REMARK    4  A    between atoms: C5_10  and  C6_11 
REMARK    5  A    between atoms: C9_15  and  N2_16 
REMARK       I    between atoms: N2_16  and  C10_18 
REMARK       I    between atoms: C10_18  and  N4_22 
REMARK    6  A    between atoms: N4_22  and  C11_24 
ROOT
HETATM    1  C1  UNL     1      15.851 -14.199  16.362  1.00  0.00     0.050 C 
HETATM    2  C2  UNL     1      16.080 -13.782  17.785  1.00  0.00    -0.033 A 
HETATM    3  C3  UNL     1      15.034 -13.461  18.624  1.00  0.00     0.034 A 
HETATM    4  C4  UNL     1      15.241 -13.078  19.929  1.00  0.00     0.080 A 
HETATM    5  C7  UNL     1      16.535 -13.019  20.391  1.00  0.00     0.027 A 
HETATM    6  C8  UNL     1      17.585 -13.338  19.558  1.00  0.00     0.032 A 
HETATM    7  C9  UNL     1      17.373 -13.719  18.261  1.00  0.00     0.055 A 
ENDROOT
BRANCH   7   8
HETATM    8  N2  UNL     1      18.456 -14.052  17.385  1.00  0.00    -0.192 N 
HETATM    9  C10 UNL     1      19.393 -13.085  16.943  1.00  0.00     0.672 C 
HETATM   10  N3  UNL     1      20.530 -12.904  17.506  1.00  0.00    -0.235 N 
HETATM   11  N4  UNL     1      19.015 -12.291  15.809  1.00  0.00    -0.218 N 
ATOM     12  H32 UNL     1      20.799 -13.468  18.313  1.00  0.00     0.174 HD
ATOM     13  H31 UNL     1      21.204 -12.208  17.188  1.00  0.00     0.174 HD
ATOM     14  H4  UNL     1      18.327 -11.548  15.933  1.00  0.00     0.178 HD
ATOM     15  H2  UNL     1      18.556 -15.017  17.069  1.00  0.00     0.184 HD
BRANCH  11  16
HETATM   16  C11 UNL     1      19.577 -12.510  14.499  1.00  0.00     0.036 C 
HETATM   17  C12 UNL     1      19.636 -11.188  13.746  1.00  0.00     0.038 C 
HETATM   18  C13 UNL     1      20.949 -13.114  14.643  1.00  0.00     0.038 C 
HETATM   19  C14 UNL     1      18.690 -13.465  13.754  1.00  0.00     0.038 C 
ENDBRANCH  11  16
ENDBRANCH   7   8
BRANCH   4  20
HETATM   20  S1  UNL     1      13.892 -12.674  20.980  1.00  0.00     0.258 S 
HETATM   21  O1  UNL     1      14.252 -13.222  22.350  1.00  0.00    -0.201 OA
HETATM   22  O2  UNL     1      12.628 -13.291  20.519  1.00  0.00    -0.201 OA
BRANCH  20  23
HETATM   23  N1  UNL     1      13.822 -10.975  21.106  1.00  0.00    -0.315 N 
ATOM     24  H1  UNL     1      14.629 -10.373  20.943  1.00  0.00     0.172 HD
BRANCH  23  25
HETATM   25  C5  UNL     1      12.533 -10.470  21.460  1.00  0.00     0.143 C 
BRANCH  25  26
HETATM   26  C6  UNL     1      12.476 -10.183  22.943  1.00  0.00     0.105 C 
HETATM   27 BR1  UNL     1      11.300 -11.496  23.760  1.00  0.00    -0.095 Br
ENDBRANCH  25  26
ENDBRANCH  23  25
ENDBRANCH  20  23
ENDBRANCH   4  20
TORSDOF 6
ENDMDL
MODEL 2
REMARK VINA RESULT: -7.127789256      4.703      6.582
REMARK  6 active torsions:
REMARK  status: ('A' for Active; 'I' for Inactive)
REMARK    1  A    between atoms: C4_4  and  S1_5 
REMARK    2  A    between atoms: S1_5  and  N1_8 
REMARK    3  A    between atoms: N1_8  and  C5_10 
REMARK    4  A    between atoms: C5_10  and  C6_11 
REMARK    5  A    between atoms: C9_15  and  N2_16 
REMARK       I    between atoms: N2_16  and  C10_18 
REMARK       I    between atoms: C10_18  and  N4_22 
REMARK    6  A    between atoms: N4_22  and  C11_24 
ROOT
HETATM    1  C1  UNL     1      20.882 -12.990  19.853  1.00  0.00     0.050 C 
HETATM    2  C2  UNL     1      19.629 -13.362  20.591  1.00  0.00    -0.033 A 
HETATM    3  C3  UNL     1      18.382 -13.008  20.123  1.00  0.00     0.034 A 
HETATM    4  C4  UNL     1      17.231 -13.347  20.797  1.00  0.00     0.080 A 
HETATM    5  C7  UNL     1      17.350 -14.060  21.968  1.00  0.00     0.027 A 
HETATM    6  C8  UNL     1      18.594 -14.417  22.440  1.00  0.00     0.032 A 
HETATM    7  C9  UNL     1      19.736 -14.077  21.765  1.00  0.00     0.055 A 
ENDROOT
BRANCH   7   8
HETATM    8  N2  UNL     1      21.034 -14.441  22.246  1.00  0.00    -0.192 N 
HETATM    9  C10 UNL     1      21.231 -15.529  23.133  1.00  0.00     0.672 C 
HETATM   10  N3  UNL     1      21.570 -16.700  22.740  1.00  0.00    -0.235 N 
HETATM   11  N4  UNL     1      21.033 -15.266  24.531  1.00  0.00    -0.218 N 
ATOM     12  H32 UNL     1      21.711 -16.887  21.747  1.00  0.00     0.174 HD
ATOM     13  H31 UNL     1      21.712 -17.483  23.378  1.00  0.00     0.174 HD
ATOM     14  H4  UNL     1      20.082 -15.167  24.885  1.00  0.00     0.178 HD
ATOM     15  H2  UNL     1      21.843 -13.900  21.941  1.00  0.00     0.184 HD
BRANCH  11  16
HETATM   16  C11 UNL     1      22.138 -15.138  25.450  1.00  0.00     0.036 C 
HETATM   17  C12 UNL     1      22.525 -16.515  25.971  1.00  0.00     0.038 C 
HETATM   18  C13 UNL     1      23.294 -14.480  24.746  1.00  0.00     0.038 C 
HETATM   19  C14 UNL     1      21.702 -14.278  26.600  1.00  0.00     0.038 C 
ENDBRANCH  11  16
ENDBRANCH   7   8
BRANCH   4  20
HETATM   20  S1  UNL     1      15.651 -12.886  20.183  1.00  0.00     0.258 S 
HETATM   21  O1  UNL     1      14.744 -14.081  20.423  1.00  0.00    -0.201 OA
HETATM   22  O2  UNL     1      15.689 -12.579  18.736  1.00  0.00    -0.201 OA
BRANCH  20  23
HETATM   23  N1  UNL     1      15.075 -11.601  21.144  1.00  0.00    -0.315 N 
ATOM     24  H1  UNL     1      15.645 -10.792  21.389  1.00  0.00     0.172 HD
BRANCH  23  25
HETATM   25  C5  UNL     1      13.722 -11.758  21.576  1.00  0.00     0.143 C 
BRANCH  25  26
HETATM   26  C6  UNL     1      13.174 -10.437  22.066  1.00  0.00     0.105 C 
HETATM   27 BR1  UNL     1      11.717 -10.815  23.294  1.00  0.00    -0.095 Br
ENDBRANCH  25  26
ENDBRANCH  23  25
ENDBRANCH  20  23
ENDBRANCH   4  20
TORSDOF 6
ENDMDL
MODEL 3
REMARK VINA RESULT: -7.032929552      0.816      1.300
REMARK  6 active torsions:
REMARK  status: ('A' for Active; 'I' for Inactive)
REMARK    1  A    between atoms: C4_4  and  S1_5 
REMARK    2  A    between atoms: S1_5  and  N1_8 
REMARK    3  A    between atoms: N1_8  and  C5_10 
REMARK    4  A    between atoms: C5_10  and  C6_11 
REMARK    5  A    between atoms: C9_15  and  N2_16 
REMARK       I    between atoms: N2_16  and  C10_18 
REMARK       I    between atoms: C10_18  and  N4_22 
REMARK    6  A    between atoms: N4_22  and  C11_24 
ROOT
HETATM    1  C1  UNL     1      15.719 -13.631  15.989  1.00  0.00     0.050 C 
HETATM    2  C2  UNL     1      16.167 -13.429  17.407  1.00  0.00    -0.033 A 
HETATM    3  C3  UNL     1      15.267 -13.206  18.427  1.00  0.00     0.034 A 
HETATM    4  C4  UNL     1      15.675 -13.020  19.727  1.00  0.00     0.080 A 
HETATM    5  C7  UNL     1      17.024 -13.061  19.997  1.00  0.00     0.027 A 
HETATM    6  C8  UNL     1      17.928 -13.282  18.982  1.00  0.00     0.032 A 
HETATM    7  C9  UNL     1      17.517 -13.467  17.690  1.00  0.00     0.055 A 
ENDROOT
BRANCH   7   8
HETATM    8  N2  UNL     1      18.447 -13.697  16.626  1.00  0.00    -0.192 N 
HETATM    9  C10 UNL     1      19.304 -12.678  16.141  1.00  0.00     0.672 C 
HETATM   10  N3  UNL     1      20.515 -12.537  16.533  1.00  0.00    -0.235 N 
HETATM   11  N4  UNL     1      18.752 -11.781  15.164  1.00  0.00    -0.218 N 
ATOM     12  H32 UNL     1      20.907 -13.173  17.227  1.00  0.00     0.174 HD
ATOM     13  H31 UNL     1      21.132 -11.803  16.183  1.00  0.00     0.174 HD
ATOM     14  H4  UNL     1      18.093 -11.064  15.468  1.00  0.00     0.178 HD
ATOM     15  H2  UNL     1      18.494 -14.624  16.204  1.00  0.00     0.184 HD
BRANCH  11  16
HETATM   16  C11 UNL     1      19.100 -11.863  13.767  1.00  0.00     0.036 C 
HETATM   17  C12 UNL     1      18.972 -13.305  13.297  1.00  0.00     0.038 C 
HETATM   18  C13 UNL     1      18.198 -10.953  12.977  1.00  0.00     0.038 C 
HETATM   19  C14 UNL     1      20.524 -11.415  13.604  1.00  0.00     0.038 C 
ENDBRANCH  11  16
ENDBRANCH   7   8
BRANCH   4  20
HETATM   20  S1  UNL     1      14.510 -12.739  21.012  1.00  0.00     0.258 S 
HETATM   21  O1  UNL     1      15.095 -13.386  22.256  1.00  0.00    -0.201 OA
HETATM   22  O2  UNL     1      13.197 -13.350  20.710  1.00  0.00    -0.201 OA
BRANCH  20  23
HETATM   23  N1  UNL     1      14.440 -11.058  21.291  1.00  0.00    -0.315 N 
ATOM     24  H1  UNL     1      15.271 -10.476  21.384  1.00  0.00     0.172 HD
BRANCH  23  25
HETATM   25  C5  UNL     1      13.112 -10.539  21.382  1.00  0.00     0.143 C 
BRANCH  25  26
HETATM   26  C6  UNL     1      12.774 -10.222  22.821  1.00  0.00     0.105 C 
HETATM   27 BR1  UNL     1      11.451 -11.513  23.420  1.00  0.00    -0.095 Br
ENDBRANCH  25  26
ENDBRANCH  23  25
ENDBRANCH  20  23
ENDBRANCH   4  20
TORSDOF 6
ENDMDL
MODEL 4
REMARK VINA RESULT: -6.841355103      4.321      5.399
REMARK  6 active torsions:
REMARK  status: ('A' for Active; 'I' for Inactive)
REMARK    1  A    between atoms: C4_4  and  S1_5 
REMARK    2  A    between atoms: S1_5  and  N1_8 
REMARK    3  A    between atoms: N1_8  and  C5_10 
REMARK    4  A    between atoms: C5_10  and  C6_11 
REMARK    5  A    between atoms: C9_15  and  N2_16 
REMARK       I    between atoms: N2_16  and  C10_18 
REMARK       I    between atoms: C10_18  and  N4_22 
REMARK    6  A    between atoms: N4_22  and  C11_24 
ROOT
HETATM    1  C1  UNL     1      16.134 -14.021  17.833  1.00  0.00     0.050 C 
HETATM    2  C2  UNL     1      17.599 -14.131  18.140  1.00  0.00    -0.033 A 
HETATM    3  C3  UNL     1      18.060 -14.854  19.219  1.00  0.00     0.034 A 
HETATM    4  C4  UNL     1      19.402 -14.958  19.503  1.00  0.00     0.080 A 
HETATM    5  C7  UNL     1      20.293 -14.313  18.675  1.00  0.00     0.027 A 
HETATM    6  C8  UNL     1      19.838 -13.589  17.596  1.00  0.00     0.032 A 
HETATM    7  C9  UNL     1      18.501 -13.490  17.318  1.00  0.00     0.055 A 
ENDROOT
BRANCH   7   8
HETATM    8  N2  UNL     1      18.016 -12.740  16.199  1.00  0.00    -0.192 N 
HETATM    9  C10 UNL     1      18.117 -13.219  14.869  1.00  0.00     0.672 C 
HETATM   10  N3  UNL     1      17.161 -13.827  14.270  1.00  0.00    -0.235 N 
HETATM   11  N4  UNL     1      19.364 -12.994  14.194  1.00  0.00    -0.218 N 
ATOM     12  H32 UNL     1      16.275 -13.988  14.750  1.00  0.00     0.174 HD
ATOM     13  H31 UNL     1      17.234 -14.172  13.313  1.00  0.00     0.174 HD
ATOM     14  H4  UNL     1      20.172 -13.563  14.447  1.00  0.00     0.178 HD
ATOM     15  H2  UNL     1      17.584 -11.830  16.365  1.00  0.00     0.184 HD
BRANCH  11  16
HETATM   16  C11 UNL     1      19.509 -11.988  13.171  1.00  0.00     0.036 C 
HETATM   17  C12 UNL     1      19.397 -12.641  11.800  1.00  0.00     0.038 C 
HETATM   18  C13 UNL     1      18.450 -10.934  13.357  1.00  0.00     0.038 C 
HETATM   19  C14 UNL     1      20.865 -11.360  13.311  1.00  0.00     0.038 C 
ENDBRANCH  11  16
ENDBRANCH   7   8
BRANCH   4  20
HETATM   20  S1  UNL     1      19.969 -15.885  20.884  1.00  0.00     0.258 S 
HETATM   21  O1  UNL     1      20.864 -16.973  20.317  1.00  0.00    -0.201 OA
HETATM   22  O2  UNL     1      18.851 -16.505  21.629  1.00  0.00    -0.201 OA
BRANCH  20  23
HETATM   23  N1  UNL     1      20.944 -14.859  21.835  1.00  0.00    -0.315 N 
ATOM     24  H1  UNL     1      21.836 -14.486  21.512  1.00  0.00     0.172 HD
BRANCH  23  25
HETATM   25  C5  UNL     1      20.399 -14.569  23.123  1.00  0.00     0.143 C 
BRANCH  25  26
HETATM   26  C6  UNL     1      21.491 -14.597  24.168  1.00  0.00     0.105 C 
HETATM   27 BR1  UNL     1      20.798 -13.754  25.776  1.00  0.00    -0.095 Br
ENDBRANCH  25  26
ENDBRANCH  23  25
ENDBRANCH  20  23
ENDBRANCH   4  20
TORSDOF 6
ENDMDL
MODEL 5
REMARK VINA RESULT: -6.839805817      4.369      6.127
REMARK  6 active torsions:
REMARK  status: ('A' for Active; 'I' for Inactive)
REMARK    1  A    between atoms: C4_4  and  S1_5 
REMARK    2  A    between atoms: S1_5  and  N1_8 
REMARK    3  A    between atoms: N1_8  and  C5_10 
REMARK    4  A    between atoms: C5_10  and  C6_11 
REMARK    5  A    between atoms: C9_15  and  N2_16 
REMARK       I    between atoms: N2_16  and  C10_18 
REMARK       I    between atoms: C10_18  and  N4_22 
REMARK    6  A    between atoms: N4_22  and  C11_24 
ROOT
HETATM    1  C1  UNL     1      18.349 -12.507  21.355  1.00  0.00     0.050 C 
HETATM    2  C2  UNL     1      17.088 -13.317  21.429  1.00  0.00    -0.033 A 
HETATM    3  C3  UNL     1      15.856 -12.766  21.147  1.00  0.00     0.034 A 
HETATM    4  C4  UNL     1      14.698 -13.506  21.213  1.00  0.00     0.080 A 
HETATM    5  C7  UNL     1      14.793 -14.831  21.574  1.00  0.00     0.027 A 
HETATM    6  C8  UNL     1      16.021 -15.386  21.857  1.00  0.00     0.032 A 
HETATM    7  C9  UNL     1      17.170 -14.646  21.789  1.00  0.00     0.055 A 
ENDROOT
BRANCH   7   8
HETATM    8  N2  UNL     1      18.452 -15.211  22.082  1.00  0.00    -0.192 N 
HETATM    9  C10 UNL     1      18.750 -15.790  23.341  1.00  0.00     0.672 C 
HETATM   10  N3  UNL     1      18.671 -17.048  23.569  1.00  0.00    -0.235 N 
HETATM   11  N4  UNL     1      19.158 -14.891  24.384  1.00  0.00    -0.218 N 
ATOM     12  H32 UNL     1      18.382 -17.687  22.829  1.00  0.00     0.174 HD
ATOM     13  H31 UNL     1      18.886 -17.464  24.476  1.00  0.00     0.174 HD
ATOM     14  H4  UNL     1      18.454 -14.306  24.834  1.00  0.00     0.178 HD
ATOM     15  H2  UNL     1      19.174 -15.198  21.361  1.00  0.00     0.184 HD
BRANCH  11  16
HETATM   16  C11 UNL     1      20.531 -14.790  24.814  1.00  0.00     0.036 C 
HETATM   17  C12 UNL     1      20.907 -16.037  25.602  1.00  0.00     0.038 C 
HETATM   18  C13 UNL     1      21.417 -14.621  23.609  1.00  0.00     0.038 C 
HETATM   19  C14 UNL     1      20.664 -13.586  25.701  1.00  0.00     0.038 C 
ENDBRANCH  11  16
ENDBRANCH   7   8
BRANCH   4  20
HETATM   20  S1  UNL     1      13.138 -12.784  20.849  1.00  0.00     0.258 S 
HETATM   21  O1  UNL     1      12.196 -13.943  20.569  1.00  0.00    -0.201 OA
HETATM   22  O2  UNL     1      13.201 -11.903  19.662  1.00  0.00    -0.201 OA
BRANCH  20  23
HETATM   23  N1  UNL     1      12.586 -12.000  22.259  1.00  0.00    -0.315 N 
ATOM     24  H1  UNL     1      12.053 -12.477  22.987  1.00  0.00     0.172 HD
BRANCH  23  25
HETATM   25  C5  UNL     1      12.936 -10.617  22.330  1.00  0.00     0.143 C 
BRANCH  25  26
HETATM   26  C6  UNL     1      12.181  -9.946  23.455  1.00  0.00     0.105 C 
HETATM   27 BR1  UNL     1      11.083 -11.294  24.323  1.00  0.00    -0.095 Br
ENDBRANCH  25  26
ENDBRANCH  23  25
ENDBRANCH  20  23
ENDBRANCH   4  20
TORSDOF 6
ENDMDL
