MODEL 1
REMARK VINA RESULT: -8.605900918      0.000      0.000
REMARK  16 active torsions:
REMARK  status: ('A' for Active; 'I' for Inactive)
REMARK    1  A    between atoms: C6_6  and  C7_7 
REMARK    2  A    between atoms: C7_7  and  C8_8 
REMARK    3  A    between atoms: C7_7  and  C10_10 
REMARK    4  A    between atoms: C10_10  and  O1_11 
REMARK    5  A    between atoms: C10_10  and  C11_13 
REMARK    6  A    between atoms: C11_13  and  C13_15 
REMARK    7  A    between atoms: C13_15  and  C14_16 
REMARK    8  A    between atoms: C14_16  and  C15_17 
REMARK    9  A    between atoms: C15_17  and  O2_18 
REMARK   10  A    between atoms: C15_17  and  O3_20 
REMARK   11  A    between atoms: O3_20  and  C16_21 
REMARK   12  A    between atoms: C18_23  and  O4_24 
REMARK   13  A    between atoms: C19_26  and  O5_27 
REMARK   14  A    between atoms: C23_32  and  C25_34 
REMARK   15  A    between atoms: C25_34  and  C26_35 
REMARK   16  A    between atoms: C26_35  and  O6_36 
ROOT
HETATM    1  C1  UNL     1      49.061  55.485  20.027  1.00  0.00     0.015 C 
HETATM    2  C2  UNL     1      49.652  54.558  19.275  1.00  0.00    -0.080 C 
HETATM    3  C3  UNL     1      48.834  54.123  18.102  1.00  0.00     0.034 C 
HETATM    4  C4  UNL     1      48.981  52.634  17.799  1.00  0.00     0.010 C 
HETATM    5  C5  UNL     1      49.748  52.023  18.894  1.00  0.00     0.002 C 
HETATM    6  C6  UNL     1      49.853  50.500  18.895  1.00  0.00     0.028 C 
HETATM    7  C18 UNL     1      50.382  50.213  20.247  1.00  0.00     0.151 C 
HETATM    8  C19 UNL     1      51.857  50.594  20.247  1.00  0.00     0.148 C 
HETATM    9  C20 UNL     1      52.213  51.769  19.459  1.00  0.00     0.044 C 
HETATM   10  C21 UNL     1      51.148  52.621  18.892  1.00  0.00    -0.026 C 
HETATM   11  C22 UNL     1      51.546  52.856  17.430  1.00  0.00     0.016 C 
HETATM   12  C23 UNL     1      51.000  54.002  19.567  1.00  0.00    -0.012 C 
HETATM   13  C24 UNL     1      51.101  53.858  21.069  1.00  0.00     0.021 C 
ENDROOT
BRANCH   6  14
HETATM   14  C7  UNL     1      48.666  49.778  18.390  1.00  0.00     0.022 C 
BRANCH  14  15
HETATM   15  C8  UNL     1      47.753  49.114  19.303  1.00  0.00     0.003 C 
HETATM   16  C9  UNL     1      46.371  48.755  18.826  1.00  0.00     0.005 C 
ENDBRANCH  14  15
BRANCH  14  17
HETATM   17  C10 UNL     1      48.945  49.088  17.104  1.00  0.00     0.130 C 
BRANCH  17  18
HETATM   18  O1  UNL     1      49.176  47.735  17.116  1.00  0.00    -0.395 OA
ATOM     19  H1  UNL     1      49.981  47.412  17.503  1.00  0.00     0.210 HD
ENDBRANCH  17  18
BRANCH  17  20
HETATM   20  C11 UNL     1      47.938  49.356  15.966  1.00  0.00     0.033 C 
HETATM   21  C12 UNL     1      47.449  47.987  15.585  1.00  0.00     0.017 C 
BRANCH  20  22
HETATM   22  C13 UNL     1      48.587  50.079  14.893  1.00  0.00    -0.015 C 
BRANCH  22  23
HETATM   23  C14 UNL     1      49.581  49.929  14.131  1.00  0.00     0.060 C 
BRANCH  23  24
HETATM   24  C15 UNL     1      51.001  49.986  14.169  1.00  0.00     0.177 C 
BRANCH  24  25
HETATM   25  O2  UNL     1      51.651  48.832  14.218  1.00  0.00    -0.341 OA
ATOM     26  H2  UNL     1      51.229  48.115  14.676  1.00  0.00     0.220 HD
ENDBRANCH  24  25
BRANCH  24  27
HETATM   27  O3  UNL     1      51.878  51.032  14.168  1.00  0.00    -0.331 OA
BRANCH  27  28
HETATM   28  C16 UNL     1      53.128  50.933  14.802  1.00  0.00     0.173 C 
HETATM   29  C17 UNL     1      54.163  51.859  14.205  1.00  0.00     0.034 C 
ENDBRANCH  27  28
ENDBRANCH  24  27
ENDBRANCH  23  24
ENDBRANCH  22  23
ENDBRANCH  20  22
ENDBRANCH  17  20
ENDBRANCH  14  17
ENDBRANCH   6  14
BRANCH   7  30
HETATM   30  O4  UNL     1      50.321  48.955  20.760  1.00  0.00    -0.393 OA
ATOM     31  H4  UNL     1      49.510  48.461  20.729  1.00  0.00     0.210 HD
ENDBRANCH   7  30
BRANCH   8  32
HETATM   32  O5  UNL     1      52.253  50.647  21.583  1.00  0.00    -0.393 OA
ATOM     33  H5  UNL     1      52.626  49.799  21.788  1.00  0.00     0.210 HD
ENDBRANCH   8  32
BRANCH  12  34
HETATM   34  C25 UNL     1      52.133  54.896  19.136  1.00  0.00     0.040 C 
BRANCH  34  35
HETATM   35  C26 UNL     1      52.636  55.786  20.209  1.00  0.00     0.165 C 
BRANCH  35  36
HETATM   36  O6  UNL     1      53.684  56.595  19.675  1.00  0.00    -0.401 OA
ATOM     37  H6  UNL     1      54.310  56.776  20.366  1.00  0.00     0.209 HD
ENDBRANCH  35  36
ENDBRANCH  34  35
ENDBRANCH  12  34
TORSDOF 16
ENDMDL
MODEL 2
REMARK VINA RESULT: -8.488618506      2.012      4.272
REMARK  16 active torsions:
REMARK  status: ('A' for Active; 'I' for Inactive)
REMARK    1  A    between atoms: C6_6  and  C7_7 
REMARK    2  A    between atoms: C7_7  and  C8_8 
REMARK    3  A    between atoms: C7_7  and  C10_10 
REMARK    4  A    between atoms: C10_10  and  O1_11 
REMARK    5  A    between atoms: C10_10  and  C11_13 
REMARK    6  A    between atoms: C11_13  and  C13_15 
REMARK    7  A    between atoms: C13_15  and  C14_16 
REMARK    8  A    between atoms: C14_16  and  C15_17 
REMARK    9  A    between atoms: C15_17  and  O2_18 
REMARK   10  A    between atoms: C15_17  and  O3_20 
REMARK   11  A    between atoms: O3_20  and  C16_21 
REMARK   12  A    between atoms: C18_23  and  O4_24 
REMARK   13  A    between atoms: C19_26  and  O5_27 
REMARK   14  A    between atoms: C23_32  and  C25_34 
REMARK   15  A    between atoms: C25_34  and  C26_35 
REMARK   16  A    between atoms: C26_35  and  O6_36 
ROOT
HETATM    1  C1  UNL     1      49.109  55.549  20.157  1.00  0.00     0.015 C 
HETATM    2  C2  UNL     1      50.110  54.824  19.660  1.00  0.00    -0.080 C 
HETATM    3  C3  UNL     1      50.145  54.791  18.167  1.00  0.00     0.034 C 
HETATM    4  C4  UNL     1      50.585  53.437  17.616  1.00  0.00     0.010 C 
HETATM    5  C5  UNL     1      50.655  52.492  18.740  1.00  0.00     0.002 C 
HETATM    6  C6  UNL     1      50.892  51.024  18.393  1.00  0.00     0.028 C 
HETATM    7  C18 UNL     1      50.591  50.338  19.669  1.00  0.00     0.151 C 
HETATM    8  C19 UNL     1      51.762  50.594  20.610  1.00  0.00     0.148 C 
HETATM    9  C20 UNL     1      52.382  51.912  20.513  1.00  0.00     0.044 C 
HETATM   10  C21 UNL     1      51.744  52.963  19.695  1.00  0.00    -0.026 C 
HETATM   11  C22 UNL     1      52.873  53.561  18.846  1.00  0.00     0.016 C 
HETATM   12  C23 UNL     1      51.105  54.111  20.505  1.00  0.00    -0.012 C 
HETATM   13  C24 UNL     1      50.355  53.551  21.693  1.00  0.00     0.021 C 
ENDROOT
BRANCH   6  14
HETATM   14  C7  UNL     1      50.277  50.560  17.132  1.00  0.00     0.022 C 
BRANCH  14  15
HETATM   15  C8  UNL     1      50.952  50.748  15.860  1.00  0.00     0.003 C 
HETATM   16  C9  UNL     1      50.836  49.682  14.803  1.00  0.00     0.005 C 
ENDBRANCH  14  15
BRANCH  14  17
HETATM   17  C10 UNL     1      48.802  50.738  17.138  1.00  0.00     0.130 C 
BRANCH  17  18
HETATM   18  O1  UNL     1      48.236  51.603  16.237  1.00  0.00    -0.395 OA
ATOM     19  H1  UNL     1      47.357  51.925  16.401  1.00  0.00     0.210 HD
ENDBRANCH  17  18
BRANCH  17  20
HETATM   20  C11 UNL     1      47.969  49.439  17.089  1.00  0.00     0.033 C 
HETATM   21  C12 UNL     1      47.403  49.424  15.698  1.00  0.00     0.017 C 
BRANCH  20  22
HETATM   22  C13 UNL     1      46.973  49.452  18.139  1.00  0.00    -0.015 C 
BRANCH  22  23
HETATM   23  C14 UNL     1      46.127  48.660  18.636  1.00  0.00     0.060 C 
BRANCH  23  24
HETATM   24  C15 UNL     1      45.068  47.802  18.229  1.00  0.00     0.177 C 
BRANCH  24  25
HETATM   25  O2  UNL     1      44.659  46.890  19.099  1.00  0.00    -0.341 OA
ATOM     26  H2  UNL     1      43.778  46.983  19.443  1.00  0.00     0.220 HD
ENDBRANCH  24  25
BRANCH  24  27
HETATM   27  O3  UNL     1      44.350  47.717  17.070  1.00  0.00    -0.331 OA
BRANCH  27  28
HETATM   28  C16 UNL     1      44.831  46.988  15.969  1.00  0.00     0.173 C 
HETATM   29  C17 UNL     1      44.406  47.580  14.645  1.00  0.00     0.034 C 
ENDBRANCH  27  28
ENDBRANCH  24  27
ENDBRANCH  23  24
ENDBRANCH  22  23
ENDBRANCH  20  22
ENDBRANCH  17  20
ENDBRANCH  14  17
ENDBRANCH   6  14
BRANCH   7  30
HETATM   30  O4  UNL     1      50.376  48.995  19.697  1.00  0.00    -0.393 OA
ATOM     31  H4  UNL     1      51.076  48.400  19.936  1.00  0.00     0.210 HD
ENDBRANCH   7  30
BRANCH   8  32
HETATM   32  O5  UNL     1      51.327  50.248  21.888  1.00  0.00    -0.393 OA
ATOM     33  H5  UNL     1      51.694  49.392  22.076  1.00  0.00     0.210 HD
ENDBRANCH   8  32
BRANCH  12  34
HETATM   34  C25 UNL     1      52.188  55.003  21.053  1.00  0.00     0.040 C 
BRANCH  34  35
HETATM   35  C26 UNL     1      51.904  55.528  22.409  1.00  0.00     0.165 C 
BRANCH  35  36
HETATM   36  O6  UNL     1      52.823  56.584  22.691  1.00  0.00    -0.401 OA
ATOM     37  H6  UNL     1      53.530  56.237  23.221  1.00  0.00     0.209 HD
ENDBRANCH  35  36
ENDBRANCH  34  35
ENDBRANCH  12  34
TORSDOF 16
ENDMDL
MODEL 3
REMARK VINA RESULT: -8.274062968      1.710      3.698
REMARK  16 active torsions:
REMARK  status: ('A' for Active; 'I' for Inactive)
REMARK    1  A    between atoms: C6_6  and  C7_7 
REMARK    2  A    between atoms: C7_7  and  C8_8 
REMARK    3  A    between atoms: C7_7  and  C10_10 
REMARK    4  A    between atoms: C10_10  and  O1_11 
REMARK    5  A    between atoms: C10_10  and  C11_13 
REMARK    6  A    between atoms: C11_13  and  C13_15 
REMARK    7  A    between atoms: C13_15  and  C14_16 
REMARK    8  A    between atoms: C14_16  and  C15_17 
REMARK    9  A    between atoms: C15_17  and  O2_18 
REMARK   10  A    between atoms: C15_17  and  O3_20 
REMARK   11  A    between atoms: O3_20  and  C16_21 
REMARK   12  A    between atoms: C18_23  and  O4_24 
REMARK   13  A    between atoms: C19_26  and  O5_27 
REMARK   14  A    between atoms: C23_32  and  C25_34 
REMARK   15  A    between atoms: C25_34  and  C26_35 
REMARK   16  A    between atoms: C26_35  and  O6_36 
ROOT
HETATM    1  C1  UNL     1      48.628  55.138  19.816  1.00  0.00     0.015 C 
HETATM    2  C2  UNL     1      49.355  54.282  19.098  1.00  0.00    -0.080 C 
HETATM    3  C3  UNL     1      48.685  53.832  17.841  1.00  0.00     0.034 C 
HETATM    4  C4  UNL     1      48.971  52.369  17.511  1.00  0.00     0.010 C 
HETATM    5  C5  UNL     1      49.675  51.776  18.657  1.00  0.00     0.002 C 
HETATM    6  C6  UNL     1      49.894  50.265  18.625  1.00  0.00     0.028 C 
HETATM    7  C18 UNL     1      50.314  49.970  20.012  1.00  0.00     0.151 C 
HETATM    8  C19 UNL     1      51.750  50.455  20.165  1.00  0.00     0.148 C 
HETATM    9  C20 UNL     1      52.089  51.681  19.448  1.00  0.00     0.044 C 
HETATM   10  C21 UNL     1      51.021  52.474  18.807  1.00  0.00    -0.026 C 
HETATM   11  C22 UNL     1      51.535  52.787  17.397  1.00  0.00     0.016 C 
HETATM   12  C23 UNL     1      50.707  53.815  19.503  1.00  0.00    -0.012 C 
HETATM   13  C24 UNL     1      50.678  53.625  21.003  1.00  0.00     0.021 C 
ENDROOT
BRANCH   6  14
HETATM   14  C7  UNL     1      48.817  49.479  17.987  1.00  0.00     0.022 C 
BRANCH  14  15
HETATM   15  C8  UNL     1      47.634  49.091  18.735  1.00  0.00     0.003 C 
HETATM   16  C9  UNL     1      46.288  49.603  18.296  1.00  0.00     0.005 C 
ENDBRANCH  14  15
BRANCH  14  17
HETATM   17  C10 UNL     1      49.356  48.482  17.025  1.00  0.00     0.130 C 
BRANCH  17  18
HETATM   18  O1  UNL     1      48.964  47.173  17.141  1.00  0.00    -0.395 OA
ATOM     19  H1  UNL     1      49.592  46.488  16.945  1.00  0.00     0.210 HD
ENDBRANCH  17  18
BRANCH  17  20
HETATM   20  C11 UNL     1      49.228  48.853  15.533  1.00  0.00     0.033 C 
HETATM   21  C12 UNL     1      50.263  49.924  15.336  1.00  0.00     0.017 C 
BRANCH  20  22
HETATM   22  C13 UNL     1      47.873  49.271  15.243  1.00  0.00    -0.015 C 
BRANCH  22  23
HETATM   23  C14 UNL     1      46.788  48.742  14.878  1.00  0.00     0.060 C 
BRANCH  23  24
HETATM   24  C15 UNL     1      45.822  47.808  15.342  1.00  0.00     0.177 C 
BRANCH  24  25
HETATM   25  O2  UNL     1      46.274  46.732  15.971  1.00  0.00    -0.341 OA
ATOM     26  H2  UNL     1      45.635  46.074  16.219  1.00  0.00     0.220 HD
ENDBRANCH  24  25
BRANCH  24  27
HETATM   27  O3  UNL     1      44.459  47.785  15.271  1.00  0.00    -0.331 OA
BRANCH  27  28
HETATM   28  C16 UNL     1      43.744  46.583  15.406  1.00  0.00     0.173 C 
HETATM   29  C17 UNL     1      42.509  46.534  14.535  1.00  0.00     0.034 C 
ENDBRANCH  27  28
ENDBRANCH  24  27
ENDBRANCH  23  24
ENDBRANCH  22  23
ENDBRANCH  20  22
ENDBRANCH  17  20
ENDBRANCH  14  17
ENDBRANCH   6  14
BRANCH   7  30
HETATM   30  O4  UNL     1      50.299  48.693  20.481  1.00  0.00    -0.393 OA
ATOM     31  H4  UNL     1      49.885  48.490  21.311  1.00  0.00     0.210 HD
ENDBRANCH   7  30
BRANCH   8  32
HETATM   32  O5  UNL     1      52.013  50.490  21.534  1.00  0.00    -0.393 OA
ATOM     33  H5  UNL     1      52.552  49.731  21.724  1.00  0.00     0.210 HD
ENDBRANCH   8  32
BRANCH  12  34
HETATM   34  C25 UNL     1      51.805  54.803  19.209  1.00  0.00     0.040 C 
BRANCH  34  35
HETATM   35  C26 UNL     1      52.305  55.519  20.406  1.00  0.00     0.165 C 
BRANCH  35  36
HETATM   36  O6  UNL     1      53.330  56.426  20.000  1.00  0.00    -0.401 OA
ATOM     37  H6  UNL     1      53.392  57.122  20.644  1.00  0.00     0.209 HD
ENDBRANCH  35  36
ENDBRANCH  34  35
ENDBRANCH  12  34
TORSDOF 16
ENDMDL
MODEL 4
REMARK VINA RESULT: -7.825691045      2.185      4.763
REMARK  16 active torsions:
REMARK  status: ('A' for Active; 'I' for Inactive)
REMARK    1  A    between atoms: C6_6  and  C7_7 
REMARK    2  A    between atoms: C7_7  and  C8_8 
REMARK    3  A    between atoms: C7_7  and  C10_10 
REMARK    4  A    between atoms: C10_10  and  O1_11 
REMARK    5  A    between atoms: C10_10  and  C11_13 
REMARK    6  A    between atoms: C11_13  and  C13_15 
REMARK    7  A    between atoms: C13_15  and  C14_16 
REMARK    8  A    between atoms: C14_16  and  C15_17 
REMARK    9  A    between atoms: C15_17  and  O2_18 
REMARK   10  A    between atoms: C15_17  and  O3_20 
REMARK   11  A    between atoms: O3_20  and  C16_21 
REMARK   12  A    between atoms: C18_23  and  O4_24 
REMARK   13  A    between atoms: C19_26  and  O5_27 
REMARK   14  A    between atoms: C23_32  and  C25_34 
REMARK   15  A    between atoms: C25_34  and  C26_35 
REMARK   16  A    between atoms: C26_35  and  O6_36 
ROOT
HETATM    1  C1  UNL     1      52.728  57.192  19.218  1.00  0.00     0.015 C 
HETATM    2  C2  UNL     1      52.059  56.130  19.664  1.00  0.00    -0.080 C 
HETATM    3  C3  UNL     1      52.940  55.014  20.122  1.00  0.00     0.034 C 
HETATM    4  C4  UNL     1      52.370  53.637  19.790  1.00  0.00     0.010 C 
HETATM    5  C5  UNL     1      51.196  53.830  18.928  1.00  0.00     0.002 C 
HETATM    6  C6  UNL     1      50.577  52.575  18.316  1.00  0.00     0.028 C 
HETATM    7  C18 UNL     1      49.666  53.131  17.291  1.00  0.00     0.151 C 
HETATM    8  C19 UNL     1      48.460  53.708  18.021  1.00  0.00     0.148 C 
HETATM    9  C20 UNL     1      48.735  54.343  19.306  1.00  0.00     0.044 C 
HETATM   10  C21 UNL     1      50.133  54.575  19.724  1.00  0.00    -0.026 C 
HETATM   11  C22 UNL     1      50.213  54.080  21.173  1.00  0.00     0.016 C 
HETATM   12  C23 UNL     1      50.574  56.054  19.705  1.00  0.00    -0.012 C 
HETATM   13  C24 UNL     1      50.062  56.731  18.454  1.00  0.00     0.021 C 
ENDROOT
BRANCH   6  14
HETATM   14  C7  UNL     1      51.530  51.501  17.964  1.00  0.00     0.022 C 
BRANCH  14  15
HETATM   15  C8  UNL     1      51.882  51.241  16.580  1.00  0.00     0.003 C 
HETATM   16  C9  UNL     1      53.236  51.665  16.076  1.00  0.00     0.005 C 
ENDBRANCH  14  15
BRANCH  14  17
HETATM   17  C10 UNL     1      51.378  50.316  18.848  1.00  0.00     0.130 C 
BRANCH  17  18
HETATM   18  O1  UNL     1      52.467  49.875  19.556  1.00  0.00    -0.395 OA
ATOM     19  H1  UNL     1      52.479  48.977  19.865  1.00  0.00     0.210 HD
ENDBRANCH  17  18
BRANCH  17  20
HETATM   20  C11 UNL     1      50.195  50.365  19.838  1.00  0.00     0.033 C 
HETATM   21  C12 UNL     1      50.768  49.816  21.114  1.00  0.00     0.017 C 
BRANCH  20  22
HETATM   22  C13 UNL     1      49.079  49.610  19.311  1.00  0.00    -0.015 C 
BRANCH  22  23
HETATM   23  C14 UNL     1      47.972  49.843  18.752  1.00  0.00     0.060 C 
BRANCH  23  24
HETATM   24  C15 UNL     1      47.286  49.566  17.538  1.00  0.00     0.177 C 
BRANCH  24  25
HETATM   25  O2  UNL     1      46.172  48.854  17.621  1.00  0.00    -0.341 OA
ATOM     26  H2  UNL     1      45.505  49.013  16.963  1.00  0.00     0.220 HD
ENDBRANCH  24  25
BRANCH  24  27
HETATM   27  O3  UNL     1      47.549  49.896  16.239  1.00  0.00    -0.331 OA
BRANCH  27  28
HETATM   28  C16 UNL     1      48.105  48.960  15.350  1.00  0.00     0.173 C 
HETATM   29  C17 UNL     1      49.594  48.781  15.544  1.00  0.00     0.034 C 
ENDBRANCH  27  28
ENDBRANCH  24  27
ENDBRANCH  23  24
ENDBRANCH  22  23
ENDBRANCH  20  22
ENDBRANCH  17  20
ENDBRANCH  14  17
ENDBRANCH   6  14
BRANCH   7  30
HETATM   30  O4  UNL     1      49.163  52.335  16.309  1.00  0.00    -0.393 OA
ATOM     31  H4  UNL     1      48.770  52.716  15.534  1.00  0.00     0.210 HD
ENDBRANCH   7  30
BRANCH   8  32
HETATM   32  O5  UNL     1      47.790  54.516  17.103  1.00  0.00    -0.393 OA
ATOM     33  H5  UNL     1      47.323  53.931  16.518  1.00  0.00     0.210 HD
ENDBRANCH   8  32
BRANCH  12  34
HETATM   34  C25 UNL     1      49.961  56.776  20.876  1.00  0.00     0.040 C 
BRANCH  34  35
HETATM   35  C26 UNL     1      49.025  57.858  20.489  1.00  0.00     0.165 C 
BRANCH  35  36
HETATM   36  O6  UNL     1      48.886  58.755  21.591  1.00  0.00    -0.401 OA
ATOM     37  H6  UNL     1      49.503  58.503  22.268  1.00  0.00     0.209 HD
ENDBRANCH  35  36
ENDBRANCH  34  35
ENDBRANCH  12  34
TORSDOF 16
ENDMDL
MODEL 5
REMARK VINA RESULT: -7.773900314      1.613      3.473
REMARK  16 active torsions:
REMARK  status: ('A' for Active; 'I' for Inactive)
REMARK    1  A    between atoms: C6_6  and  C7_7 
REMARK    2  A    between atoms: C7_7  and  C8_8 
REMARK    3  A    between atoms: C7_7  and  C10_10 
REMARK    4  A    between atoms: C10_10  and  O1_11 
REMARK    5  A    between atoms: C10_10  and  C11_13 
REMARK    6  A    between atoms: C11_13  and  C13_15 
REMARK    7  A    between atoms: C13_15  and  C14_16 
REMARK    8  A    between atoms: C14_16  and  C15_17 
REMARK    9  A    between atoms: C15_17  and  O2_18 
REMARK   10  A    between atoms: C15_17  and  O3_20 
REMARK   11  A    between atoms: O3_20  and  C16_21 
REMARK   12  A    between atoms: C18_23  and  O4_24 
REMARK   13  A    between atoms: C19_26  and  O5_27 
REMARK   14  A    between atoms: C23_32  and  C25_34 
REMARK   15  A    between atoms: C25_34  and  C26_35 
REMARK   16  A    between atoms: C26_35  and  O6_36 
ROOT
HETATM    1  C1  UNL     1      48.945  55.675  20.559  1.00  0.00     0.015 C 
HETATM    2  C2  UNL     1      49.842  55.014  19.828  1.00  0.00    -0.080 C 
HETATM    3  C3  UNL     1      49.442  54.839  18.400  1.00  0.00     0.034 C 
HETATM    4  C4  UNL     1      49.874  53.490  17.827  1.00  0.00     0.010 C 
HETATM    5  C5  UNL     1      50.392  52.674  18.935  1.00  0.00     0.002 C 
HETATM    6  C6  UNL     1      50.705  51.212  18.625  1.00  0.00     0.028 C 
HETATM    7  C18 UNL     1      50.882  50.627  19.972  1.00  0.00     0.151 C 
HETATM    8  C19 UNL     1      52.233  51.095  20.497  1.00  0.00     0.148 C 
HETATM    9  C20 UNL     1      52.622  52.455  20.135  1.00  0.00     0.044 C 
HETATM   10  C21 UNL     1      51.642  53.348  19.484  1.00  0.00    -0.026 C 
HETATM   11  C22 UNL     1      52.385  53.975  18.298  1.00  0.00     0.016 C 
HETATM   12  C23 UNL     1      51.124  54.497  20.376  1.00  0.00    -0.012 C 
HETATM   13  C24 UNL     1      50.833  53.980  21.768  1.00  0.00     0.021 C 
ENDROOT
BRANCH   6  14
HETATM   14  C7  UNL     1      49.813  50.563  17.640  1.00  0.00     0.022 C 
BRANCH  14  15
HETATM   15  C8  UNL     1      49.045  49.383  17.995  1.00  0.00     0.003 C 
HETATM   16  C9  UNL     1      47.673  49.553  18.590  1.00  0.00     0.005 C 
ENDBRANCH  14  15
BRANCH  14  17
HETATM   17  C10 UNL     1      50.383  50.603  16.268  1.00  0.00     0.130 C 
BRANCH  17  18
HETATM   18  O1  UNL     1      51.745  50.667  16.120  1.00  0.00    -0.395 OA
ATOM     19  H1  UNL     1      52.139  51.493  15.864  1.00  0.00     0.210 HD
ENDBRANCH  17  18
BRANCH  17  20
HETATM   20  C11 UNL     1      49.882  49.509  15.302  1.00  0.00     0.033 C 
HETATM   21  C12 UNL     1      50.912  49.491  14.209  1.00  0.00     0.017 C 
BRANCH  20  22
HETATM   22  C13 UNL     1      48.541  49.822  14.855  1.00  0.00    -0.015 C 
BRANCH  22  23
HETATM   23  C14 UNL     1      47.527  49.203  14.432  1.00  0.00     0.060 C 
BRANCH  23  24
HETATM   24  C15 UNL     1      46.402  48.489  14.927  1.00  0.00     0.177 C 
BRANCH  24  25
HETATM   25  O2  UNL     1      46.013  47.422  14.243  1.00  0.00    -0.341 OA
ATOM     26  H2  UNL     1      45.366  47.557  13.560  1.00  0.00     0.220 HD
ENDBRANCH  24  25
BRANCH  24  27
HETATM   27  O3  UNL     1      45.597  48.683  16.012  1.00  0.00    -0.331 OA
BRANCH  27  28
HETATM   28  C16 UNL     1      44.890  47.616  16.592  1.00  0.00     0.173 C 
HETATM   29  C17 UNL     1      44.928  47.641  18.104  1.00  0.00     0.034 C 
ENDBRANCH  27  28
ENDBRANCH  24  27
ENDBRANCH  23  24
ENDBRANCH  22  23
ENDBRANCH  20  22
ENDBRANCH  17  20
ENDBRANCH  14  17
ENDBRANCH   6  14
BRANCH   7  30
HETATM   30  O4  UNL     1      50.861  49.278  20.147  1.00  0.00    -0.393 OA
ATOM     31  H4  UNL     1      50.229  48.742  19.684  1.00  0.00     0.210 HD
ENDBRANCH   7  30
BRANCH   8  32
HETATM   32  O5  UNL     1      52.240  50.833  21.866  1.00  0.00    -0.393 OA
ATOM     33  H5  UNL     1      51.856  49.972  21.978  1.00  0.00     0.210 HD
ENDBRANCH   8  32
BRANCH  12  34
HETATM   34  C25 UNL     1      52.195  55.547  20.514  1.00  0.00     0.040 C 
BRANCH  34  35
HETATM   35  C26 UNL     1      52.212  56.216  21.837  1.00  0.00     0.165 C 
BRANCH  35  36
HETATM   36  O6  UNL     1      53.437  56.938  21.966  1.00  0.00    -0.401 OA
ATOM     37  H6  UNL     1      53.235  57.859  22.084  1.00  0.00     0.209 HD
ENDBRANCH  35  36
ENDBRANCH  34  35
ENDBRANCH  12  34
TORSDOF 16
ENDMDL
