MODEL 1
REMARK VINA RESULT: -9.046126850      0.000      0.000
REMARK  4 active torsions:
REMARK  status: ('A' for Active; 'I' for Inactive)
REMARK    1  A    between atoms: N1_1  and  C1_4 
REMARK    2  A    between atoms: C4_15  and  O1_16 
REMARK    3  A    between atoms: C5_18  and  C6_19 
REMARK    4  A    between atoms: C13_26  and  O2_27 
ROOT
HETATM    1  C1  UNL     1      36.204  50.392  75.920  1.00  0.00     0.703 A 
HETATM    2  N2  UNL     1      35.076  50.602  75.194  1.00  0.00    -0.163 N 
ATOM      3  H2  UNL     1      34.763  49.894  74.529  1.00  0.00     0.186 HD
HETATM    4  C2  UNL     1      34.381  51.713  75.341  1.00  0.00     0.206 A 
HETATM    5  S1  UNL     1      33.013  52.007  74.512  1.00  0.00    -0.039 SA
HETATM    6  N3  UNL     1      34.812  52.629  76.217  1.00  0.00    -0.252 N 
ATOM      7  H3  UNL     1      34.287  53.495  76.341  1.00  0.00     0.191 HD
HETATM    8  N4  UNL     1      35.928  52.421  76.935  1.00  0.00    -0.153 N 
HETATM    9  C3  UNL     1      36.516  53.203  77.843  1.00  0.00     0.164 A 
HETATM   10  N5  UNL     1      36.473  54.376  78.461  1.00  0.00    -0.319 N 
ATOM     11  H5  UNL     1      35.748  55.078  78.317  1.00  0.00     0.169 HD
HETATM   12  C4  UNL     1      37.496  54.513  79.290  1.00  0.00     0.149 A 
HETATM   13  C5  UNL     1      38.307  53.368  79.258  1.00  0.00     0.015 A 
HETATM   14  C12 UNL     1      37.723  52.529  78.356  1.00  0.00     0.076 A 
HETATM   15  C13 UNL     1      37.719  51.337  77.634  1.00  0.00     0.197 A 
HETATM   16  N6  UNL     1      36.637  51.325  76.810  1.00  0.00    -0.040 N 
ENDROOT
BRANCH  13  17
HETATM   17  C6  UNL     1      39.542  53.278  79.992  1.00  0.00     0.024 C 
HETATM   18  C7  UNL     1      39.459  53.848  81.404  1.00  0.00     0.009 C 
HETATM   19  C8  UNL     1      39.213  52.906  82.513  1.00  0.00     0.001 C 
HETATM   20  C9  UNL     1      40.530  52.117  82.705  1.00  0.00     0.000 C 
HETATM   21  C10 UNL     1      41.072  51.755  81.333  1.00  0.00     0.001 C 
HETATM   22  C11 UNL     1      39.946  51.823  80.287  1.00  0.00     0.009 C 
ENDBRANCH  13  17
BRANCH  12  23
HETATM   23  O1  UNL     1      37.731  55.623  80.071  1.00  0.00    -0.346 OA
ATOM     24  H1  UNL     1      38.460  55.717  80.672  1.00  0.00     0.219 HD
ENDBRANCH  12  23
BRANCH  15  25
HETATM   25  O2  UNL     1      38.660  50.345  77.738  1.00  0.00    -0.344 OA
ATOM     26  H2  UNL     1      39.539  50.383  77.378  1.00  0.00     0.219 HD
ENDBRANCH  15  25
BRANCH   1  27
HETATM   27  N1  UNL     1      36.858  49.318  75.729  1.00  0.00    -0.233 N 
ATOM     28  H12 UNL     1      37.333  49.144  74.843  1.00  0.00     0.174 HD
ATOM     29  H11 UNL     1      36.881  48.622  76.475  1.00  0.00     0.174 HD
ENDBRANCH   1  27
TORSDOF 4
ENDMDL
MODEL 2
REMARK VINA RESULT: -8.463266826      3.194      6.740
REMARK  4 active torsions:
REMARK  status: ('A' for Active; 'I' for Inactive)
REMARK    1  A    between atoms: N1_1  and  C1_4 
REMARK    2  A    between atoms: C4_15  and  O1_16 
REMARK    3  A    between atoms: C5_18  and  C6_19 
REMARK    4  A    between atoms: C13_26  and  O2_27 
ROOT
HETATM    1  C1  UNL     1      38.408  54.026  80.014  1.00  0.00     0.703 A 
HETATM    2  N2  UNL     1      39.404  53.681  80.869  1.00  0.00    -0.163 N 
ATOM      3  H2  UNL     1      39.707  54.341  81.585  1.00  0.00     0.186 HD
HETATM    4  C2  UNL     1      39.984  52.500  80.781  1.00  0.00     0.206 A 
HETATM    5  S1  UNL     1      41.169  52.028  81.790  1.00  0.00    -0.039 SA
HETATM    6  N3  UNL     1      39.572  51.651  79.831  1.00  0.00    -0.252 N 
ATOM      7  H3  UNL     1      40.012  50.735  79.748  1.00  0.00     0.191 HD
HETATM    8  N4  UNL     1      38.586  51.993  78.986  1.00  0.00    -0.153 N 
HETATM    9  C3  UNL     1      38.043  51.298  77.983  1.00  0.00     0.164 A 
HETATM   10  N5  UNL     1      38.091  50.167  77.292  1.00  0.00    -0.319 N 
ATOM     11  H5  UNL     1      38.730  49.397  77.487  1.00  0.00     0.169 HD
HETATM   12  C4  UNL     1      37.198  50.172  76.313  1.00  0.00     0.149 A 
HETATM   13  C5  UNL     1      36.476  51.375  76.317  1.00  0.00     0.015 A 
HETATM   14  C12 UNL     1      36.986  52.106  77.349  1.00  0.00     0.076 A 
HETATM   15  C13 UNL     1      37.028  53.281  78.099  1.00  0.00     0.197 A 
HETATM   16  N6  UNL     1      37.991  53.160  79.052  1.00  0.00    -0.040 N 
ENDROOT
BRANCH  13  17
HETATM   17  C6  UNL     1      35.502  51.693  75.306  1.00  0.00     0.024 C 
HETATM   18  C7  UNL     1      34.292  52.454  75.838  1.00  0.00     0.009 C 
HETATM   19  C8  UNL     1      34.294  53.924  75.709  1.00  0.00     0.001 C 
HETATM   20  C9  UNL     1      34.060  54.223  74.209  1.00  0.00     0.000 C 
HETATM   21  C10 UNL     1      34.903  53.257  73.394  1.00  0.00     0.001 C 
HETATM   22  C11 UNL     1      36.039  52.687  74.263  1.00  0.00     0.009 C 
ENDBRANCH  13  17
BRANCH  12  23
HETATM   23  O1  UNL     1      37.009  49.142  75.419  1.00  0.00    -0.346 OA
ATOM     24  H1  UNL     1      36.487  49.202  74.628  1.00  0.00     0.219 HD
ENDBRANCH  12  23
BRANCH  15  25
HETATM   25  O2  UNL     1      36.232  54.378  77.897  1.00  0.00    -0.344 OA
ATOM     26  H2  UNL     1      36.254  55.176  78.414  1.00  0.00     0.219 HD
ENDBRANCH  15  25
BRANCH   1  27
HETATM   27  N1  UNL     1      37.892  55.185  80.117  1.00  0.00    -0.233 N 
ATOM     28  H12 UNL     1      37.888  55.828  79.326  1.00  0.00     0.174 HD
ATOM     29  H11 UNL     1      37.501  55.466  81.017  1.00  0.00     0.174 HD
ENDBRANCH   1  27
TORSDOF 4
ENDMDL
MODEL 3
REMARK VINA RESULT: -8.139858821      3.195      6.779
REMARK  4 active torsions:
REMARK  status: ('A' for Active; 'I' for Inactive)
REMARK    1  A    between atoms: N1_1  and  C1_4 
REMARK    2  A    between atoms: C4_15  and  O1_16 
REMARK    3  A    between atoms: C5_18  and  C6_19 
REMARK    4  A    between atoms: C13_26  and  O2_27 
ROOT
HETATM    1  C1  UNL     1      37.865  54.533  80.013  1.00  0.00     0.703 A 
HETATM    2  N2  UNL     1      38.809  54.480  80.986  1.00  0.00    -0.163 N 
ATOM      3  H2  UNL     1      38.913  55.262  81.633  1.00  0.00     0.186 HD
HETATM    4  C2  UNL     1      39.595  53.427  81.102  1.00  0.00     0.206 A 
HETATM    5  S1  UNL     1      40.729  53.303  82.260  1.00  0.00    -0.039 SA
HETATM    6  N3  UNL     1      39.442  52.415  80.239  1.00  0.00    -0.252 N 
ATOM      7  H3  UNL     1      40.043  51.594  80.313  1.00  0.00     0.191 HD
HETATM    8  N4  UNL     1      38.507  52.467  79.276  1.00  0.00    -0.153 N 
HETATM    9  C3  UNL     1      38.206  51.575  78.330  1.00  0.00     0.164 A 
HETATM   10  N5  UNL     1      38.526  50.403  77.798  1.00  0.00    -0.319 N 
ATOM     11  H5  UNL     1      39.266  49.793  78.146  1.00  0.00     0.169 HD
HETATM   12  C4  UNL     1      37.756  50.130  76.756  1.00  0.00     0.149 A 
HETATM   13  C5  UNL     1      36.837  51.168  76.542  1.00  0.00     0.015 A 
HETATM   14  C12 UNL     1      37.097  52.093  77.510  1.00  0.00     0.076 A 
HETATM   15  C13 UNL     1      36.851  53.331  78.101  1.00  0.00     0.197 A 
HETATM   16  N6  UNL     1      37.712  53.501  79.139  1.00  0.00    -0.040 N 
ENDROOT
BRANCH  13  17
HETATM   17  C6  UNL     1      35.936  51.180  75.419  1.00  0.00     0.024 C 
HETATM   18  C7  UNL     1      34.745  50.241  75.580  1.00  0.00     0.009 C 
HETATM   19  C8  UNL     1      33.478  50.815  76.073  1.00  0.00     0.001 C 
HETATM   20  C9  UNL     1      32.903  51.652  74.905  1.00  0.00     0.000 C 
HETATM   21  C10 UNL     1      34.044  52.428  74.269  1.00  0.00     0.001 C 
HETATM   22  C11 UNL     1      35.222  52.533  75.253  1.00  0.00     0.009 C 
ENDBRANCH  13  17
BRANCH  12  23
HETATM   23  O1  UNL     1      37.848  48.988  75.990  1.00  0.00    -0.346 OA
ATOM     24  H1  UNL     1      37.438  48.872  75.141  1.00  0.00     0.219 HD
ENDBRANCH  12  23
BRANCH  15  25
HETATM   25  O2  UNL     1      35.899  54.230  77.691  1.00  0.00    -0.344 OA
ATOM     26  H2  UNL     1      36.075  55.102  77.357  1.00  0.00     0.219 HD
ENDBRANCH  15  25
BRANCH   1  27
HETATM   27  N1  UNL     1      37.145  55.578  79.920  1.00  0.00    -0.233 N 
ATOM     28  H12 UNL     1      36.767  55.875  79.021  1.00  0.00     0.174 HD
ATOM     29  H11 UNL     1      36.970  56.126  80.763  1.00  0.00     0.174 HD
ENDBRANCH   1  27
TORSDOF 4
ENDMDL
MODEL 4
REMARK VINA RESULT: -7.261253553      3.110      6.992
REMARK  4 active torsions:
REMARK  status: ('A' for Active; 'I' for Inactive)
REMARK    1  A    between atoms: N1_1  and  C1_4 
REMARK    2  A    between atoms: C4_15  and  O1_16 
REMARK    3  A    between atoms: C5_18  and  C6_19 
REMARK    4  A    between atoms: C13_26  and  O2_27 
ROOT
HETATM    1  C1  UNL     1      38.294  53.825  79.875  1.00  0.00     0.703 A 
HETATM    2  N2  UNL     1      39.305  53.507  80.723  1.00  0.00    -0.163 N 
ATOM      3  H2  UNL     1      39.593  54.175  81.439  1.00  0.00     0.186 HD
HETATM    4  C2  UNL     1      39.917  52.343  80.630  1.00  0.00     0.206 A 
HETATM    5  S1  UNL     1      41.120  51.904  81.632  1.00  0.00    -0.039 SA
HETATM    6  N3  UNL     1      39.523  51.485  79.681  1.00  0.00    -0.252 N 
ATOM      7  H3  UNL     1      39.989  50.581  79.594  1.00  0.00     0.191 HD
HETATM    8  N4  UNL     1      38.523  51.799  78.842  1.00  0.00    -0.153 N 
HETATM    9  C3  UNL     1      37.995  51.091  77.841  1.00  0.00     0.164 A 
HETATM   10  N5  UNL     1      38.070  49.963  77.148  1.00  0.00    -0.319 N 
ATOM     11  H5  UNL     1      38.732  49.211  77.339  1.00  0.00     0.169 HD
HETATM   12  C4  UNL     1      37.172  49.944  76.175  1.00  0.00     0.149 A 
HETATM   13  C5  UNL     1      36.416  51.126  76.185  1.00  0.00     0.015 A 
HETATM   14  C12 UNL     1      36.911  51.869  77.215  1.00  0.00     0.076 A 
HETATM   15  C13 UNL     1      36.925  53.044  77.966  1.00  0.00     0.197 A 
HETATM   16  N6  UNL     1      37.896  52.949  78.914  1.00  0.00    -0.040 N 
ENDROOT
BRANCH  13  17
HETATM   17  C6  UNL     1      35.427  51.417  75.179  1.00  0.00     0.024 C 
HETATM   18  C7  UNL     1      35.118  50.237  74.265  1.00  0.00     0.009 C 
HETATM   19  C8  UNL     1      33.941  49.406  74.589  1.00  0.00     0.001 C 
HETATM   20  C9  UNL     1      32.702  50.259  74.225  1.00  0.00     0.000 C 
HETATM   21  C10 UNL     1      32.946  51.680  74.700  1.00  0.00     0.001 C 
HETATM   22  C11 UNL     1      34.040  51.694  75.782  1.00  0.00     0.009 C 
ENDBRANCH  13  17
BRANCH  12  23
HETATM   23  O1  UNL     1      37.007  48.910  75.280  1.00  0.00    -0.346 OA
ATOM     24  H1  UNL     1      36.652  49.005  74.404  1.00  0.00     0.219 HD
ENDBRANCH  12  23
BRANCH  15  25
HETATM   25  O2  UNL     1      36.096  54.119  77.771  1.00  0.00    -0.344 OA
ATOM     26  H2  UNL     1      36.266  55.005  78.070  1.00  0.00     0.219 HD
ENDBRANCH  15  25
BRANCH   1  27
HETATM   27  N1  UNL     1      37.746  54.969  79.983  1.00  0.00    -0.233 N 
ATOM     28  H12 UNL     1      37.093  55.167  80.740  1.00  0.00     0.174 HD
ATOM     29  H11 UNL     1      37.960  55.679  79.282  1.00  0.00     0.174 HD
ENDBRANCH   1  27
TORSDOF 4
ENDMDL
MODEL 5
REMARK VINA RESULT: -7.193764978      3.026      7.045
REMARK  4 active torsions:
REMARK  status: ('A' for Active; 'I' for Inactive)
REMARK    1  A    between atoms: N1_1  and  C1_4 
REMARK    2  A    between atoms: C4_15  and  O1_16 
REMARK    3  A    between atoms: C5_18  and  C6_19 
REMARK    4  A    between atoms: C13_26  and  O2_27 
ROOT
HETATM    1  C1  UNL     1      37.751  54.542  79.878  1.00  0.00     0.703 A 
HETATM    2  N2  UNL     1      38.800  54.261  80.693  1.00  0.00    -0.163 N 
ATOM      3  H2  UNL     1      39.068  54.926  81.419  1.00  0.00     0.186 HD
HETATM    4  C2  UNL     1      39.475  53.137  80.554  1.00  0.00     0.206 A 
HETATM    5  S1  UNL     1      40.726  52.742  81.514  1.00  0.00    -0.039 SA
HETATM    6  N3  UNL     1      39.107  52.282  79.592  1.00  0.00    -0.252 N 
ATOM      7  H3  UNL     1      39.620  51.409  79.470  1.00  0.00     0.191 HD
HETATM    8  N4  UNL     1      38.069  52.560  78.786  1.00  0.00    -0.153 N 
HETATM    9  C3  UNL     1      37.557  51.847  77.780  1.00  0.00     0.164 A 
HETATM   10  N5  UNL     1      37.679  50.744  77.055  1.00  0.00    -0.319 N 
ATOM     11  H5  UNL     1      38.386  50.026  77.209  1.00  0.00     0.169 HD
HETATM   12  C4  UNL     1      36.759  50.698  76.103  1.00  0.00     0.149 A 
HETATM   13  C5  UNL     1      35.937  51.834  76.162  1.00  0.00     0.015 A 
HETATM   14  C12 UNL     1      36.415  52.578  77.200  1.00  0.00     0.076 A 
HETATM   15  C13 UNL     1      36.381  53.732  77.982  1.00  0.00     0.197 A 
HETATM   16  N6  UNL     1      37.380  53.669  78.903  1.00  0.00    -0.040 N 
ENDROOT
BRANCH  13  17
HETATM   17  C6  UNL     1      34.908  52.093  75.189  1.00  0.00     0.024 C 
HETATM   18  C7  UNL     1      35.430  52.708  73.895  1.00  0.00     0.009 C 
HETATM   19  C8  UNL     1      35.695  51.801  72.761  1.00  0.00     0.001 C 
HETATM   20  C9  UNL     1      34.309  51.373  72.222  1.00  0.00     0.000 C 
HETATM   21  C10 UNL     1      33.408  51.075  73.409  1.00  0.00     0.001 C 
HETATM   22  C11 UNL     1      34.260  50.803  74.661  1.00  0.00     0.009 C 
ENDBRANCH  13  17
BRANCH  12  23
HETATM   23  O1  UNL     1      36.629  49.679  75.185  1.00  0.00    -0.346 OA
ATOM     24  H1  UNL     1      35.895  49.577  74.591  1.00  0.00     0.219 HD
ENDBRANCH  12  23
BRANCH  15  25
HETATM   25  O2  UNL     1      35.488  54.762  77.835  1.00  0.00    -0.344 OA
ATOM     26  H2  UNL     1      35.514  55.584  78.313  1.00  0.00     0.219 HD
ENDBRANCH  15  25
BRANCH   1  27
HETATM   27  N1  UNL     1      37.143  55.649  80.029  1.00  0.00    -0.233 N 
ATOM     28  H12 UNL     1      36.428  55.948  79.367  1.00  0.00     0.174 HD
ATOM     29  H11 UNL     1      37.400  56.243  80.818  1.00  0.00     0.174 HD
ENDBRANCH   1  27
TORSDOF 4
ENDMDL
