MODEL 1
REMARK VINA RESULT: -3.742893984      0.000      0.000
REMARK  2 active torsions:
REMARK  status: ('A' for Active; 'I' for Inactive)
REMARK    1  A    between atoms: C2_2  and  C3_3 
REMARK       I    between atoms: C3_3  and  N1_5 
REMARK    2  A    between atoms: N1_5  and  C4_7 
ROOT
HETATM    1  C3  UNL     1      35.121  20.967  10.629  1.00  0.00     0.240 C 
HETATM    2  O1  UNL     1      35.603  21.220   9.472  1.00  0.00    -0.269 OA
HETATM    3  N1  UNL     1      34.264  19.846  10.802  1.00  0.00    -0.353 N 
ATOM      4  H1  UNL     1      33.869  19.628  11.716  1.00  0.00     0.163 HD
ENDROOT
BRANCH   3   5
HETATM    5  C4  UNL     1      33.958  19.003   9.628  1.00  0.00     0.084 A 
HETATM    6  C5  UNL     1      32.605  18.346   9.714  1.00  0.00     0.027 A 
HETATM    7  C6  UNL     1      33.868  17.536   9.787  1.00  0.00     0.027 A 
ENDBRANCH   3   5
BRANCH   1   8
HETATM    8  C2  UNL     1      35.453  21.822  11.739  1.00  0.00     0.064 C 
HETATM    9  C1  UNL     1      35.193  21.492  12.965  1.00  0.00     0.017 C 
ENDBRANCH   1   8
TORSDOF 2
ENDMDL
MODEL 2
REMARK VINA RESULT: -3.692331777      1.268      1.268
REMARK  2 active torsions:
REMARK  status: ('A' for Active; 'I' for Inactive)
REMARK    1  A    between atoms: C2_2  and  C3_3 
REMARK       I    between atoms: C3_3  and  N1_5 
REMARK    2  A    between atoms: N1_5  and  C4_7 
ROOT
HETATM    1  C3  UNL     1      34.861  20.564  11.384  1.00  0.00     0.240 C 
HETATM    2  O1  UNL     1      35.185  20.558  10.147  1.00  0.00    -0.269 OA
HETATM    3  N1  UNL     1      34.062  19.509  11.904  1.00  0.00    -0.353 N 
ATOM      4  H1  UNL     1      33.792  19.496  12.888  1.00  0.00     0.163 HD
ENDROOT
BRANCH   3   5
HETATM    5  C4  UNL     1      33.631  18.432  10.990  1.00  0.00     0.084 A 
HETATM    6  C5  UNL     1      32.296  17.843  11.365  1.00  0.00     0.027 A 
HETATM    7  C6  UNL     1      33.560  17.041  11.485  1.00  0.00     0.027 A 
ENDBRANCH   3   5
BRANCH   1   8
HETATM    8  C2  UNL     1      35.309  21.639  12.231  1.00  0.00     0.064 C 
HETATM    9  C1  UNL     1      34.602  22.073  13.226  1.00  0.00     0.017 C 
ENDBRANCH   1   8
TORSDOF 2
ENDMDL
MODEL 3
REMARK VINA RESULT: -3.683833654      2.311      2.590
REMARK  2 active torsions:
REMARK  status: ('A' for Active; 'I' for Inactive)
REMARK    1  A    between atoms: C2_2  and  C3_3 
REMARK       I    between atoms: C3_3  and  N1_5 
REMARK    2  A    between atoms: N1_5  and  C4_7 
ROOT
HETATM    1  C3  UNL     1      34.849  21.510  10.485  1.00  0.00     0.240 C 
HETATM    2  O1  UNL     1      35.292  20.540   9.780  1.00  0.00    -0.269 OA
HETATM    3  N1  UNL     1      33.681  22.204  10.065  1.00  0.00    -0.353 N 
ATOM      4  H1  UNL     1      33.312  22.982  10.612  1.00  0.00     0.163 HD
ENDROOT
BRANCH   3   5
HETATM    5  C4  UNL     1      33.014  21.776   8.818  1.00  0.00     0.084 A 
HETATM    6  C5  UNL     1      31.716  22.499   8.570  1.00  0.00     0.027 A 
HETATM    7  C6  UNL     1      31.739  21.032   8.893  1.00  0.00     0.027 A 
ENDBRANCH   3   5
BRANCH   1   8
HETATM    8  C2  UNL     1      35.538  21.886  11.692  1.00  0.00     0.064 C 
HETATM    9  C1  UNL     1      35.217  21.399  12.849  1.00  0.00     0.017 C 
ENDBRANCH   1   8
TORSDOF 2
ENDMDL
MODEL 4
REMARK VINA RESULT: -3.593108066      2.353      2.744
REMARK  2 active torsions:
REMARK  status: ('A' for Active; 'I' for Inactive)
REMARK    1  A    between atoms: C2_2  and  C3_3 
REMARK       I    between atoms: C3_3  and  N1_5 
REMARK    2  A    between atoms: N1_5  and  C4_7 
ROOT
HETATM    1  C3  UNL     1      34.805  21.047  10.252  1.00  0.00     0.240 C 
HETATM    2  O1  UNL     1      34.878  19.771  10.214  1.00  0.00    -0.269 OA
HETATM    3  N1  UNL     1      34.089  21.738   9.237  1.00  0.00    -0.353 N 
ATOM      4  H1  UNL     1      34.020  22.755   9.248  1.00  0.00     0.163 HD
ENDROOT
BRANCH   3   5
HETATM    5  C4  UNL     1      33.445  20.950   8.165  1.00  0.00     0.084 A 
HETATM    6  C5  UNL     1      33.872  21.379   6.785  1.00  0.00     0.027 A 
HETATM    7  C6  UNL     1      32.468  21.603   7.268  1.00  0.00     0.027 A 
ENDBRANCH   3   5
BRANCH   1   8
HETATM    8  C2  UNL     1      35.451  21.765  11.320  1.00  0.00     0.064 C 
HETATM    9  C1  UNL     1      35.263  21.463  12.566  1.00  0.00     0.017 C 
ENDBRANCH   1   8
TORSDOF 2
ENDMDL
MODEL 5
REMARK VINA RESULT: -3.569766035      3.722      4.850
REMARK  2 active torsions:
REMARK  status: ('A' for Active; 'I' for Inactive)
REMARK    1  A    between atoms: C2_2  and  C3_3 
REMARK       I    between atoms: C3_3  and  N1_5 
REMARK    2  A    between atoms: N1_5  and  C4_7 
ROOT
HETATM    1  C3  UNL     1      32.571  23.296  13.776  1.00  0.00     0.240 C 
HETATM    2  O1  UNL     1      31.650  23.035  12.927  1.00  0.00    -0.269 OA
HETATM    3  N1  UNL     1      33.892  22.826  13.541  1.00  0.00    -0.353 N 
ATOM      4  H1  UNL     1      34.640  23.022  14.206  1.00  0.00     0.163 HD
ENDROOT
BRANCH   3   5
HETATM    5  C4  UNL     1      34.158  22.048  12.313  1.00  0.00     0.084 A 
HETATM    6  C5  UNL     1      34.948  20.792  12.575  1.00  0.00     0.027 A 
HETATM    7  C6  UNL     1      35.543  21.938  11.806  1.00  0.00     0.027 A 
ENDBRANCH   3   5
BRANCH   1   8
HETATM    8  C2  UNL     1      32.256  24.059  14.955  1.00  0.00     0.064 C 
HETATM    9  C1  UNL     1      31.042  24.405  15.248  1.00  0.00     0.017 C 
ENDBRANCH   1   8
TORSDOF 2
ENDMDL
