MODEL 1
REMARK VINA RESULT: -4.105127056      0.000      0.000
REMARK  2 active torsions:
REMARK  status: ('A' for Active; 'I' for Inactive)
REMARK    1  A    between atoms: C2_2  and  C3_3 
REMARK    2  A    between atoms: C5_5  and  C6_6 
ROOT
HETATM    1  C3  UNL     1      34.132  20.508  12.537  1.00  0.00     0.021 A 
HETATM    2  C4  UNL     1      35.249  21.418  12.852  1.00  0.00     0.023 A 
HETATM    3  C5  UNL     1      34.001  22.025  12.312  1.00  0.00     0.083 A 
ENDROOT
BRANCH   3   4
HETATM    4  C6  UNL     1      33.053  22.737  13.191  1.00  0.00     0.235 C 
HETATM    5  N1  UNL     1      31.698  22.851  12.776  1.00  0.00    -0.062 NA
HETATM    6  O1  UNL     1      33.360  23.251  14.282  1.00  0.00    -0.276 OA
ENDBRANCH   3   4
BRANCH   1   7
HETATM    7  C2  UNL     1      34.134  19.648  11.344  1.00  0.00    -0.031 C 
HETATM    8  C1  UNL     1      33.736  18.385  11.406  1.00  0.00     0.007 C 
ENDBRANCH   1   7
TORSDOF 2
ENDMDL
MODEL 2
REMARK VINA RESULT: -4.007366038      2.722      3.725
REMARK  2 active torsions:
REMARK  status: ('A' for Active; 'I' for Inactive)
REMARK    1  A    between atoms: C2_2  and  C3_3 
REMARK    2  A    between atoms: C5_5  and  C6_6 
ROOT
HETATM    1  C3  UNL     1      34.154  22.052  12.482  1.00  0.00     0.021 A 
HETATM    2  C4  UNL     1      35.117  20.937  12.572  1.00  0.00     0.023 A 
HETATM    3  C5  UNL     1      34.161  20.929  11.429  1.00  0.00     0.083 A 
ENDROOT
BRANCH   3   4
HETATM    4  C6  UNL     1      34.591  21.309  10.069  1.00  0.00     0.235 C 
HETATM    5  N1  UNL     1      33.607  21.774   9.154  1.00  0.00    -0.062 NA
HETATM    6  O1  UNL     1      35.764  21.251   9.663  1.00  0.00    -0.276 OA
ENDBRANCH   3   4
BRANCH   1   7
HETATM    7  C2  UNL     1      32.979  22.145  13.360  1.00  0.00    -0.031 C 
HETATM    8  C1  UNL     1      32.537  23.317  13.796  1.00  0.00     0.007 C 
ENDBRANCH   1   7
TORSDOF 2
ENDMDL
MODEL 3
REMARK VINA RESULT: -3.981539777      2.651      3.005
REMARK  2 active torsions:
REMARK  status: ('A' for Active; 'I' for Inactive)
REMARK    1  A    between atoms: C2_2  and  C3_3 
REMARK    2  A    between atoms: C5_5  and  C6_6 
ROOT
HETATM    1  C3  UNL     1      33.494  19.421  11.337  1.00  0.00     0.021 A 
HETATM    2  C4  UNL     1      33.485  20.419  12.424  1.00  0.00     0.023 A 
HETATM    3  C5  UNL     1      34.687  20.371  11.547  1.00  0.00     0.083 A 
ENDROOT
BRANCH   3   4
HETATM    4  C6  UNL     1      34.909  21.385  10.497  1.00  0.00     0.235 C 
HETATM    5  N1  UNL     1      34.174  22.600  10.561  1.00  0.00    -0.062 NA
HETATM    6  O1  UNL     1      35.703  21.249   9.549  1.00  0.00    -0.276 OA
ENDBRANCH   3   4
BRANCH   1   7
HETATM    7  C2  UNL     1      33.721  17.991  11.589  1.00  0.00    -0.031 C 
HETATM    8  C1  UNL     1      32.727  17.115  11.522  1.00  0.00     0.007 C 
ENDBRANCH   1   7
TORSDOF 2
ENDMDL
MODEL 4
REMARK VINA RESULT: -3.934479170      2.577      2.849
REMARK  2 active torsions:
REMARK  status: ('A' for Active; 'I' for Inactive)
REMARK    1  A    between atoms: C2_2  and  C3_3 
REMARK    2  A    between atoms: C5_5  and  C6_6 
ROOT
HETATM    1  C3  UNL     1      33.665  19.646  11.651  1.00  0.00     0.021 A 
HETATM    2  C4  UNL     1      34.649  20.439  12.412  1.00  0.00     0.023 A 
HETATM    3  C5  UNL     1      34.779  20.425  10.929  1.00  0.00     0.083 A 
ENDROOT
BRANCH   3   4
HETATM    4  C6  UNL     1      34.348  21.577  10.112  1.00  0.00     0.235 C 
HETATM    5  N1  UNL     1      34.206  21.397   8.709  1.00  0.00    -0.062 NA
HETATM    6  O1  UNL     1      34.098  22.706  10.569  1.00  0.00    -0.276 OA
ENDBRANCH   3   4
BRANCH   1   7
HETATM    7  C2  UNL     1      33.721  18.179  11.589  1.00  0.00    -0.031 C 
HETATM    8  C1  UNL     1      32.615  17.450  11.526  1.00  0.00     0.007 C 
ENDBRANCH   1   7
TORSDOF 2
ENDMDL
MODEL 5
REMARK VINA RESULT: -3.920022637      2.968      3.940
REMARK  2 active torsions:
REMARK  status: ('A' for Active; 'I' for Inactive)
REMARK    1  A    between atoms: C2_2  and  C3_3 
REMARK    2  A    between atoms: C5_5  and  C6_6 
ROOT
HETATM    1  C3  UNL     1      34.005  21.992  12.277  1.00  0.00     0.021 A 
HETATM    2  C4  UNL     1      35.400  21.612  12.573  1.00  0.00     0.023 A 
HETATM    3  C5  UNL     1      34.545  20.604  11.888  1.00  0.00     0.083 A 
ENDROOT
BRANCH   3   4
HETATM    4  C6  UNL     1      34.683  20.338  10.442  1.00  0.00     0.235 C 
HETATM    5  N1  UNL     1      35.560  21.159   9.683  1.00  0.00    -0.062 NA
HETATM    6  O1  UNL     1      34.080  19.435   9.835  1.00  0.00    -0.276 OA
ENDBRANCH   3   4
BRANCH   1   7
HETATM    7  C2  UNL     1      32.971  22.045  13.320  1.00  0.00    -0.031 C 
HETATM    8  C1  UNL     1      32.433  23.197  13.697  1.00  0.00     0.007 C 
ENDBRANCH   1   7
TORSDOF 2
ENDMDL
