MODEL 1
REMARK VINA RESULT: -6.874297543      0.000      0.000
REMARK  10 active torsions:
REMARK  status: ('A' for Active; 'I' for Inactive)
REMARK    1  A    between atoms: O1_2  and  C2_3 
REMARK    2  A    between atoms: C5_6  and  O2_7 
REMARK    3  A    between atoms: O2_7  and  C6_8 
REMARK    4  A    between atoms: C8_11  and  O4_12 
REMARK    5  A    between atoms: C9_14  and  N1_15 
REMARK       I    between atoms: N1_15  and  C10_17 
REMARK    6  A    between atoms: C11_22  and  O5_23 
REMARK    7  A    between atoms: C12_26  and  C13_27 
REMARK    8  A    between atoms: C13_27  and  O7_29 
REMARK    9  A    between atoms: C15_31  and  O8_32 
REMARK   10  A    between atoms: O8_32  and  C16_33 
ROOT
HETATM    1  C2  UNL     1       5.139   5.512   8.367  1.00  0.00     0.161 C 
HETATM    2  C3  UNL     1       4.065   4.664   7.708  1.00  0.00     0.069 C 
HETATM    3  C4  UNL     1       3.926   4.977   6.222  1.00  0.00     0.017 C 
HETATM    4  C5  UNL     1       2.776   4.628   8.444  1.00  0.00     0.270 C 
HETATM    5  O6  UNL     1       2.748   5.325   9.621  1.00  0.00    -0.350 OA
HETATM    6  C12 UNL     1       3.254   6.582   9.627  1.00  0.00     0.184 C 
HETATM    7  C15 UNL     1       4.648   6.735   9.043  1.00  0.00     0.183 C 
ENDROOT
BRANCH   4   8
HETATM    8  O2  UNL     1       2.432   3.302   8.814  1.00  0.00    -0.328 OA
BRANCH   8   9
HETATM    9  C6  UNL     1       1.086   3.042   8.706  1.00  0.00     0.293 C 
HETATM   10  O3  UNL     1       0.867   1.786   8.130  1.00  0.00    -0.356 OA
HETATM   11  C7  UNL     1      -0.472   1.731   7.761  1.00  0.00     0.205 C 
HETATM   12  C8  UNL     1      -1.311   1.803   9.003  1.00  0.00     0.167 C 
HETATM   13  C9  UNL     1      -0.418   1.835  10.217  1.00  0.00     0.148 C 
HETATM   14  C11 UNL     1       0.508   2.996  10.102  1.00  0.00     0.198 C 
BRANCH  12  15
HETATM   15  O4  UNL     1      -2.193   0.722   9.036  1.00  0.00    -0.391 OA
ATOM     16  H4  UNL     1      -3.048   0.998   8.730  1.00  0.00     0.210 HD
ENDBRANCH  12  15
BRANCH  13  17
HETATM   17  N1  UNL     1      -1.149   1.803  11.456  1.00  0.00    -0.355 N 
HETATM   18  C10 UNL     1      -1.151   0.656  12.270  1.00  0.00     0.182 C 
HETATM   19  N2  UNL     1      -0.027   0.144  12.629  1.00  0.00    -0.374 N 
HETATM   20  N3  UNL     1      -2.342   0.041  12.712  1.00  0.00    -0.064 NA
ATOM     21  H22 UNL     1       0.834   0.589  12.310  1.00  0.00     0.158 HD
ATOM     22  H21 UNL     1      -0.029  -0.688  13.219  1.00  0.00     0.158 HD
ATOM     23  H1  UNL     1      -1.675   2.627  11.750  1.00  0.00     0.162 HD
ENDBRANCH  13  17
BRANCH  14  24
HETATM   24  O5  UNL     1      -0.082   4.205  10.459  1.00  0.00    -0.388 OA
ATOM     25  H5  UNL     1      -1.030   4.155  10.442  1.00  0.00     0.210 HD
ENDBRANCH  14  24
ENDBRANCH   8   9
ENDBRANCH   4   8
BRANCH   1  26
HETATM   26  O1  UNL     1       6.112   5.796   7.430  1.00  0.00    -0.387 OA
HETATM   27  C1  UNL     1       7.236   5.010   7.526  1.00  0.00     0.202 C 
ENDBRANCH   1  26
BRANCH   6  28
HETATM   28  C13 UNL     1       2.252   7.581   9.153  1.00  0.00     0.145 C 
HETATM   29  C14 UNL     1       0.938   7.584   9.869  1.00  0.00     0.042 C 
BRANCH  28  30
HETATM   30  O7  UNL     1       2.702   8.900   9.146  1.00  0.00    -0.393 OA
ATOM     31  H7  UNL     1       3.013   9.211   8.304  1.00  0.00     0.210 HD
ENDBRANCH  28  30
ENDBRANCH   6  28
BRANCH   7  32
HETATM   32  O8  UNL     1       5.537   7.074  10.056  1.00  0.00    -0.375 OA
BRANCH  32  33
HETATM   33  C16 UNL     1       6.344   8.140   9.868  1.00  0.00     0.122 C 
HETATM   34  C17 UNL     1       7.803   7.771   9.641  1.00  0.00     0.032 C 
HETATM   35  C18 UNL     1       8.347   9.061   9.050  1.00  0.00     0.002 C 
HETATM   36  C19 UNL     1       7.201   9.708   8.333  1.00  0.00     0.002 C 
HETATM   37  C20 UNL     1       6.038   8.759   8.525  1.00  0.00     0.032 C 
ENDBRANCH  32  33
ENDBRANCH   7  32
TORSDOF 10
ENDMDL
MODEL 2
REMARK VINA RESULT: -6.845555162      0.972      1.243
REMARK  10 active torsions:
REMARK  status: ('A' for Active; 'I' for Inactive)
REMARK    1  A    between atoms: O1_2  and  C2_3 
REMARK    2  A    between atoms: C5_6  and  O2_7 
REMARK    3  A    between atoms: O2_7  and  C6_8 
REMARK    4  A    between atoms: C8_11  and  O4_12 
REMARK    5  A    between atoms: C9_14  and  N1_15 
REMARK       I    between atoms: N1_15  and  C10_17 
REMARK    6  A    between atoms: C11_22  and  O5_23 
REMARK    7  A    between atoms: C12_26  and  C13_27 
REMARK    8  A    between atoms: C13_27  and  O7_29 
REMARK    9  A    between atoms: C15_31  and  O8_32 
REMARK   10  A    between atoms: O8_32  and  C16_33 
ROOT
HETATM    1  C2  UNL     1       4.832   5.116   7.614  1.00  0.00     0.161 C 
HETATM    2  C3  UNL     1       3.624   4.308   7.175  1.00  0.00     0.069 C 
HETATM    3  C4  UNL     1       3.172   4.682   5.767  1.00  0.00     0.017 C 
HETATM    4  C5  UNL     1       2.525   4.261   8.171  1.00  0.00     0.270 C 
HETATM    5  O6  UNL     1       2.767   4.912   9.350  1.00  0.00    -0.350 OA
HETATM    6  C12 UNL     1       3.289   6.161   9.290  1.00  0.00     0.184 C 
HETATM    7  C15 UNL     1       4.525   6.318   8.423  1.00  0.00     0.183 C 
ENDROOT
BRANCH   4   8
HETATM    8  O2  UNL     1       2.241   2.926   8.560  1.00  0.00    -0.328 OA
BRANCH   8   9
HETATM    9  C6  UNL     1       0.953   2.756   9.010  1.00  0.00     0.293 C 
HETATM   10  O3  UNL     1       0.308   1.739   8.299  1.00  0.00    -0.356 OA
HETATM   11  C7  UNL     1      -1.050   1.842   8.575  1.00  0.00     0.205 C 
HETATM   12  C8  UNL     1      -1.261   1.565  10.036  1.00  0.00     0.167 C 
HETATM   13  C9  UNL     1       0.053   1.201  10.678  1.00  0.00     0.148 C 
HETATM   14  C11 UNL     1       1.021   2.312  10.454  1.00  0.00     0.198 C 
BRANCH  12  15
HETATM   15  O4  UNL     1      -2.211   0.554  10.189  1.00  0.00    -0.391 OA
ATOM     16  H4  UNL     1      -1.773  -0.269  10.368  1.00  0.00     0.210 HD
ENDBRANCH  12  15
BRANCH  13  17
HETATM   17  N1  UNL     1      -0.079   0.824  12.060  1.00  0.00    -0.355 N 
HETATM   18  C10 UNL     1       0.288  -0.460  12.501  1.00  0.00     0.182 C 
HETATM   19  N2  UNL     1       1.469  -0.898  12.234  1.00  0.00    -0.374 N 
HETATM   20  N3  UNL     1      -0.588  -1.293  13.229  1.00  0.00    -0.064 NA
ATOM     21  H22 UNL     1       2.103  -0.296  11.708  1.00  0.00     0.158 HD
ATOM     22  H21 UNL     1       1.735  -1.829  12.554  1.00  0.00     0.158 HD
ATOM     23  H1  UNL     1      -0.446   1.499  12.731  1.00  0.00     0.162 HD
ENDBRANCH  13  17
BRANCH  14  24
HETATM   24  O5  UNL     1       0.845   3.376  11.333  1.00  0.00    -0.388 OA
ATOM     25  H5  UNL     1       0.422   3.104  12.139  1.00  0.00     0.210 HD
ENDBRANCH  14  24
ENDBRANCH   8   9
ENDBRANCH   4   8
BRANCH   1  26
HETATM   26  O1  UNL     1       5.585   5.424   6.499  1.00  0.00    -0.387 OA
HETATM   27  C1  UNL     1       6.733   4.680   6.367  1.00  0.00     0.202 C 
ENDBRANCH   1  26
BRANCH   6  28
HETATM   28  C13 UNL     1       2.230   7.190   9.081  1.00  0.00     0.145 C 
HETATM   29  C14 UNL     1       1.018   7.073   9.953  1.00  0.00     0.042 C 
BRANCH  28  30
HETATM   30  O7  UNL     1       2.668   8.509   9.190  1.00  0.00    -0.393 OA
ATOM     31  H7  UNL     1       2.020   9.164   8.959  1.00  0.00     0.210 HD
ENDBRANCH  28  30
ENDBRANCH   6  28
BRANCH   7  32
HETATM   32  O8  UNL     1       5.621   6.606   9.230  1.00  0.00    -0.375 OA
BRANCH  32  33
HETATM   33  C16 UNL     1       6.551   7.465   8.763  1.00  0.00     0.122 C 
HETATM   34  C17 UNL     1       6.058   8.901   8.658  1.00  0.00     0.032 C 
HETATM   35  C18 UNL     1       7.372   9.658   8.543  1.00  0.00     0.002 C 
HETATM   36  C19 UNL     1       8.389   8.844   9.284  1.00  0.00     0.002 C 
HETATM   37  C20 UNL     1       7.622   7.651   9.812  1.00  0.00     0.032 C 
ENDBRANCH  32  33
ENDBRANCH   7  32
TORSDOF 10
ENDMDL
MODEL 3
REMARK VINA RESULT: -6.587889931      5.989      8.756
REMARK  10 active torsions:
REMARK  status: ('A' for Active; 'I' for Inactive)
REMARK    1  A    between atoms: O1_2  and  C2_3 
REMARK    2  A    between atoms: C5_6  and  O2_7 
REMARK    3  A    between atoms: O2_7  and  C6_8 
REMARK    4  A    between atoms: C8_11  and  O4_12 
REMARK    5  A    between atoms: C9_14  and  N1_15 
REMARK       I    between atoms: N1_15  and  C10_17 
REMARK    6  A    between atoms: C11_22  and  O5_23 
REMARK    7  A    between atoms: C12_26  and  C13_27 
REMARK    8  A    between atoms: C13_27  and  O7_29 
REMARK    9  A    between atoms: C15_31  and  O8_32 
REMARK   10  A    between atoms: O8_32  and  C16_33 
ROOT
HETATM    1  C2  UNL     1       6.593   6.905   9.042  1.00  0.00     0.161 C 
HETATM    2  C3  UNL     1       7.850   6.333   8.410  1.00  0.00     0.069 C 
HETATM    3  C4  UNL     1       8.563   7.359   7.536  1.00  0.00     0.017 C 
HETATM    4  C5  UNL     1       7.661   5.011   7.761  1.00  0.00     0.270 C 
HETATM    5  O6  UNL     1       6.404   4.480   7.857  1.00  0.00    -0.350 OA
HETATM    6  C12 UNL     1       5.350   5.288   7.585  1.00  0.00     0.184 C 
HETATM    7  C15 UNL     1       5.336   6.620   8.312  1.00  0.00     0.183 C 
ENDROOT
BRANCH   4   8
HETATM    8  O2  UNL     1       8.503   4.028   8.344  1.00  0.00    -0.328 OA
BRANCH   8   9
HETATM    9  C6  UNL     1       9.144   3.245   7.414  1.00  0.00     0.293 C 
HETATM   10  O3  UNL     1       8.292   2.940   6.348  1.00  0.00    -0.356 OA
HETATM   11  C7  UNL     1       8.883   1.907   5.630  1.00  0.00     0.205 C 
HETATM   12  C8  UNL     1      10.168   2.412   5.041  1.00  0.00     0.167 C 
HETATM   13  C9  UNL     1      10.334   3.875   5.366  1.00  0.00     0.148 C 
HETATM   14  C11 UNL     1      10.294   4.046   6.846  1.00  0.00     0.198 C 
BRANCH  12  15
HETATM   15  O4  UNL     1      10.174   2.184   3.664  1.00  0.00    -0.391 OA
ATOM     16  H4  UNL     1      11.068   2.190   3.344  1.00  0.00     0.210 HD
ENDBRANCH  12  15
BRANCH  13  17
HETATM   17  N1  UNL     1      11.495   4.462   4.751  1.00  0.00    -0.355 N 
HETATM   18  C10 UNL     1      11.370   5.419   3.728  1.00  0.00     0.182 C 
HETATM   19  N2  UNL     1      10.642   6.460   3.932  1.00  0.00    -0.374 N 
HETATM   20  N3  UNL     1      12.015   5.284   2.479  1.00  0.00    -0.064 NA
ATOM     21  H22 UNL     1      10.177   6.558   4.835  1.00  0.00     0.158 HD
ATOM     22  H21 UNL     1      10.552   7.154   3.190  1.00  0.00     0.158 HD
ATOM     23  H1  UNL     1      12.425   4.179   5.062  1.00  0.00     0.162 HD
ENDBRANCH  13  17
BRANCH  14  24
HETATM   24  O5  UNL     1      11.500   3.735   7.466  1.00  0.00    -0.388 OA
ATOM     25  H5  UNL     1      12.132   3.379   6.852  1.00  0.00     0.210 HD
ENDBRANCH  14  24
ENDBRANCH   8   9
ENDBRANCH   4   8
BRANCH   1  26
HETATM   26  O1  UNL     1       6.778   8.258   9.243  1.00  0.00    -0.387 OA
HETATM   27  C1  UNL     1       6.815   8.635  10.564  1.00  0.00     0.202 C 
ENDBRANCH   1  26
BRANCH   6  28
HETATM   28  C13 UNL     1       5.076   5.359   6.120  1.00  0.00     0.145 C 
HETATM   29  C14 UNL     1       4.720   4.066   5.454  1.00  0.00     0.042 C 
BRANCH  28  30
HETATM   30  O7  UNL     1       4.092   6.276   5.755  1.00  0.00    -0.393 OA
ATOM     31  H7  UNL     1       3.822   6.228   4.846  1.00  0.00     0.210 HD
ENDBRANCH  28  30
ENDBRANCH   6  28
BRANCH   7  32
HETATM   32  O8  UNL     1       4.280   6.640   9.217  1.00  0.00    -0.375 OA
BRANCH  32  33
HETATM   33  C16 UNL     1       3.139   7.264   8.854  1.00  0.00     0.122 C 
HETATM   34  C17 UNL     1       2.015   7.123   9.870  1.00  0.00     0.032 C 
HETATM   35  C18 UNL     1       1.075   8.233   9.429  1.00  0.00     0.002 C 
HETATM   36  C19 UNL     1       1.937   9.290   8.809  1.00  0.00     0.002 C 
HETATM   37  C20 UNL     1       3.349   8.758   8.929  1.00  0.00     0.032 C 
ENDBRANCH  32  33
ENDBRANCH   7  32
TORSDOF 10
ENDMDL
MODEL 4
REMARK VINA RESULT: -6.576949461      1.454      1.738
REMARK  10 active torsions:
REMARK  status: ('A' for Active; 'I' for Inactive)
REMARK    1  A    between atoms: O1_2  and  C2_3 
REMARK    2  A    between atoms: C5_6  and  O2_7 
REMARK    3  A    between atoms: O2_7  and  C6_8 
REMARK    4  A    between atoms: C8_11  and  O4_12 
REMARK    5  A    between atoms: C9_14  and  N1_15 
REMARK       I    between atoms: N1_15  and  C10_17 
REMARK    6  A    between atoms: C11_22  and  O5_23 
REMARK    7  A    between atoms: C12_26  and  C13_27 
REMARK    8  A    between atoms: C13_27  and  O7_29 
REMARK    9  A    between atoms: C15_31  and  O8_32 
REMARK   10  A    between atoms: O8_32  and  C16_33 
ROOT
HETATM    1  C2  UNL     1       4.751   5.160   7.934  1.00  0.00     0.161 C 
HETATM    2  C3  UNL     1       3.588   4.251   7.576  1.00  0.00     0.069 C 
HETATM    3  C4  UNL     1       3.128   4.459   6.136  1.00  0.00     0.017 C 
HETATM    4  C5  UNL     1       2.487   4.246   8.570  1.00  0.00     0.270 C 
HETATM    5  O6  UNL     1       2.688   5.023   9.679  1.00  0.00    -0.350 OA
HETATM    6  C12 UNL     1       3.145   6.285   9.495  1.00  0.00     0.184 C 
HETATM    7  C15 UNL     1       4.378   6.419   8.619  1.00  0.00     0.183 C 
ENDROOT
BRANCH   4   8
HETATM    8  O2  UNL     1       2.269   2.944   9.089  1.00  0.00    -0.328 OA
BRANCH   8   9
HETATM    9  C6  UNL     1       1.183   2.870   9.929  1.00  0.00     0.293 C 
HETATM   10  O3  UNL     1      -0.012   2.952   9.205  1.00  0.00    -0.356 OA
HETATM   11  C7  UNL     1      -1.031   3.195  10.118  1.00  0.00     0.205 C 
HETATM   12  C8  UNL     1      -1.144   2.009  11.031  1.00  0.00     0.167 C 
HETATM   13  C9  UNL     1      -0.173   0.941  10.598  1.00  0.00     0.148 C 
HETATM   14  C11 UNL     1       1.203   1.515  10.598  1.00  0.00     0.198 C 
BRANCH  12  15
HETATM   15  O4  UNL     1      -2.460   1.543  11.032  1.00  0.00    -0.391 OA
ATOM     16  H4  UNL     1      -2.824   1.619  11.905  1.00  0.00     0.210 HD
ENDBRANCH  12  15
BRANCH  13  17
HETATM   17  N1  UNL     1      -0.289  -0.272  11.363  1.00  0.00    -0.355 N 
HETATM   18  C10 UNL     1      -0.620  -1.492  10.746  1.00  0.00     0.182 C 
HETATM   19  N2  UNL     1       0.079  -1.894   9.743  1.00  0.00    -0.374 N 
HETATM   20  N3  UNL     1      -1.693  -2.297  11.183  1.00  0.00    -0.064 NA
ATOM     21  H22 UNL     1       0.855  -1.312   9.427  1.00  0.00     0.158 HD
ATOM     22  H21 UNL     1      -0.162  -2.778   9.295  1.00  0.00     0.158 HD
ATOM     23  H1  UNL     1      -0.128  -0.247  12.370  1.00  0.00     0.162 HD
ENDBRANCH  13  17
BRANCH  14  24
HETATM   24  O5  UNL     1       1.773   1.570  11.866  1.00  0.00    -0.388 OA
ATOM     25  H5  UNL     1       1.176   1.261  12.537  1.00  0.00     0.210 HD
ENDBRANCH  14  24
ENDBRANCH   8   9
ENDBRANCH   4   8
BRANCH   1  26
HETATM   26  O1  UNL     1       5.495   5.394   6.794  1.00  0.00    -0.387 OA
HETATM   27  C1  UNL     1       6.661   4.670   6.721  1.00  0.00     0.202 C 
ENDBRANCH   1  26
BRANCH   6  28
HETATM   28  C13 UNL     1       2.036   7.233   9.183  1.00  0.00     0.145 C 
HETATM   29  C14 UNL     1       0.827   7.141  10.062  1.00  0.00     0.042 C 
BRANCH  28  30
HETATM   30  O7  UNL     1       2.406   8.576   9.159  1.00  0.00    -0.393 OA
ATOM     31  H7  UNL     1       2.487   8.950   8.289  1.00  0.00     0.210 HD
ENDBRANCH  28  30
ENDBRANCH   6  28
BRANCH   7  32
HETATM   32  O8  UNL     1       5.451   6.841   9.395  1.00  0.00    -0.375 OA
BRANCH  32  33
HETATM   33  C16 UNL     1       6.406   7.595   8.809  1.00  0.00     0.122 C 
HETATM   34  C17 UNL     1       6.020   9.060   8.658  1.00  0.00     0.032 C 
HETATM   35  C18 UNL     1       7.375   9.699   8.401  1.00  0.00     0.002 C 
HETATM   36  C19 UNL     1       8.381   8.843   9.109  1.00  0.00     0.002 C 
HETATM   37  C20 UNL     1       7.568   7.747   9.762  1.00  0.00     0.032 C 
ENDBRANCH  32  33
ENDBRANCH   7  32
TORSDOF 10
ENDMDL
MODEL 5
REMARK VINA RESULT: -6.539937730      0.942      1.185
REMARK  10 active torsions:
REMARK  status: ('A' for Active; 'I' for Inactive)
REMARK    1  A    between atoms: O1_2  and  C2_3 
REMARK    2  A    between atoms: C5_6  and  O2_7 
REMARK    3  A    between atoms: O2_7  and  C6_8 
REMARK    4  A    between atoms: C8_11  and  O4_12 
REMARK    5  A    between atoms: C9_14  and  N1_15 
REMARK       I    between atoms: N1_15  and  C10_17 
REMARK    6  A    between atoms: C11_22  and  O5_23 
REMARK    7  A    between atoms: C12_26  and  C13_27 
REMARK    8  A    between atoms: C13_27  and  O7_29 
REMARK    9  A    between atoms: C15_31  and  O8_32 
REMARK   10  A    between atoms: O8_32  and  C16_33 
ROOT
HETATM    1  C2  UNL     1       4.417   4.989   8.341  1.00  0.00     0.161 C 
HETATM    2  C3  UNL     1       3.164   4.157   8.131  1.00  0.00     0.069 C 
HETATM    3  C4  UNL     1       2.713   4.168   6.675  1.00  0.00     0.017 C 
HETATM    4  C5  UNL     1       2.078   4.430   9.105  1.00  0.00     0.270 C 
HETATM    5  O6  UNL     1       2.369   5.356  10.070  1.00  0.00    -0.350 OA
HETATM    6  C12 UNL     1       2.951   6.517   9.682  1.00  0.00     0.184 C 
HETATM    7  C15 UNL     1       4.181   6.376   8.803  1.00  0.00     0.183 C 
ENDROOT
BRANCH   4   8
HETATM    8  O2  UNL     1       1.734   3.262   9.833  1.00  0.00    -0.328 OA
BRANCH   8   9
HETATM    9  C6  UNL     1       0.639   2.608   9.319  1.00  0.00     0.293 C 
HETATM   10  O3  UNL     1       0.963   1.292   8.973  1.00  0.00    -0.356 OA
HETATM   11  C7  UNL     1      -0.071   0.808   8.181  1.00  0.00     0.205 C 
HETATM   12  C8  UNL     1      -1.321   0.753   9.012  1.00  0.00     0.167 C 
HETATM   13  C9  UNL     1      -1.007   1.168  10.427  1.00  0.00     0.148 C 
HETATM   14  C11 UNL     1      -0.410   2.534  10.406  1.00  0.00     0.198 C 
BRANCH  12  15
HETATM   15  O4  UNL     1      -1.864  -0.531   8.957  1.00  0.00    -0.391 OA
ATOM     16  H4  UNL     1      -2.726  -0.495   8.560  1.00  0.00     0.210 HD
ENDBRANCH  12  15
BRANCH  13  17
HETATM   17  N1  UNL     1      -2.133   1.047  11.314  1.00  0.00    -0.355 N 
HETATM   18  C10 UNL     1      -2.104   0.165  12.409  1.00  0.00     0.182 C 
HETATM   19  N2  UNL     1      -1.132   0.244  13.249  1.00  0.00    -0.374 N 
HETATM   20  N3  UNL     1      -3.103  -0.807  12.628  1.00  0.00    -0.064 NA
ATOM     21  H22 UNL     1      -0.410   0.948  13.091  1.00  0.00     0.158 HD
ATOM     22  H21 UNL     1      -1.112  -0.395  14.043  1.00  0.00     0.158 HD
ATOM     23  H1  UNL     1      -2.967   1.610  11.145  1.00  0.00     0.162 HD
ENDBRANCH  13  17
BRANCH  14  24
HETATM   24  O5  UNL     1      -1.358   3.544  10.282  1.00  0.00    -0.388 OA
ATOM     25  H5  UNL     1      -2.055   3.456  10.922  1.00  0.00     0.210 HD
ENDBRANCH  14  24
ENDBRANCH   8   9
ENDBRANCH   4   8
BRANCH   1  26
HETATM   26  O1  UNL     1       5.169   4.952   7.184  1.00  0.00    -0.387 OA
HETATM   27  C1  UNL     1       6.325   4.215   7.283  1.00  0.00     0.202 C 
ENDBRANCH   1  26
BRANCH   6  28
HETATM   28  C13 UNL     1       1.940   7.508   9.208  1.00  0.00     0.145 C 
HETATM   29  C14 UNL     1       0.701   7.631  10.039  1.00  0.00     0.042 C 
BRANCH  28  30
HETATM   30  O7  UNL     1       2.430   8.801   9.032  1.00  0.00    -0.393 OA
ATOM     31  H7  UNL     1       1.869   9.488   9.374  1.00  0.00     0.210 HD
ENDBRANCH  28  30
ENDBRANCH   6  28
BRANCH   7  32
HETATM   32  O8  UNL     1       5.300   6.810   9.506  1.00  0.00    -0.375 OA
BRANCH  32  33
HETATM   33  C16 UNL     1       6.208   7.569   8.856  1.00  0.00     0.122 C 
HETATM   34  C17 UNL     1       5.919   9.062   8.927  1.00  0.00     0.032 C 
HETATM   35  C18 UNL     1       7.263   9.644   8.522  1.00  0.00     0.002 C 
HETATM   36  C19 UNL     1       8.297   8.652   8.959  1.00  0.00     0.002 C 
HETATM   37  C20 UNL     1       7.512   7.537   9.616  1.00  0.00     0.032 C 
ENDBRANCH  32  33
ENDBRANCH   7  32
TORSDOF 10
ENDMDL
