MODEL 1
REMARK VINA RESULT: -6.484838508      0.000      0.000
REMARK  4 active torsions:
REMARK  status: ('A' for Active; 'I' for Inactive)
REMARK       I    between atoms: C2_2  and  N1_4 
REMARK    1  A    between atoms: N1_4  and  C3_6 
REMARK    2  A    between atoms: C5_13  and  C6_14 
REMARK    3  A    between atoms: C6_14  and  N4_16 
REMARK    4  A    between atoms: N5_20  and  N6_21 
REMARK       I    between atoms: N6_21  and  C8_23 
ROOT
HETATM    1  C3  UNL     1       7.890  17.096  14.633  1.00  0.00     0.712 A 
HETATM    2  N2  UNL     1       7.972  18.352  14.055  1.00  0.00    -0.139 N 
ATOM      3  H2  UNL     1       8.871  18.697  13.719  1.00  0.00     0.189 HD
HETATM    4  C4  UNL     1       6.884  19.115  13.935  1.00  0.00     0.340 A 
HETATM    5  O2  UNL     1       6.992  20.248  13.406  1.00  0.00    -0.246 OA
HETATM    6  N3  UNL     1       5.739  18.612  14.393  1.00  0.00    -0.294 N 
ATOM      7  H3  UNL     1       4.897  19.182  14.309  1.00  0.00     0.172 HD
HETATM    8  C5  UNL     1       5.624  17.388  14.967  1.00  0.00     0.156 A 
HETATM    9  N5  UNL     1       6.748  16.593  15.092  1.00  0.00    -0.067 N 
ENDROOT
BRANCH   8  10
HETATM   10  C6  UNL     1       4.311  16.943  15.442  1.00  0.00     0.249 C 
HETATM   11  C7  UNL     1       3.225  17.139  14.430  1.00  0.00     0.048 C 
BRANCH  10  12
HETATM   12  N4  UNL     1       4.048  17.731  16.664  1.00  0.00    -0.069 N 
ATOM     13  H43 UNL     1       4.891  17.981  17.181  1.00  0.00     0.275 HD
ATOM     14  H42 UNL     1       3.735  18.685  16.477  1.00  0.00     0.275 HD
ATOM     15  H41 UNL     1       3.382  17.180  17.205  1.00  0.00     0.275 HD
ENDBRANCH  10  12
ENDBRANCH   8  10
BRANCH   9  16
HETATM   16  N6  UNL     1       6.601  15.372  15.685  1.00  0.00    -0.231 N 
HETATM   17  C8  UNL     1       6.934  14.078  15.370  1.00  0.00     0.348 C 
HETATM   18  N7  UNL     1       6.549  13.052  16.357  1.00  0.00    -0.038 NA
HETATM   19  O3  UNL     1       7.504  13.614  14.400  1.00  0.00    -0.249 OA
ATOM     20  H6  UNL     1       6.127  15.437  16.586  1.00  0.00     0.192 HD
ENDBRANCH   9  16
BRANCH   1  21
HETATM   21  N1  UNL     1       8.972  16.410  14.692  1.00  0.00    -0.158 N 
HETATM   22  C2  UNL     1       9.781  16.465  15.850  1.00  0.00     0.232 C 
HETATM   23  C1  UNL     1      10.866  17.474  16.041  1.00  0.00     0.118 C 
HETATM   24  O1  UNL     1       9.619  15.647  16.799  1.00  0.00    -0.273 OA
ATOM     25  H1  UNL     1       9.250  15.825  13.903  1.00  0.00     0.187 HD
ENDBRANCH   1  21
TORSDOF 4
ENDMDL
MODEL 2
REMARK VINA RESULT: -6.339453529      1.244      4.139
REMARK  4 active torsions:
REMARK  status: ('A' for Active; 'I' for Inactive)
REMARK       I    between atoms: C2_2  and  N1_4 
REMARK    1  A    between atoms: N1_4  and  C3_6 
REMARK    2  A    between atoms: C5_13  and  C6_14 
REMARK    3  A    between atoms: C6_14  and  N4_16 
REMARK    4  A    between atoms: N5_20  and  N6_21 
REMARK       I    between atoms: N6_21  and  C8_23 
ROOT
HETATM    1  C3  UNL     1       5.849  17.369  14.948  1.00  0.00     0.712 A 
HETATM    2  N2  UNL     1       5.718  18.618  14.364  1.00  0.00    -0.139 N 
ATOM      3  H2  UNL     1       4.797  19.051  14.296  1.00  0.00     0.189 HD
HETATM    4  C4  UNL     1       6.786  19.259  13.889  1.00  0.00     0.340 A 
HETATM    5  O2  UNL     1       6.635  20.390  13.366  1.00  0.00    -0.246 OA
HETATM    6  N3  UNL     1       7.963  18.644  14.004  1.00  0.00    -0.294 N 
ATOM      7  H3  UNL     1       8.790  19.120  13.647  1.00  0.00     0.172 HD
HETATM    8  C5  UNL     1       8.125  17.421  14.569  1.00  0.00     0.156 A 
HETATM    9  N5  UNL     1       7.021  16.753  15.064  1.00  0.00    -0.067 N 
ENDROOT
BRANCH   8  10
HETATM   10  C6  UNL     1       9.468  16.838  14.634  1.00  0.00     0.249 C 
HETATM   11  C7  UNL     1      10.245  17.291  15.832  1.00  0.00     0.048 C 
BRANCH  10  12
HETATM   12  N4  UNL     1      10.136  17.250  13.381  1.00  0.00    -0.069 N 
ATOM     13  H43 UNL     1      10.049  16.569  12.627  1.00  0.00     0.275 HD
ATOM     14  H42 UNL     1       9.670  18.020  12.902  1.00  0.00     0.275 HD
ATOM     15  H41 UNL     1      11.101  17.452  13.642  1.00  0.00     0.275 HD
ENDBRANCH  10  12
ENDBRANCH   8  10
BRANCH   9  16
HETATM   16  N6  UNL     1       7.217  15.519  15.614  1.00  0.00    -0.231 N 
HETATM   17  C8  UNL     1       7.595  14.284  15.151  1.00  0.00     0.348 C 
HETATM   18  N7  UNL     1       7.662  13.208  16.158  1.00  0.00    -0.038 NA
HETATM   19  O3  UNL     1       7.892  13.907  14.033  1.00  0.00    -0.249 OA
ATOM     20  H6  UNL     1       7.038  15.514  16.618  1.00  0.00     0.192 HD
ENDBRANCH   9  16
BRANCH   1  21
HETATM   21  N1  UNL     1       4.780  16.825  15.405  1.00  0.00    -0.158 N 
HETATM   22  C2  UNL     1       4.020  15.963  14.581  1.00  0.00     0.232 C 
HETATM   23  C1  UNL     1       2.928  16.446  13.684  1.00  0.00     0.118 C 
HETATM   24  O1  UNL     1       4.234  14.718  14.566  1.00  0.00    -0.273 OA
ATOM     25  H1  UNL     1       4.480  17.014  16.361  1.00  0.00     0.187 HD
ENDBRANCH   1  21
TORSDOF 4
ENDMDL
MODEL 3
REMARK VINA RESULT: -6.222217779      3.348      6.060
REMARK  4 active torsions:
REMARK  status: ('A' for Active; 'I' for Inactive)
REMARK       I    between atoms: C2_2  and  N1_4 
REMARK    1  A    between atoms: N1_4  and  C3_6 
REMARK    2  A    between atoms: C5_13  and  C6_14 
REMARK    3  A    between atoms: C6_14  and  N4_16 
REMARK    4  A    between atoms: N5_20  and  N6_21 
REMARK       I    between atoms: N6_21  and  C8_23 
ROOT
HETATM    1  C3  UNL     1       7.120  20.277  12.698  1.00  0.00     0.712 A 
HETATM    2  N2  UNL     1       6.206  20.316  13.737  1.00  0.00    -0.139 N 
ATOM      3  H2  UNL     1       5.542  21.087  13.799  1.00  0.00     0.189 HD
HETATM    4  C4  UNL     1       6.188  19.352  14.659  1.00  0.00     0.340 A 
HETATM    5  O2  UNL     1       5.347  19.416  15.589  1.00  0.00    -0.246 OA
HETATM    6  N3  UNL     1       7.081  18.372  14.528  1.00  0.00    -0.294 N 
ATOM      7  H3  UNL     1       7.080  17.626  15.224  1.00  0.00     0.172 HD
HETATM    8  C5  UNL     1       7.990  18.304  13.524  1.00  0.00     0.156 A 
HETATM    9  N5  UNL     1       8.011  19.300  12.565  1.00  0.00    -0.067 N 
ENDROOT
BRANCH   8  10
HETATM   10  C6  UNL     1       8.929  17.180  13.485  1.00  0.00     0.249 C 
HETATM   11  C7  UNL     1       8.368  15.928  14.086  1.00  0.00     0.048 C 
BRANCH  10  12
HETATM   12  N4  UNL     1      10.121  17.638  14.230  1.00  0.00    -0.069 N 
ATOM     13  H43 UNL     1      10.161  18.649  14.359  1.00  0.00     0.275 HD
ATOM     14  H42 UNL     1      10.106  17.392  15.220  1.00  0.00     0.275 HD
ATOM     15  H41 UNL     1      10.920  17.257  13.724  1.00  0.00     0.275 HD
ENDBRANCH  10  12
ENDBRANCH   8  10
BRANCH   9  16
HETATM   16  N6  UNL     1       8.948  19.210  11.574  1.00  0.00    -0.231 N 
HETATM   17  C8  UNL     1       8.938  19.262  10.203  1.00  0.00     0.348 C 
HETATM   18  N7  UNL     1      10.246  19.101   9.540  1.00  0.00    -0.038 NA
HETATM   19  O3  UNL     1       8.023  19.421   9.417  1.00  0.00    -0.249 OA
ATOM     20  H6  UNL     1       9.887  19.069  11.946  1.00  0.00     0.192 HD
ENDBRANCH   9  16
BRANCH   1  21
HETATM   21  N1  UNL     1       7.061  21.224  11.835  1.00  0.00    -0.158 N 
HETATM   22  C2  UNL     1       6.410  22.436  12.161  1.00  0.00     0.232 C 
HETATM   23  C1  UNL     1       4.950  22.664  11.939  1.00  0.00     0.118 C 
HETATM   24  O1  UNL     1       7.046  23.404  12.668  1.00  0.00    -0.273 OA
ATOM     25  H1  UNL     1       7.483  21.104  10.914  1.00  0.00     0.187 HD
ENDBRANCH   1  21
TORSDOF 4
ENDMDL
MODEL 4
REMARK VINA RESULT: -6.198332235      3.116      5.476
REMARK  4 active torsions:
REMARK  status: ('A' for Active; 'I' for Inactive)
REMARK       I    between atoms: C2_2  and  N1_4 
REMARK    1  A    between atoms: N1_4  and  C3_6 
REMARK    2  A    between atoms: C5_13  and  C6_14 
REMARK    3  A    between atoms: C6_14  and  N4_16 
REMARK    4  A    between atoms: N5_20  and  N6_21 
REMARK       I    between atoms: N6_21  and  C8_23 
ROOT
HETATM    1  C3  UNL     1       7.243  19.524  12.432  1.00  0.00     0.712 A 
HETATM    2  N2  UNL     1       8.198  19.724  11.450  1.00  0.00    -0.139 N 
ATOM      3  H2  UNL     1       8.041  20.425  10.726  1.00  0.00     0.189 HD
HETATM    4  C4  UNL     1       9.323  19.008  11.443  1.00  0.00     0.340 A 
HETATM    5  O2  UNL     1      10.170  19.214  10.540  1.00  0.00    -0.246 OA
HETATM    6  N3  UNL     1       9.473  18.106  12.413  1.00  0.00    -0.294 N 
ATOM      7  H3  UNL     1      10.327  17.550  12.423  1.00  0.00     0.172 HD
HETATM    8  C5  UNL     1       8.556  17.883  13.388  1.00  0.00     0.156 A 
HETATM    9  N5  UNL     1       7.390  18.625  13.400  1.00  0.00    -0.067 N 
ENDROOT
BRANCH   8  10
HETATM   10  C6  UNL     1       8.826  16.858  14.400  1.00  0.00     0.249 C 
HETATM   11  C7  UNL     1       9.926  17.241  15.342  1.00  0.00     0.048 C 
BRANCH  10  12
HETATM   12  N4  UNL     1       9.177  15.640  13.640  1.00  0.00    -0.069 N 
ATOM     13  H43 UNL     1       8.588  14.836  13.860  1.00  0.00     0.275 HD
ATOM     14  H42 UNL     1       8.943  15.692  12.649  1.00  0.00     0.275 HD
ATOM     15  H41 UNL     1      10.169  15.484  13.820  1.00  0.00     0.275 HD
ENDBRANCH  10  12
ENDBRANCH   8  10
BRANCH   9  16
HETATM   16  N6  UNL     1       6.482  18.367  14.387  1.00  0.00    -0.231 N 
HETATM   17  C8  UNL     1       5.666  19.119  15.194  1.00  0.00     0.348 C 
HETATM   18  N7  UNL     1       4.833  18.367  16.153  1.00  0.00    -0.038 NA
HETATM   19  O3  UNL     1       5.500  20.323  15.264  1.00  0.00    -0.249 OA
ATOM     20  H6  UNL     1       6.386  17.368  14.570  1.00  0.00     0.192 HD
ENDBRANCH   9  16
BRANCH   1  21
HETATM   21  N1  UNL     1       6.198  20.268  12.389  1.00  0.00    -0.158 N 
HETATM   22  C2  UNL     1       6.304  21.607  11.950  1.00  0.00     0.232 C 
HETATM   23  C1  UNL     1       6.604  22.747  12.869  1.00  0.00     0.118 C 
HETATM   24  O1  UNL     1       6.147  21.910  10.733  1.00  0.00    -0.273 OA
ATOM     25  H1  UNL     1       5.292  19.893  12.671  1.00  0.00     0.187 HD
ENDBRANCH   1  21
TORSDOF 4
ENDMDL
MODEL 5
REMARK VINA RESULT: -6.194016629      4.709      7.291
REMARK  4 active torsions:
REMARK  status: ('A' for Active; 'I' for Inactive)
REMARK       I    between atoms: C2_2  and  N1_4 
REMARK    1  A    between atoms: N1_4  and  C3_6 
REMARK    2  A    between atoms: C5_13  and  C6_14 
REMARK    3  A    between atoms: C6_14  and  N4_16 
REMARK    4  A    between atoms: N5_20  and  N6_21 
REMARK       I    between atoms: N6_21  and  C8_23 
ROOT
HETATM    1  C3  UNL     1       7.934  20.406  11.337  1.00  0.00     0.712 A 
HETATM    2  N2  UNL     1       8.809  19.603  10.625  1.00  0.00    -0.139 N 
ATOM      3  H2  UNL     1       9.441  18.977  11.124  1.00  0.00     0.189 HD
HETATM    4  C4  UNL     1       8.833  19.643   9.293  1.00  0.00     0.340 A 
HETATM    5  O2  UNL     1       9.637  18.903   8.676  1.00  0.00    -0.246 OA
HETATM    6  N3  UNL     1       7.986  20.482   8.697  1.00  0.00    -0.294 N 
ATOM      7  H3  UNL     1       7.990  20.525   7.678  1.00  0.00     0.172 HD
HETATM    8  C5  UNL     1       7.118  21.283   9.364  1.00  0.00     0.156 A 
HETATM    9  N5  UNL     1       7.088  21.243  10.745  1.00  0.00    -0.067 N 
ENDROOT
BRANCH   8  10
HETATM   10  C6  UNL     1       6.237  22.172   8.602  1.00  0.00     0.249 C 
HETATM   11  C7  UNL     1       5.571  21.488   7.448  1.00  0.00     0.048 C 
BRANCH  10  12
HETATM   12  N4  UNL     1       7.102  23.277   8.137  1.00  0.00    -0.069 N 
ATOM     13  H43 UNL     1       6.585  24.089   7.802  1.00  0.00     0.275 HD
ATOM     14  H42 UNL     1       7.600  23.753   8.889  1.00  0.00     0.275 HD
ATOM     15  H41 UNL     1       7.717  22.863   7.435  1.00  0.00     0.275 HD
ENDBRANCH  10  12
ENDBRANCH   8  10
BRANCH   9  16
HETATM   16  N6  UNL     1       6.212  22.071  11.388  1.00  0.00    -0.231 N 
HETATM   17  C8  UNL     1       6.300  23.026  12.369  1.00  0.00     0.348 C 
HETATM   18  N7  UNL     1       5.032  23.674  12.757  1.00  0.00    -0.038 NA
HETATM   19  O3  UNL     1       7.257  23.445  12.993  1.00  0.00    -0.249 OA
ATOM     20  H6  UNL     1       5.255  21.950  11.055  1.00  0.00     0.192 HD
ENDBRANCH   9  16
BRANCH   1  21
HETATM   21  N1  UNL     1       7.950  20.294  12.616  1.00  0.00    -0.158 N 
HETATM   22  C2  UNL     1       7.464  19.116  13.227  1.00  0.00     0.232 C 
HETATM   23  C1  UNL     1       6.034  18.928  13.616  1.00  0.00     0.118 C 
HETATM   24  O1  UNL     1       8.234  18.146  13.478  1.00  0.00    -0.273 OA
ATOM     25  H1  UNL     1       8.313  21.055  13.190  1.00  0.00     0.187 HD
ENDBRANCH   1  21
TORSDOF 4
ENDMDL
