MODEL 1
REMARK VINA RESULT: -7.700349504      0.000      0.000
REMARK  6 active torsions:
REMARK  status: ('A' for Active; 'I' for Inactive)
REMARK    1  A    between atoms: O1_2  and  C2_3 
REMARK    2  A    between atoms: C2_3  and  C3_5 
REMARK    3  A    between atoms: C3_5  and  O3_6 
REMARK    4  A    between atoms: C3_5  and  C4_8 
REMARK    5  A    between atoms: C6_10  and  N1_11 
REMARK    6  A    between atoms: N3_23  and  O6_25 
ROOT
HETATM    1  C4  UNL     1       0.132 -79.414-145.253  1.00  0.00     0.232 C 
HETATM    2  C5  UNL     1       0.863 -79.344-143.928  1.00  0.00     0.069 C 
HETATM    3  C6  UNL     1       2.277 -79.735-144.186  1.00  0.00     0.192 C 
HETATM    4  C7  UNL     1       2.907 -79.073-145.365  1.00  0.00     0.137 C 
HETATM    5  C8  UNL     1       1.982 -78.685-146.465  1.00  0.00     0.374 C 
HETATM    6  N2  UNL     1       0.648 -78.343-146.052  1.00  0.00    -0.007 N 
ATOM      7  H21 UNL     1       0.603 -77.442-145.575  1.00  0.00     0.284 HD
ATOM      8  H22 UNL     1       0.040 -78.113-146.838  1.00  0.00     0.284 HD
HETATM    9  O4  UNL     1       1.966 -79.618-147.504  1.00  0.00    -0.160 OA
HETATM   10  O5  UNL     1       3.238 -79.490-147.961  1.00  0.00    -0.145 OA
HETATM   11  C9  UNL     1       3.565 -78.127-147.900  1.00  0.00     0.318 C 
HETATM   12  N3  UNL     1       4.592 -77.554-148.440  1.00  0.00    -0.224 N 
ATOM     13  H3  UNL     1       5.277 -78.082-148.980  1.00  0.00     0.198 HD
HETATM   14  O7  UNL     1       2.544 -77.569-147.139  1.00  0.00    -0.248 OA
ENDROOT
BRANCH   3  15
HETATM   15  N1  UNL     1       3.045 -79.405-142.972  1.00  0.00    -0.075 N 
ATOM     16  H13 UNL     1       2.921 -78.439-142.670  1.00  0.00     0.274 HD
ATOM     17  H12 UNL     1       2.679 -79.854-142.132  1.00  0.00     0.274 HD
ATOM     18  H11 UNL     1       4.019 -79.642-143.160  1.00  0.00     0.274 HD
ENDBRANCH   3  15
BRANCH   1  19
HETATM   19  C3  UNL     1      -1.358 -79.397-145.082  1.00  0.00     0.248 C 
BRANCH  19  20
HETATM   20  C2  UNL     1      -2.000 -78.254-145.759  1.00  0.00     0.289 C 
HETATM   21  O2  UNL     1      -2.649 -78.429-146.824  1.00  0.00    -0.262 OA
BRANCH  20  22
HETATM   22  O1  UNL     1      -1.928 -76.955-145.278  1.00  0.00    -0.324 OA
HETATM   23  C1  UNL     1      -1.979 -75.857-146.176  1.00  0.00     0.213 C 
ENDBRANCH  20  22
ENDBRANCH  19  20
BRANCH  19  24
HETATM   24  O3  UNL     1      -1.729 -79.428-143.739  1.00  0.00    -0.383 OA
ATOM     25  H3  UNL     1      -1.734 -78.549-143.381  1.00  0.00     0.210 HD
ENDBRANCH  19  24
ENDBRANCH   1  19
BRANCH  12  26
HETATM   26  O6  UNL     1       4.714 -76.197-148.249  1.00  0.00    -0.286 OA
ATOM     27  H6  UNL     1       5.540 -75.803-148.504  1.00  0.00     0.244 HD
ENDBRANCH  12  26
TORSDOF 6
ENDMDL
MODEL 2
REMARK VINA RESULT: -7.581417341      0.771      1.160
REMARK  6 active torsions:
REMARK  status: ('A' for Active; 'I' for Inactive)
REMARK    1  A    between atoms: O1_2  and  C2_3 
REMARK    2  A    between atoms: C2_3  and  C3_5 
REMARK    3  A    between atoms: C3_5  and  O3_6 
REMARK    4  A    between atoms: C3_5  and  C4_8 
REMARK    5  A    between atoms: C6_10  and  N1_11 
REMARK    6  A    between atoms: N3_23  and  O6_25 
ROOT
HETATM    1  C4  UNL     1       0.082 -79.599-145.349  1.00  0.00     0.232 C 
HETATM    2  C5  UNL     1       0.737 -79.476-143.989  1.00  0.00     0.069 C 
HETATM    3  C6  UNL     1       2.185 -79.775-144.170  1.00  0.00     0.192 C 
HETATM    4  C7  UNL     1       2.831 -79.078-145.320  1.00  0.00     0.137 C 
HETATM    5  C8  UNL     1       1.942 -78.755-146.468  1.00  0.00     0.374 C 
HETATM    6  N2  UNL     1       0.568 -78.499-146.127  1.00  0.00    -0.007 N 
ATOM      7  H21 UNL     1       0.440 -77.602-145.659  1.00  0.00     0.284 HD
ATOM      8  H22 UNL     1      -0.011 -78.313-146.945  1.00  0.00     0.284 HD
HETATM    9  O4  UNL     1       2.040 -79.691-147.500  1.00  0.00    -0.160 OA
HETATM   10  O5  UNL     1       3.323 -79.482-147.892  1.00  0.00    -0.145 OA
HETATM   11  C9  UNL     1       3.557 -78.100-147.823  1.00  0.00     0.318 C 
HETATM   12  N3  UNL     1       4.571 -77.462-148.314  1.00  0.00    -0.224 N 
ATOM     13  H3  UNL     1       5.316 -77.946-148.814  1.00  0.00     0.198 HD
HETATM   14  O7  UNL     1       2.464 -77.607-147.120  1.00  0.00    -0.248 OA
ENDROOT
BRANCH   3  15
HETATM   15  N1  UNL     1       2.867 -79.391-142.920  1.00  0.00    -0.075 N 
ATOM     16  H13 UNL     1       2.820 -80.113-142.201  1.00  0.00     0.274 HD
ATOM     17  H12 UNL     1       3.882 -79.362-143.011  1.00  0.00     0.274 HD
ATOM     18  H11 UNL     1       2.466 -78.502-142.621  1.00  0.00     0.274 HD
ENDBRANCH   3  15
BRANCH   1  19
HETATM   19  C3  UNL     1      -1.412 -79.680-145.255  1.00  0.00     0.248 C 
BRANCH  19  20
HETATM   20  C2  UNL     1      -2.096 -78.772-146.197  1.00  0.00     0.289 C 
HETATM   21  O2  UNL     1      -2.324 -77.576-145.874  1.00  0.00    -0.262 OA
BRANCH  20  22
HETATM   22  O1  UNL     1      -2.517 -79.170-147.457  1.00  0.00    -0.324 OA
HETATM   23  C1  UNL     1      -3.521 -78.436-148.140  1.00  0.00     0.213 C 
ENDBRANCH  20  22
ENDBRANCH  19  20
BRANCH  19  24
HETATM   24  O3  UNL     1      -1.867 -79.453-143.957  1.00  0.00    -0.383 OA
ATOM     25  H3  UNL     1      -1.130 -79.342-143.368  1.00  0.00     0.210 HD
ENDBRANCH  19  24
ENDBRANCH   1  19
BRANCH  12  26
HETATM   26  O6  UNL     1       4.594 -76.100-148.127  1.00  0.00    -0.286 OA
ATOM     27  H6  UNL     1       4.897 -75.574-148.858  1.00  0.00     0.244 HD
ENDBRANCH  12  26
TORSDOF 6
ENDMDL
MODEL 3
REMARK VINA RESULT: -7.076260813      3.202      4.796
REMARK  6 active torsions:
REMARK  status: ('A' for Active; 'I' for Inactive)
REMARK    1  A    between atoms: O1_2  and  C2_3 
REMARK    2  A    between atoms: C2_3  and  C3_5 
REMARK    3  A    between atoms: C3_5  and  O3_6 
REMARK    4  A    between atoms: C3_5  and  C4_8 
REMARK    5  A    between atoms: C6_10  and  N1_11 
REMARK    6  A    between atoms: N3_23  and  O6_25 
ROOT
HETATM    1  C4  UNL     1       2.200 -80.870-143.009  1.00  0.00     0.232 C 
HETATM    2  C5  UNL     1       0.909 -80.085-142.908  1.00  0.00     0.069 C 
HETATM    3  C6  UNL     1       1.178 -78.723-143.448  1.00  0.00     0.192 C 
HETATM    4  C7  UNL     1       1.910 -78.696-144.748  1.00  0.00     0.137 C 
HETATM    5  C8  UNL     1       2.823 -79.843-145.005  1.00  0.00     0.374 C 
HETATM    6  N2  UNL     1       2.426 -81.089-144.406  1.00  0.00    -0.007 N 
ATOM      7  H21 UNL     1       1.621 -81.509-144.872  1.00  0.00     0.284 HD
ATOM      8  H22 UNL     1       3.094 -81.839-144.582  1.00  0.00     0.284 HD
HETATM    9  O4  UNL     1       4.155 -79.542-144.710  1.00  0.00    -0.160 OA
HETATM   10  O5  UNL     1       4.400 -78.592-145.649  1.00  0.00    -0.145 OA
HETATM   11  C9  UNL     1       3.743 -78.991-146.823  1.00  0.00     0.318 C 
HETATM   12  N3  UNL     1       3.898 -78.487-148.005  1.00  0.00    -0.224 N 
ATOM     13  H3  UNL     1       4.546 -77.719-148.178  1.00  0.00     0.198 HD
HETATM   14  O7  UNL     1       2.913 -80.028-146.410  1.00  0.00    -0.248 OA
ENDROOT
BRANCH   3  15
HETATM   15  N1  UNL     1      -0.125 -78.054-143.607  1.00  0.00    -0.075 N 
ATOM     16  H13 UNL     1      -0.126 -77.351-144.346  1.00  0.00     0.274 HD
ATOM     17  H12 UNL     1      -0.841 -78.662-144.003  1.00  0.00     0.274 HD
ATOM     18  H11 UNL     1      -0.382 -77.676-142.695  1.00  0.00     0.274 HD
ENDBRANCH   3  15
BRANCH   1  19
HETATM   19  C3  UNL     1       2.173 -82.120-142.182  1.00  0.00     0.248 C 
BRANCH  19  20
HETATM   20  C2  UNL     1       1.286 -82.010-141.007  1.00  0.00     0.289 C 
HETATM   21  O2  UNL     1       1.578 -81.233-140.060  1.00  0.00    -0.262 OA
BRANCH  20  22
HETATM   22  O1  UNL     1       0.112 -82.737-140.879  1.00  0.00    -0.324 OA
HETATM   23  C1  UNL     1       0.159 -84.128-140.597  1.00  0.00     0.213 C 
ENDBRANCH  20  22
ENDBRANCH  19  20
BRANCH  19  24
HETATM   24  O3  UNL     1       3.450 -82.509-141.782  1.00  0.00    -0.383 OA
ATOM     25  H3  UNL     1       4.066 -81.800-141.921  1.00  0.00     0.210 HD
ENDBRANCH  19  24
ENDBRANCH   1  19
BRANCH  12  26
HETATM   26  O6  UNL     1       3.146 -79.038-149.016  1.00  0.00    -0.286 OA
ATOM     27  H6  UNL     1       2.823 -79.921-148.875  1.00  0.00     0.244 HD
ENDBRANCH  12  26
TORSDOF 6
ENDMDL
MODEL 4
REMARK VINA RESULT: -7.076025241      2.642      3.540
REMARK  6 active torsions:
REMARK  status: ('A' for Active; 'I' for Inactive)
REMARK    1  A    between atoms: O1_2  and  C2_3 
REMARK    2  A    between atoms: C2_3  and  C3_5 
REMARK    3  A    between atoms: C3_5  and  O3_6 
REMARK    4  A    between atoms: C3_5  and  C4_8 
REMARK    5  A    between atoms: C6_10  and  N1_11 
REMARK    6  A    between atoms: N3_23  and  O6_25 
ROOT
HETATM    1  C4  UNL     1       2.147 -79.438-144.956  1.00  0.00     0.232 C 
HETATM    2  C5  UNL     1       2.951 -80.515-145.654  1.00  0.00     0.069 C 
HETATM    3  C6  UNL     1       2.871 -80.244-147.117  1.00  0.00     0.192 C 
HETATM    4  C7  UNL     1       3.120 -78.825-147.507  1.00  0.00     0.137 C 
HETATM    5  C8  UNL     1       2.759 -77.798-146.493  1.00  0.00     0.374 C 
HETATM    6  N2  UNL     1       2.881 -78.220-145.123  1.00  0.00    -0.007 N 
ATOM      7  H21 UNL     1       3.853 -78.304-144.824  1.00  0.00     0.284 HD
ATOM      8  H22 UNL     1       2.595 -77.497-144.463  1.00  0.00     0.284 HD
HETATM    9  O4  UNL     1       1.508 -77.224-146.734  1.00  0.00    -0.160 OA
HETATM   10  O5  UNL     1       1.760 -76.586-147.906  1.00  0.00    -0.145 OA
HETATM   11  C9  UNL     1       3.058 -76.059-147.820  1.00  0.00     0.318 C 
HETATM   12  N3  UNL     1       3.600 -75.203-148.625  1.00  0.00    -0.224 N 
ATOM     13  H3  UNL     1       3.093 -74.827-149.427  1.00  0.00     0.198 HD
HETATM   14  O7  UNL     1       3.596 -76.669-146.692  1.00  0.00    -0.248 OA
ENDROOT
BRANCH   3  15
HETATM   15  N1  UNL     1       3.864 -81.112-147.774  1.00  0.00    -0.075 N 
ATOM     16  H13 UNL     1       3.770 -82.094-147.515  1.00  0.00     0.274 HD
ATOM     17  H12 UNL     1       3.699 -81.224-148.774  1.00  0.00     0.274 HD
ATOM     18  H11 UNL     1       4.785 -80.729-147.561  1.00  0.00     0.274 HD
ENDBRANCH   3  15
BRANCH   1  19
HETATM   19  C3  UNL     1       1.845 -79.789-143.530  1.00  0.00     0.248 C 
BRANCH  19  20
HETATM   20  C2  UNL     1       0.727 -79.004-142.971  1.00  0.00     0.289 C 
HETATM   21  O2  UNL     1       0.390 -77.912-143.500  1.00  0.00    -0.262 OA
BRANCH  20  22
HETATM   22  O1  UNL     1       0.002 -79.409-141.860  1.00  0.00    -0.324 OA
HETATM   23  C1  UNL     1       0.139 -80.731-141.361  1.00  0.00     0.213 C 
ENDBRANCH  20  22
ENDBRANCH  19  20
BRANCH  19  24
HETATM   24  O3  UNL     1       2.968 -79.670-142.713  1.00  0.00    -0.383 OA
ATOM     25  H3  UNL     1       3.662 -80.237-143.028  1.00  0.00     0.210 HD
ENDBRANCH  19  24
ENDBRANCH   1  19
BRANCH  12  26
HETATM   26  O6  UNL     1       4.892 -74.824-148.347  1.00  0.00    -0.286 OA
ATOM     27  H6  UNL     1       5.577 -75.229-148.867  1.00  0.00     0.244 HD
ENDBRANCH  12  26
TORSDOF 6
ENDMDL
MODEL 5
REMARK VINA RESULT: -6.987876668      2.146      3.159
REMARK  6 active torsions:
REMARK  status: ('A' for Active; 'I' for Inactive)
REMARK    1  A    between atoms: O1_2  and  C2_3 
REMARK    2  A    between atoms: C2_3  and  C3_5 
REMARK    3  A    between atoms: C3_5  and  O3_6 
REMARK    4  A    between atoms: C3_5  and  C4_8 
REMARK    5  A    between atoms: C6_10  and  N1_11 
REMARK    6  A    between atoms: N3_23  and  O6_25 
ROOT
HETATM    1  C4  UNL     1       2.089 -79.476-144.929  1.00  0.00     0.232 C 
HETATM    2  C5  UNL     1       2.908 -80.552-145.611  1.00  0.00     0.069 C 
HETATM    3  C6  UNL     1       2.851 -80.285-147.075  1.00  0.00     0.192 C 
HETATM    4  C7  UNL     1       3.101 -78.866-147.465  1.00  0.00     0.137 C 
HETATM    5  C8  UNL     1       2.719 -77.838-146.460  1.00  0.00     0.374 C 
HETATM    6  N2  UNL     1       2.820 -78.255-145.087  1.00  0.00    -0.007 N 
ATOM      7  H21 UNL     1       3.787 -78.335-144.771  1.00  0.00     0.284 HD
ATOM      8  H22 UNL     1       2.521 -77.532-144.434  1.00  0.00     0.284 HD
HETATM    9  O4  UNL     1       1.470 -77.270-146.724  1.00  0.00    -0.160 OA
HETATM   10  O5  UNL     1       1.739 -76.633-147.893  1.00  0.00    -0.145 OA
HETATM   11  C9  UNL     1       3.034 -76.102-147.787  1.00  0.00     0.318 C 
HETATM   12  N3  UNL     1       3.585 -75.245-148.585  1.00  0.00    -0.224 N 
ATOM     13  H3  UNL     1       3.090 -74.874-149.396  1.00  0.00     0.198 HD
HETATM   14  O7  UNL     1       3.555 -76.706-146.648  1.00  0.00    -0.248 OA
ENDROOT
BRANCH   3  15
HETATM   15  N1  UNL     1       3.859 -81.151-147.713  1.00  0.00    -0.075 N 
ATOM     16  H13 UNL     1       4.049 -82.001-147.183  1.00  0.00     0.274 HD
ATOM     17  H12 UNL     1       3.519 -81.600-148.564  1.00  0.00     0.274 HD
ATOM     18  H11 UNL     1       4.691 -80.581-147.866  1.00  0.00     0.274 HD
ENDBRANCH   3  15
BRANCH   1  19
HETATM   19  C3  UNL     1       1.764 -79.824-143.507  1.00  0.00     0.248 C 
BRANCH  19  20
HETATM   20  C2  UNL     1       0.578 -79.108-142.998  1.00  0.00     0.289 C 
HETATM   21  O2  UNL     1       0.069 -79.429-141.891  1.00  0.00    -0.262 OA
BRANCH  20  22
HETATM   22  O1  UNL     1      -0.031 -78.071-143.688  1.00  0.00    -0.324 OA
HETATM   23  C1  UNL     1      -1.147 -78.329-144.526  1.00  0.00     0.213 C 
ENDBRANCH  20  22
ENDBRANCH  19  20
BRANCH  19  24
HETATM   24  O3  UNL     1       2.850 -79.616-142.658  1.00  0.00    -0.383 OA
ATOM     25  H3  UNL     1       3.222 -80.449-142.394  1.00  0.00     0.210 HD
ENDBRANCH  19  24
ENDBRANCH   1  19
BRANCH  12  26
HETATM   26  O6  UNL     1       4.871 -74.861-148.287  1.00  0.00    -0.286 OA
ATOM     27  H6  UNL     1       5.358 -74.426-148.977  1.00  0.00     0.244 HD
ENDBRANCH  12  26
TORSDOF 6
ENDMDL
