MODEL 1
REMARK VINA RESULT: -7.328525583      0.000      0.000
REMARK  7 active torsions:
REMARK  status: ('A' for Active; 'I' for Inactive)
REMARK    1  A    between atoms: O1_2  and  C2_3 
REMARK    2  A    between atoms: C2_3  and  O2_4 
REMARK    3  A    between atoms: C2_3  and  C3_6 
REMARK    4  A    between atoms: C3_6  and  O3_7 
REMARK    5  A    between atoms: C5_11  and  O4_12 
REMARK    6  A    between atoms: C5_11  and  O5_14 
REMARK    7  A    between atoms: O5_14  and  C6_15 
ROOT
HETATM    1  C3  UNL     1      -0.397 -78.960-144.907  1.00  0.00     0.152 C 
HETATM    2  C4  UNL     1      -1.827 -78.609-145.231  1.00  0.00     0.130 C 
HETATM    3  S1  UNL     1      -2.913 -79.871-145.817  1.00  0.00    -0.088 SA
HETATM    4  C5  UNL     1      -2.802 -78.836-147.291  1.00  0.00     0.251 C 
HETATM    5  C7  UNL     1      -1.671 -78.074-146.640  1.00  0.00     0.214 C 
HETATM    6  O6  UNL     1      -0.455 -78.441-147.120  1.00  0.00    -0.365 OA
HETATM    7  C8  UNL     1       0.187 -79.272-146.208  1.00  0.00     0.091 C 
HETATM    8  C9  UNL     1       1.653 -78.813-146.199  1.00  0.00     0.049 C 
HETATM    9  C10 UNL     1       0.154 -80.649-146.729  1.00  0.00     0.049 C 
ENDROOT
BRANCH   4  10
HETATM   10  O4  UNL     1      -2.466 -79.489-148.462  1.00  0.00    -0.355 OA
ATOM     11  H4  UNL     1      -3.046 -79.342-149.200  1.00  0.00     0.214 HD
ENDBRANCH   4  10
BRANCH   4  12
HETATM   12  O5  UNL     1      -3.914 -77.994-147.515  1.00  0.00    -0.274 OA
BRANCH  12  13
HETATM   13  C6  UNL     1      -4.299 -77.738-148.824  1.00  0.00     0.228 C 
HETATM   14  N1  UNL     1      -5.410 -78.275-149.206  1.00  0.00    -0.368 N 
ATOM     15  H12 UNL     1      -5.989 -78.858-148.601  1.00  0.00     0.159 HD
ATOM     16  H11 UNL     1      -5.694 -78.087-150.167  1.00  0.00     0.159 HD
HETATM   17  N2  UNL     1      -3.497 -76.930-149.662  1.00  0.00    -0.056 NA
ENDBRANCH  12  13
ENDBRANCH   4  12
BRANCH   1  18
HETATM   18  C2  UNL     1      -0.228 -79.881-143.772  1.00  0.00     0.294 C 
BRANCH  18  19
HETATM   19  O1  UNL     1      -1.025 -79.696-142.671  1.00  0.00    -0.363 OA
HETATM   20  C1  UNL     1      -1.350 -80.905-142.035  1.00  0.00     0.204 C 
ENDBRANCH  18  19
BRANCH  18  21
HETATM   21  O2  UNL     1       1.128 -79.775-143.335  1.00  0.00    -0.368 OA
ATOM     22  H2  UNL     1       1.676 -79.815-144.110  1.00  0.00     0.212 HD
ENDBRANCH  18  21
ENDBRANCH   1  18
BRANCH   1  23
HETATM   23  O3  UNL     1       0.150 -77.712-144.485  1.00  0.00    -0.380 OA
ATOM     24  H3  UNL     1      -0.017 -77.100-145.192  1.00  0.00     0.211 HD
ENDBRANCH   1  23
TORSDOF 7
ENDMDL
MODEL 2
REMARK VINA RESULT: -6.161009233      3.651      5.162
REMARK  7 active torsions:
REMARK  status: ('A' for Active; 'I' for Inactive)
REMARK    1  A    between atoms: O1_2  and  C2_3 
REMARK    2  A    between atoms: C2_3  and  O2_4 
REMARK    3  A    between atoms: C2_3  and  C3_6 
REMARK    4  A    between atoms: C3_6  and  O3_7 
REMARK    5  A    between atoms: C5_11  and  O4_12 
REMARK    6  A    between atoms: C5_11  and  O5_14 
REMARK    7  A    between atoms: O5_14  and  C6_15 
ROOT
HETATM    1  C3  UNL     1       1.685 -79.599-145.001  1.00  0.00     0.152 C 
HETATM    2  C4  UNL     1       2.224 -78.570-145.962  1.00  0.00     0.130 C 
HETATM    3  S1  UNL     1       1.652 -78.567-147.632  1.00  0.00    -0.088 SA
HETATM    4  C5  UNL     1       3.374 -79.043-147.887  1.00  0.00     0.251 C 
HETATM    5  C7  UNL     1       3.513 -79.239-146.395  1.00  0.00     0.214 C 
HETATM    6  O6  UNL     1       3.473 -80.548-146.038  1.00  0.00    -0.365 OA
HETATM    7  C8  UNL     1       2.227 -80.858-145.501  1.00  0.00     0.091 C 
HETATM    8  C9  UNL     1       2.515 -81.769-144.299  1.00  0.00     0.049 C 
HETATM    9  C10 UNL     1       1.478 -81.651-146.491  1.00  0.00     0.049 C 
ENDROOT
BRANCH   4  10
HETATM   10  O4  UNL     1       3.579 -80.180-148.644  1.00  0.00    -0.355 OA
ATOM     11  H4  UNL     1       4.349 -80.174-149.200  1.00  0.00     0.214 HD
ENDBRANCH   4  10
BRANCH   4  12
HETATM   12  O5  UNL     1       4.219 -78.006-148.340  1.00  0.00    -0.274 OA
BRANCH  12  13
HETATM   13  C6  UNL     1       3.893 -77.352-149.520  1.00  0.00     0.228 C 
HETATM   14  N1  UNL     1       3.689 -78.104-150.550  1.00  0.00    -0.368 N 
ATOM     15  H12 UNL     1       3.758 -79.121-150.525  1.00  0.00     0.159 HD
ATOM     16  H11 UNL     1       3.449 -77.623-151.417  1.00  0.00     0.159 HD
HETATM   17  N2  UNL     1       3.798 -75.942-149.555  1.00  0.00    -0.056 NA
ENDBRANCH  12  13
ENDBRANCH   4  12
BRANCH   1  18
HETATM   18  C2  UNL     1       0.252 -79.470-144.697  1.00  0.00     0.294 C 
BRANCH  18  19
HETATM   19  O1  UNL     1      -0.353 -78.265-144.949  1.00  0.00    -0.363 OA
HETATM   20  C1  UNL     1      -1.563 -78.408-145.646  1.00  0.00     0.204 C 
ENDBRANCH  18  19
BRANCH  18  21
HETATM   21  O2  UNL     1       0.085 -79.744-143.304  1.00  0.00    -0.368 OA
ATOM     22  H2  UNL     1       0.782 -80.337-143.050  1.00  0.00     0.212 HD
ENDBRANCH  18  21
ENDBRANCH   1  18
BRANCH   1  23
HETATM   23  O3  UNL     1       2.372 -79.294-143.789  1.00  0.00    -0.380 OA
ATOM     24  H3  UNL     1       3.212 -79.736-143.845  1.00  0.00     0.211 HD
ENDBRANCH   1  23
TORSDOF 7
ENDMDL
MODEL 3
REMARK VINA RESULT: -6.054084613      3.517      5.166
REMARK  7 active torsions:
REMARK  status: ('A' for Active; 'I' for Inactive)
REMARK    1  A    between atoms: O1_2  and  C2_3 
REMARK    2  A    between atoms: C2_3  and  O2_4 
REMARK    3  A    between atoms: C2_3  and  C3_6 
REMARK    4  A    between atoms: C3_6  and  O3_7 
REMARK    5  A    between atoms: C5_11  and  O4_12 
REMARK    6  A    between atoms: C5_11  and  O5_14 
REMARK    7  A    between atoms: O5_14  and  C6_15 
ROOT
HETATM    1  C3  UNL     1       0.578 -79.382-145.995  1.00  0.00     0.152 C 
HETATM    2  C4  UNL     1       1.191 -78.783-147.236  1.00  0.00     0.130 C 
HETATM    3  S1  UNL     1       1.798 -79.854-148.501  1.00  0.00    -0.088 SA
HETATM    4  C5  UNL     1       3.347 -79.122-147.933  1.00  0.00     0.251 C 
HETATM    5  C7  UNL     1       2.605 -78.531-146.756  1.00  0.00     0.214 C 
HETATM    6  O6  UNL     1       2.814 -79.228-145.610  1.00  0.00    -0.365 OA
HETATM    7  C8  UNL     1       1.706 -80.020-145.325  1.00  0.00     0.091 C 
HETATM    8  C9  UNL     1       1.496 -79.899-143.808  1.00  0.00     0.049 C 
HETATM    9  C10 UNL     1       2.050 -81.423-145.616  1.00  0.00     0.049 C 
ENDROOT
BRANCH   4  10
HETATM   10  O4  UNL     1       4.349 -80.014-147.602  1.00  0.00    -0.355 OA
ATOM     11  H4  UNL     1       4.458 -80.187-146.674  1.00  0.00     0.214 HD
ENDBRANCH   4  10
BRANCH   4  12
HETATM   12  O5  UNL     1       3.866 -78.105-148.764  1.00  0.00    -0.274 OA
BRANCH  12  13
HETATM   13  C6  UNL     1       3.492 -78.084-150.101  1.00  0.00     0.228 C 
HETATM   14  N1  UNL     1       4.076 -78.944-150.868  1.00  0.00    -0.368 N 
ATOM     15  H12 UNL     1       4.773 -79.610-150.536  1.00  0.00     0.159 HD
ATOM     16  H11 UNL     1       3.801 -78.929-151.850  1.00  0.00     0.159 HD
HETATM   17  N2  UNL     1       2.525 -77.161-150.560  1.00  0.00    -0.056 NA
ENDBRANCH  12  13
ENDBRANCH   4  12
BRANCH   1  18
HETATM   18  C2  UNL     1      -0.674 -80.121-146.218  1.00  0.00     0.294 C 
BRANCH  18  19
HETATM   19  O1  UNL     1      -1.283 -79.999-147.442  1.00  0.00    -0.363 OA
HETATM   20  C1  UNL     1      -2.503 -79.308-147.366  1.00  0.00     0.204 C 
ENDBRANCH  18  19
BRANCH  18  21
HETATM   21  O2  UNL     1      -1.611 -79.679-145.234  1.00  0.00    -0.368 OA
ATOM     22  H2  UNL     1      -1.268 -78.876-144.860  1.00  0.00     0.212 HD
ENDBRANCH  18  21
ENDBRANCH   1  18
BRANCH   1  23
HETATM   23  O3  UNL     1       0.224 -78.233-145.227  1.00  0.00    -0.380 OA
ATOM     24  H3  UNL     1       0.937 -78.098-144.613  1.00  0.00     0.211 HD
ENDBRANCH   1  23
TORSDOF 7
ENDMDL
MODEL 4
REMARK VINA RESULT: -6.035855748      3.666      4.735
REMARK  7 active torsions:
REMARK  status: ('A' for Active; 'I' for Inactive)
REMARK    1  A    between atoms: O1_2  and  C2_3 
REMARK    2  A    between atoms: C2_3  and  O2_4 
REMARK    3  A    between atoms: C2_3  and  C3_6 
REMARK    4  A    between atoms: C3_6  and  O3_7 
REMARK    5  A    between atoms: C5_11  and  O4_12 
REMARK    6  A    between atoms: C5_11  and  O5_14 
REMARK    7  A    between atoms: O5_14  and  C6_15 
ROOT
HETATM    1  C3  UNL     1       0.578 -79.280-145.459  1.00  0.00     0.152 C 
HETATM    2  C4  UNL     1       0.588 -78.994-146.940  1.00  0.00     0.130 C 
HETATM    3  S1  UNL     1       0.641 -80.343-148.078  1.00  0.00    -0.088 SA
HETATM    4  C5  UNL     1       2.258 -79.603-148.386  1.00  0.00     0.251 C 
HETATM    5  C7  UNL     1       2.063 -78.734-147.165  1.00  0.00     0.214 C 
HETATM    6  O6  UNL     1       2.761 -79.185-146.091  1.00  0.00    -0.365 OA
HETATM    7  C8  UNL     1       1.906 -79.830-145.204  1.00  0.00     0.091 C 
HETATM    8  C9  UNL     1       2.351 -79.380-143.805  1.00  0.00     0.049 C 
HETATM    9  C10 UNL     1       2.143 -81.281-145.300  1.00  0.00     0.049 C 
ENDROOT
BRANCH   4  10
HETATM   10  O4  UNL     1       3.337 -80.464-148.321  1.00  0.00    -0.355 OA
ATOM     11  H4  UNL     1       4.122 -80.114-147.917  1.00  0.00     0.214 HD
ENDBRANCH   4  10
BRANCH   4  12
HETATM   12  O5  UNL     1       2.342 -78.817-149.556  1.00  0.00    -0.274 OA
BRANCH  12  13
HETATM   13  C6  UNL     1       3.594 -78.395-149.984  1.00  0.00     0.228 C 
HETATM   14  N1  UNL     1       4.058 -78.973-151.042  1.00  0.00    -0.368 N 
ATOM     15  H12 UNL     1       3.555 -79.699-151.551  1.00  0.00     0.159 HD
ATOM     16  H11 UNL     1       4.978 -78.663-151.356  1.00  0.00     0.159 HD
HETATM   17  N2  UNL     1       4.290 -77.389-149.277  1.00  0.00    -0.056 NA
ENDBRANCH  12  13
ENDBRANCH   4  12
BRANCH   1  18
HETATM   18  C2  UNL     1      -0.625 -79.972-144.971  1.00  0.00     0.294 C 
BRANCH  18  19
HETATM   19  O1  UNL     1      -1.763 -79.897-145.733  1.00  0.00    -0.363 OA
HETATM   20  C1  UNL     1      -2.892 -79.548-144.976  1.00  0.00     0.204 C 
ENDBRANCH  18  19
BRANCH  18  21
HETATM   21  O2  UNL     1      -0.938 -79.427-143.688  1.00  0.00    -0.368 OA
ATOM     22  H2  UNL     1      -0.899 -80.141-143.063  1.00  0.00     0.212 HD
ENDBRANCH  18  21
ENDBRANCH   1  18
BRANCH   1  23
HETATM   23  O3  UNL     1       0.542 -77.976-144.883  1.00  0.00    -0.380 OA
ATOM     24  H3  UNL     1       1.306 -77.916-144.321  1.00  0.00     0.211 HD
ENDBRANCH   1  23
TORSDOF 7
ENDMDL
MODEL 5
REMARK VINA RESULT: -6.033064814      2.136      2.698
REMARK  7 active torsions:
REMARK  status: ('A' for Active; 'I' for Inactive)
REMARK    1  A    between atoms: O1_2  and  C2_3 
REMARK    2  A    between atoms: C2_3  and  O2_4 
REMARK    3  A    between atoms: C2_3  and  C3_6 
REMARK    4  A    between atoms: C3_6  and  O3_7 
REMARK    5  A    between atoms: C5_11  and  O4_12 
REMARK    6  A    between atoms: C5_11  and  O5_14 
REMARK    7  A    between atoms: O5_14  and  C6_15 
ROOT
HETATM    1  C3  UNL     1       2.266 -79.643-146.074  1.00  0.00     0.152 C 
HETATM    2  C4  UNL     1       1.018 -78.832-145.831  1.00  0.00     0.130 C 
HETATM    3  S1  UNL     1      -0.500 -79.666-145.488  1.00  0.00    -0.088 SA
HETATM    4  C5  UNL     1      -0.890 -78.943-147.095  1.00  0.00     0.251 C 
HETATM    5  C7  UNL     1       0.568 -78.578-147.255  1.00  0.00     0.214 C 
HETATM    6  O6  UNL     1       1.226 -79.426-148.085  1.00  0.00    -0.365 OA
HETATM    7  C8  UNL     1       2.003 -80.312-147.344  1.00  0.00     0.091 C 
HETATM    8  C9  UNL     1       3.330 -80.431-148.108  1.00  0.00     0.049 C 
HETATM    9  C10 UNL     1       1.353 -81.634-147.370  1.00  0.00     0.049 C 
ENDROOT
BRANCH   4  10
HETATM   10  O4  UNL     1      -1.378 -79.819-148.047  1.00  0.00    -0.355 OA
ATOM     11  H4  UNL     1      -2.105 -79.499-148.569  1.00  0.00     0.214 HD
ENDBRANCH   4  10
BRANCH   4  12
HETATM   12  O5  UNL     1      -1.698 -77.786-147.049  1.00  0.00    -0.274 OA
BRANCH  12  13
HETATM   13  C6  UNL     1      -2.968 -77.841-147.606  1.00  0.00     0.228 C 
HETATM   14  N1  UNL     1      -3.904 -78.304-146.845  1.00  0.00    -0.368 N 
ATOM     15  H12 UNL     1      -3.745 -78.616-145.888  1.00  0.00     0.159 HD
ATOM     16  H11 UNL     1      -4.838 -78.344-147.254  1.00  0.00     0.159 HD
HETATM   17  N2  UNL     1      -3.188 -77.408-148.933  1.00  0.00    -0.056 NA
ENDBRANCH  12  13
ENDBRANCH   4  12
BRANCH   1  18
HETATM   18  C2  UNL     1       2.742 -80.408-144.911  1.00  0.00     0.294 C 
BRANCH  18  19
HETATM   19  O1  UNL     1       2.389 -81.731-144.823  1.00  0.00    -0.363 OA
HETATM   20  C1  UNL     1       2.476 -82.223-143.512  1.00  0.00     0.204 C 
ENDBRANCH  18  19
BRANCH  18  21
HETATM   21  O2  UNL     1       2.241 -79.758-143.740  1.00  0.00    -0.368 OA
ATOM     22  H2  UNL     1       1.518 -79.206-144.013  1.00  0.00     0.212 HD
ENDBRANCH  18  21
ENDBRANCH   1  18
BRANCH   1  23
HETATM   23  O3  UNL     1       3.253 -78.643-146.318  1.00  0.00    -0.380 OA
ATOM     24  H3  UNL     1       2.820 -77.808-146.182  1.00  0.00     0.211 HD
ENDBRANCH   1  23
TORSDOF 7
ENDMDL
