MODEL 1
REMARK VINA RESULT: -7.098588270      0.000      0.000
REMARK  0 active torsions:
REMARK  status: ('A' for Active; 'I' for Inactive)
ROOT
HETATM    1  C1  UNL     1      11.169 -45.076 -11.598  1.00  0.00     0.171 C 
HETATM    2  N1  UNL     1      12.333 -45.340 -12.310  1.00  0.00    -0.330 N 
HETATM    3  N2  UNL     1      13.159 -44.375 -12.697  1.00  0.00    -0.329 N 
ATOM      4  H2  UNL     1      13.697 -43.854 -12.005  1.00  0.00     0.180 HD
HETATM    5  C2  UNL     1      13.287 -44.072 -14.077  1.00  0.00     0.042 C 
HETATM    6  C3  UNL     1      12.090 -43.282 -14.578  1.00  0.00     0.040 C 
HETATM    7  C4  UNL     1      14.502 -43.169 -14.248  1.00  0.00     0.040 C 
HETATM    8  C5  UNL     1      13.383 -45.312 -14.923  1.00  0.00     0.022 C 
HETATM    9  C6  UNL     1      14.706 -46.002 -14.850  1.00  0.00     0.012 C 
HETATM   10  C7  UNL     1      14.610 -47.479 -14.750  1.00  0.00    -0.013 C 
HETATM   11  C8  UNL     1      13.512 -48.116 -15.529  1.00  0.00     0.014 C 
HETATM   12  C9  UNL     1      12.202 -47.447 -15.370  1.00  0.00    -0.041 C 
HETATM   13  C10 UNL     1      11.818 -46.871 -16.744  1.00  0.00     0.015 C 
HETATM   14  C11 UNL     1      11.072 -48.352 -14.982  1.00  0.00     0.015 C 
HETATM   15  C12 UNL     1      12.339 -46.284 -14.446  1.00  0.00     0.025 C 
HETATM   16  C13 UNL     1      12.411 -46.609 -12.995  1.00  0.00     0.114 C 
HETATM   17  C14 UNL     1      13.475 -47.441 -12.475  1.00  0.00    -0.025 C 
HETATM   18  C15 UNL     1      14.154 -46.696 -11.300  1.00  0.00     0.017 C 
HETATM   19  C16 UNL     1      12.892 -48.664 -11.726  1.00  0.00     0.017 C 
HETATM   20  C17 UNL     1      14.556 -47.944 -13.326  1.00  0.00     0.015 C 
ENDROOT
TORSDOF 0
ENDMDL
MODEL 2
REMARK VINA RESULT: -6.878108222      1.731      4.490
REMARK  0 active torsions:
REMARK  status: ('A' for Active; 'I' for Inactive)
ROOT
HETATM    1  C1  UNL     1      11.703 -47.031 -16.208  1.00  0.00     0.171 C 
HETATM    2  N1  UNL     1      12.758 -46.547 -15.444  1.00  0.00    -0.330 N 
HETATM    3  N2  UNL     1      13.405 -47.310 -14.569  1.00  0.00    -0.329 N 
ATOM      4  H2  UNL     1      13.991 -48.078 -14.895  1.00  0.00     0.180 HD
HETATM    5  C2  UNL     1      13.278 -47.050 -13.180  1.00  0.00     0.042 C 
HETATM    6  C3  UNL     1      11.940 -47.538 -12.652  1.00  0.00     0.040 C 
HETATM    7  C4  UNL     1      14.347 -47.853 -12.452  1.00  0.00     0.040 C 
HETATM    8  C5  UNL     1      13.365 -45.580 -12.868  1.00  0.00     0.022 C 
HETATM    9  C6  UNL     1      14.748 -45.020 -12.947  1.00  0.00     0.012 C 
HETATM   10  C7  UNL     1      14.825 -43.699 -13.618  1.00  0.00    -0.013 C 
HETATM   11  C8  UNL     1      13.687 -42.770 -13.363  1.00  0.00     0.014 C 
HETATM   12  C9  UNL     1      12.358 -43.403 -13.500  1.00  0.00    -0.041 C 
HETATM   13  C10 UNL     1      11.699 -43.379 -12.109  1.00  0.00     0.015 C 
HETATM   14  C11 UNL     1      11.406 -42.687 -14.409  1.00  0.00     0.015 C 
HETATM   15  C12 UNL     1      12.519 -44.840 -13.868  1.00  0.00     0.025 C 
HETATM   16  C13 UNL     1      12.858 -45.115 -15.291  1.00  0.00     0.114 C 
HETATM   17  C14 UNL     1      14.072 -44.590 -15.877  1.00  0.00    -0.025 C 
HETATM   18  C15 UNL     1      14.850 -45.760 -16.529  1.00  0.00     0.017 C 
HETATM   19  C16 UNL     1      13.749 -43.742 -17.131  1.00  0.00     0.017 C 
HETATM   20  C17 UNL     1      15.049 -43.829 -15.094  1.00  0.00     0.015 C 
ENDROOT
TORSDOF 0
ENDMDL
MODEL 3
REMARK VINA RESULT: -6.780482875      1.889      4.482
REMARK  0 active torsions:
REMARK  status: ('A' for Active; 'I' for Inactive)
ROOT
HETATM    1  C1  UNL     1      10.821 -47.948 -16.325  1.00  0.00     0.171 C 
HETATM    2  N1  UNL     1      11.648 -48.213 -15.240  1.00  0.00    -0.330 N 
HETATM    3  N2  UNL     1      11.433 -49.238 -14.422  1.00  0.00    -0.329 N 
ATOM      4  H2  UNL     1      11.559 -50.193 -14.754  1.00  0.00     0.180 HD
HETATM    5  C2  UNL     1      11.028 -48.995 -13.084  1.00  0.00     0.042 C 
HETATM    6  C3  UNL     1       9.561 -48.604 -13.018  1.00  0.00     0.040 C 
HETATM    7  C4  UNL     1      11.161 -50.300 -12.310  1.00  0.00     0.040 C 
HETATM    8  C5  UNL     1      11.811 -47.879 -12.448  1.00  0.00     0.022 C 
HETATM    9  C6  UNL     1      13.205 -48.253 -12.062  1.00  0.00     0.012 C 
HETATM   10  C7  UNL     1      14.218 -47.219 -12.390  1.00  0.00    -0.013 C 
HETATM   11  C8  UNL     1      13.783 -45.804 -12.224  1.00  0.00     0.014 C 
HETATM   12  C9  UNL     1      12.459 -45.513 -12.816  1.00  0.00    -0.041 C 
HETATM   13  C10 UNL     1      11.516 -45.143 -11.658  1.00  0.00     0.015 C 
HETATM   14  C11 UNL     1      12.427 -44.343 -13.752  1.00  0.00     0.015 C 
HETATM   15  C12 UNL     1      11.902 -46.750 -13.438  1.00  0.00     0.025 C 
HETATM   16  C13 UNL     1      12.471 -47.129 -14.760  1.00  0.00     0.114 C 
HETATM   17  C14 UNL     1      13.883 -47.416 -14.903  1.00  0.00    -0.025 C 
HETATM   18  C15 UNL     1      14.038 -48.798 -15.584  1.00  0.00     0.017 C 
HETATM   19  C16 UNL     1      14.517 -46.505 -15.981  1.00  0.00     0.017 C 
HETATM   20  C17 UNL     1      14.798 -47.413 -13.759  1.00  0.00     0.015 C 
ENDROOT
TORSDOF 0
ENDMDL
MODEL 4
REMARK VINA RESULT: -6.675506774      1.657      3.673
REMARK  0 active torsions:
REMARK  status: ('A' for Active; 'I' for Inactive)
ROOT
HETATM    1  C1  UNL     1      11.788 -42.889 -15.731  1.00  0.00     0.171 C 
HETATM    2  N1  UNL     1      12.786 -43.678 -15.172  1.00  0.00    -0.330 N 
HETATM    3  N2  UNL     1      13.618 -44.398 -15.917  1.00  0.00    -0.329 N 
ATOM      4  H2  UNL     1      14.310 -43.935 -16.505  1.00  0.00     0.180 HD
HETATM    5  C2  UNL     1      13.538 -45.815 -15.891  1.00  0.00     0.042 C 
HETATM    6  C3  UNL     1      12.348 -46.311 -16.695  1.00  0.00     0.040 C 
HETATM    7  C4  UNL     1      14.781 -46.368 -16.573  1.00  0.00     0.040 C 
HETATM    8  C5  UNL     1      13.378 -46.347 -14.492  1.00  0.00     0.022 C 
HETATM    9  C6  UNL     1      14.627 -46.304 -13.675  1.00  0.00     0.012 C 
HETATM   10  C7  UNL     1      14.418 -45.843 -12.280  1.00  0.00    -0.013 C 
HETATM   11  C8  UNL     1      13.151 -46.283 -11.630  1.00  0.00     0.014 C 
HETATM   12  C9  UNL     1      11.952 -46.100 -12.478  1.00  0.00    -0.041 C 
HETATM   13  C10 UNL     1      11.394 -47.501 -12.781  1.00  0.00     0.015 C 
HETATM   14  C11 UNL     1      10.828 -45.349 -11.830  1.00  0.00     0.015 C 
HETATM   15  C12 UNL     1      12.346 -45.507 -13.789  1.00  0.00     0.025 C 
HETATM   16  C13 UNL     1      12.634 -44.047 -13.785  1.00  0.00     0.114 C 
HETATM   17  C14 UNL     1      13.692 -43.503 -12.960  1.00  0.00    -0.025 C 
HETATM   18  C15 UNL     1      14.624 -42.649 -13.854  1.00  0.00     0.017 C 
HETATM   19  C16 UNL     1      13.137 -42.410 -12.015  1.00  0.00     0.017 C 
HETATM   20  C17 UNL     1      14.564 -44.357 -12.150  1.00  0.00     0.015 C 
ENDROOT
TORSDOF 0
ENDMDL
MODEL 5
REMARK VINA RESULT: -6.431101989      1.526      2.254
REMARK  0 active torsions:
REMARK  status: ('A' for Active; 'I' for Inactive)
ROOT
HETATM    1  C1  UNL     1      12.123 -43.442 -14.471  1.00  0.00     0.171 C 
HETATM    2  N1  UNL     1      13.099 -44.429 -14.409  1.00  0.00    -0.330 N 
HETATM    3  N2  UNL     1      14.144 -44.442 -15.228  1.00  0.00    -0.329 N 
ATOM      4  H2  UNL     1      14.864 -43.723 -15.150  1.00  0.00     0.180 HD
HETATM    5  C2  UNL     1      14.256 -45.459 -16.210  1.00  0.00     0.042 C 
HETATM    6  C3  UNL     1      13.316 -45.201 -17.376  1.00  0.00     0.040 C 
HETATM    7  C4  UNL     1      15.669 -45.412 -16.777  1.00  0.00     0.040 C 
HETATM    8  C5  UNL     1      13.913 -46.818 -15.661  1.00  0.00     0.022 C 
HETATM    9  C6  UNL     1      14.972 -47.409 -14.787  1.00  0.00     0.012 C 
HETATM   10  C7  UNL     1      14.446 -48.060 -13.562  1.00  0.00    -0.013 C 
HETATM   11  C8  UNL     1      13.152 -48.785 -13.712  1.00  0.00     0.014 C 
HETATM   12  C9  UNL     1      12.118 -48.015 -14.438  1.00  0.00    -0.041 C 
HETATM   13  C10 UNL     1      11.824 -48.773 -15.745  1.00  0.00     0.015 C 
HETATM   14  C11 UNL     1      10.801 -47.903 -13.731  1.00  0.00     0.015 C 
HETATM   15  C12 UNL     1      12.664 -46.685 -14.833  1.00  0.00     0.025 C 
HETATM   16  C13 UNL     1      12.743 -45.665 -13.752  1.00  0.00     0.114 C 
HETATM   17  C14 UNL     1      13.545 -45.900 -12.570  1.00  0.00    -0.025 C 
HETATM   18  C15 UNL     1      14.501 -44.697 -12.375  1.00  0.00     0.017 C 
HETATM   19  C16 UNL     1      12.680 -45.774 -11.292  1.00  0.00     0.017 C 
HETATM   20  C17 UNL     1      14.360 -47.106 -12.409  1.00  0.00     0.015 C 
ENDROOT
TORSDOF 0
ENDMDL
