MODEL 1
REMARK VINA RESULT: -6.236334262      0.000      0.000
REMARK  5 active torsions:
REMARK  status: ('A' for Active; 'I' for Inactive)
REMARK    1  A    between atoms: C4_5  and  C5_6 
REMARK    2  A    between atoms: C5_6  and  C6_7 
REMARK    3  A    between atoms: C6_7  and  C7_8 
REMARK       I    between atoms: C7_8  and  N1_10 
REMARK    4  A    between atoms: N1_10  and  C8_12 
REMARK    5  A    between atoms: C8_12  and  C11_15 
ROOT
HETATM    1  C7  UNL     1      12.383 -46.054 -12.561  1.00  0.00     0.297 C 
HETATM    2  O1  UNL     1      12.876 -46.077 -11.423  1.00  0.00    -0.258 OA
HETATM    3  N1  UNL     1      12.604 -45.004 -13.465  1.00  0.00    -0.341 N 
ATOM      4  H1  UNL     1      12.132 -45.086 -14.365  1.00  0.00     0.164 HD
ENDROOT
BRANCH   1   5
HETATM    5  C6  UNL     1      11.539 -47.186 -12.948  1.00  0.00    -0.000 C 
BRANCH   5   6
HETATM    6  C5  UNL     1      10.833 -48.105 -13.276  1.00  0.00    -0.056 C 
BRANCH   6   7
HETATM    7  C4  UNL     1       9.951 -49.216 -13.694  1.00  0.00     0.031 A 
HETATM    8  C3  UNL     1       9.367 -49.999 -12.735  1.00  0.00     0.071 A 
HETATM    9  S1  UNL     1       8.458 -51.125 -13.634  1.00  0.00    -0.105 SA
HETATM   10  C2  UNL     1       8.833 -50.585 -15.204  1.00  0.00    -0.014 A 
HETATM   11  C1  UNL     1       8.366 -51.131 -16.540  1.00  0.00     0.057 C 
HETATM   12  C15 UNL     1       9.668 -49.526 -14.988  1.00  0.00    -0.030 A 
HETATM   13  C16 UNL     1      10.239 -48.750 -16.172  1.00  0.00     0.050 C 
ENDBRANCH   6   7
ENDBRANCH   5   6
ENDBRANCH   1   5
BRANCH   3  14
HETATM   14  C8  UNL     1      13.406 -43.831 -13.284  1.00  0.00     0.033 C 
HETATM   15  C9  UNL     1      12.595 -42.972 -12.261  1.00  0.00     0.039 C 
HETATM   16  C10 UNL     1      14.722 -44.199 -12.696  1.00  0.00     0.039 C 
BRANCH  14  17
HETATM   17  C11 UNL     1      13.552 -42.970 -14.490  1.00  0.00    -0.027 C 
HETATM   18  C12 UNL     1      14.063 -43.803 -15.680  1.00  0.00     0.017 C 
HETATM   19  C13 UNL     1      14.380 -41.749 -14.352  1.00  0.00     0.017 C 
HETATM   20  C14 UNL     1      12.117 -42.575 -14.935  1.00  0.00     0.017 C 
ENDBRANCH  14  17
ENDBRANCH   3  14
TORSDOF 5
ENDMDL
MODEL 2
REMARK VINA RESULT: -6.210347909      2.120      2.605
REMARK  5 active torsions:
REMARK  status: ('A' for Active; 'I' for Inactive)
REMARK    1  A    between atoms: C4_5  and  C5_6 
REMARK    2  A    between atoms: C5_6  and  C6_7 
REMARK    3  A    between atoms: C6_7  and  C7_8 
REMARK       I    between atoms: C7_8  and  N1_10 
REMARK    4  A    between atoms: N1_10  and  C8_12 
REMARK    5  A    between atoms: C8_12  and  C11_15 
ROOT
HETATM    1  C7  UNL     1      12.757 -45.982 -16.243  1.00  0.00     0.297 C 
HETATM    2  O1  UNL     1      13.143 -45.837 -17.413  1.00  0.00    -0.258 OA
HETATM    3  N1  UNL     1      13.113 -45.104 -15.210  1.00  0.00    -0.341 N 
ATOM      4  H1  UNL     1      12.749 -45.334 -14.285  1.00  0.00     0.164 HD
ENDROOT
BRANCH   1   5
HETATM    5  C6  UNL     1      11.892 -47.130 -15.961  1.00  0.00    -0.000 C 
BRANCH   5   6
HETATM    6  C5  UNL     1      11.190 -48.076 -15.712  1.00  0.00    -0.056 C 
BRANCH   6   7
HETATM    7  C4  UNL     1      10.337 -49.238 -15.380  1.00  0.00     0.031 A 
HETATM    8  C3  UNL     1      10.632 -49.985 -14.271  1.00  0.00     0.071 A 
HETATM    9  S1  UNL     1       9.427 -51.189 -14.266  1.00  0.00    -0.105 SA
HETATM   10  C2  UNL     1       8.574 -50.725 -15.664  1.00  0.00    -0.014 A 
HETATM   11  C1  UNL     1       7.346 -51.360 -16.289  1.00  0.00     0.057 C 
HETATM   12  C15 UNL     1       9.257 -49.629 -16.107  1.00  0.00    -0.030 A 
HETATM   13  C16 UNL     1       8.797 -48.902 -17.368  1.00  0.00     0.050 C 
ENDBRANCH   6   7
ENDBRANCH   5   6
ENDBRANCH   1   5
BRANCH   3  14
HETATM   14  C8  UNL     1      13.924 -43.925 -15.287  1.00  0.00     0.033 C 
HETATM   15  C9  UNL     1      14.514 -43.777 -13.848  1.00  0.00     0.039 C 
HETATM   16  C10 UNL     1      15.029 -44.129 -16.262  1.00  0.00     0.039 C 
BRANCH  14  17
HETATM   17  C11 UNL     1      13.181 -42.658 -15.539  1.00  0.00    -0.027 C 
HETATM   18  C12 UNL     1      11.841 -42.668 -14.781  1.00  0.00     0.017 C 
HETATM   19  C13 UNL     1      12.946 -42.283 -16.952  1.00  0.00     0.017 C 
HETATM   20  C14 UNL     1      13.972 -41.528 -14.827  1.00  0.00     0.017 C 
ENDBRANCH  14  17
ENDBRANCH   3  14
TORSDOF 5
ENDMDL
MODEL 3
REMARK VINA RESULT: -6.208220487      0.964      1.468
REMARK  5 active torsions:
REMARK  status: ('A' for Active; 'I' for Inactive)
REMARK    1  A    between atoms: C4_5  and  C5_6 
REMARK    2  A    between atoms: C5_6  and  C6_7 
REMARK    3  A    between atoms: C6_7  and  C7_8 
REMARK       I    between atoms: C7_8  and  N1_10 
REMARK    4  A    between atoms: N1_10  and  C8_12 
REMARK    5  A    between atoms: C8_12  and  C11_15 
ROOT
HETATM    1  C7  UNL     1      12.397 -46.108 -12.863  1.00  0.00     0.297 C 
HETATM    2  O1  UNL     1      12.677 -46.123 -11.655  1.00  0.00    -0.258 OA
HETATM    3  N1  UNL     1      12.735 -45.041 -13.709  1.00  0.00    -0.341 N 
ATOM      4  H1  UNL     1      12.438 -45.133 -14.681  1.00  0.00     0.164 HD
ENDROOT
BRANCH   1   5
HETATM    5  C6  UNL     1      11.683 -47.268 -13.400  1.00  0.00    -0.000 C 
BRANCH   5   6
HETATM    6  C5  UNL     1      11.089 -48.212 -13.857  1.00  0.00    -0.056 C 
BRANCH   6   7
HETATM    7  C4  UNL     1      10.351 -49.354 -14.437  1.00  0.00     0.031 A 
HETATM    8  C3  UNL     1      10.901 -50.034 -15.491  1.00  0.00     0.071 A 
HETATM    9  S1  UNL     1       9.748 -51.240 -15.835  1.00  0.00    -0.105 SA
HETATM   10  C2  UNL     1       8.594 -50.862 -14.641  1.00  0.00    -0.014 A 
HETATM   11  C1  UNL     1       7.268 -51.536 -14.346  1.00  0.00     0.057 C 
HETATM   12  C15 UNL     1       9.142 -49.791 -13.995  1.00  0.00    -0.030 A 
HETATM   13  C16 UNL     1       8.399 -49.140 -12.831  1.00  0.00     0.050 C 
ENDBRANCH   6   7
ENDBRANCH   5   6
ENDBRANCH   1   5
BRANCH   3  14
HETATM   14  C8  UNL     1      13.443 -43.839 -13.383  1.00  0.00     0.033 C 
HETATM   15  C9  UNL     1      12.503 -43.109 -12.372  1.00  0.00     0.039 C 
HETATM   16  C10 UNL     1      14.732 -44.172 -12.718  1.00  0.00     0.039 C 
BRANCH  14  17
HETATM   17  C11 UNL     1      13.625 -42.883 -14.510  1.00  0.00    -0.027 C 
HETATM   18  C12 UNL     1      14.200 -43.612 -15.738  1.00  0.00     0.017 C 
HETATM   19  C13 UNL     1      14.425 -41.665 -14.241  1.00  0.00     0.017 C 
HETATM   20  C14 UNL     1      12.204 -42.476 -14.984  1.00  0.00     0.017 C 
ENDBRANCH  14  17
ENDBRANCH   3  14
TORSDOF 5
ENDMDL
MODEL 4
REMARK VINA RESULT: -6.169086619      2.104      2.991
REMARK  5 active torsions:
REMARK  status: ('A' for Active; 'I' for Inactive)
REMARK    1  A    between atoms: C4_5  and  C5_6 
REMARK    2  A    between atoms: C5_6  and  C6_7 
REMARK    3  A    between atoms: C6_7  and  C7_8 
REMARK       I    between atoms: C7_8  and  N1_10 
REMARK    4  A    between atoms: N1_10  and  C8_12 
REMARK    5  A    between atoms: C8_12  and  C11_15 
ROOT
HETATM    1  C7  UNL     1      12.734 -45.998 -16.416  1.00  0.00     0.297 C 
HETATM    2  O1  UNL     1      13.393 -45.967 -17.467  1.00  0.00    -0.258 OA
HETATM    3  N1  UNL     1      12.902 -45.062 -15.386  1.00  0.00    -0.341 N 
ATOM      4  H1  UNL     1      12.316 -45.198 -14.561  1.00  0.00     0.164 HD
ENDROOT
BRANCH   1   5
HETATM    5  C6  UNL     1      11.748 -47.071 -16.275  1.00  0.00    -0.000 C 
BRANCH   5   6
HETATM    6  C5  UNL     1      10.926 -47.943 -16.146  1.00  0.00    -0.056 C 
BRANCH   6   7
HETATM    7  C4  UNL     1       9.903 -48.996 -15.972  1.00  0.00     0.031 A 
HETATM    8  C3  UNL     1       9.167 -49.394 -17.056  1.00  0.00     0.071 A 
HETATM    9  S1  UNL     1       8.136 -50.593 -16.423  1.00  0.00    -0.105 SA
HETATM   10  C2  UNL     1       8.655 -50.568 -14.801  1.00  0.00    -0.014 A 
HETATM   11  C1  UNL     1       8.165 -51.397 -13.629  1.00  0.00     0.057 C 
HETATM   12  C15 UNL     1       9.631 -49.615 -14.792  1.00  0.00    -0.030 A 
HETATM   13  C16 UNL     1      10.363 -49.284 -13.494  1.00  0.00     0.050 C 
ENDBRANCH   6   7
ENDBRANCH   5   6
ENDBRANCH   1   5
BRANCH   3  14
HETATM   14  C8  UNL     1      13.790 -43.938 -15.342  1.00  0.00     0.033 C 
HETATM   15  C9  UNL     1      14.332 -43.941 -13.878  1.00  0.00     0.039 C 
HETATM   16  C10 UNL     1      14.916 -44.142 -16.294  1.00  0.00     0.039 C 
BRANCH  14  17
HETATM   17  C11 UNL     1      13.142 -42.609 -15.518  1.00  0.00    -0.027 C 
HETATM   18  C12 UNL     1      11.814 -42.558 -14.742  1.00  0.00     0.017 C 
HETATM   19  C13 UNL     1      12.919 -42.144 -16.907  1.00  0.00     0.017 C 
HETATM   20  C14 UNL     1      14.024 -41.578 -14.762  1.00  0.00     0.017 C 
ENDBRANCH  14  17
ENDBRANCH   3  14
TORSDOF 5
ENDMDL
MODEL 5
REMARK VINA RESULT: -6.161376914      1.363      1.417
REMARK  5 active torsions:
REMARK  status: ('A' for Active; 'I' for Inactive)
REMARK    1  A    between atoms: C4_5  and  C5_6 
REMARK    2  A    between atoms: C5_6  and  C6_7 
REMARK    3  A    between atoms: C6_7  and  C7_8 
REMARK       I    between atoms: C7_8  and  N1_10 
REMARK    4  A    between atoms: N1_10  and  C8_12 
REMARK    5  A    between atoms: C8_12  and  C11_15 
ROOT
HETATM    1  C7  UNL     1      12.431 -46.032 -12.969  1.00  0.00     0.297 C 
HETATM    2  O1  UNL     1      12.583 -45.990 -11.739  1.00  0.00    -0.258 OA
HETATM    3  N1  UNL     1      12.827 -44.989 -13.820  1.00  0.00    -0.341 N 
ATOM      4  H1  UNL     1      12.635 -45.129 -14.813  1.00  0.00     0.164 HD
ENDROOT
BRANCH   1   5
HETATM    5  C6  UNL     1      11.809 -47.235 -13.527  1.00  0.00    -0.000 C 
BRANCH   5   6
HETATM    6  C5  UNL     1      11.307 -48.221 -14.003  1.00  0.00    -0.056 C 
BRANCH   6   7
HETATM    7  C4  UNL     1      10.710 -49.431 -14.607  1.00  0.00     0.031 A 
HETATM    8  C3  UNL     1       9.370 -49.662 -14.447  1.00  0.00     0.071 A 
HETATM    9  S1  UNL     1       9.112 -51.124 -15.282  1.00  0.00    -0.105 SA
HETATM   10  C2  UNL     1      10.702 -51.416 -15.816  1.00  0.00    -0.014 A 
HETATM   11  C1  UNL     1      11.237 -52.572 -16.640  1.00  0.00     0.057 C 
HETATM   12  C15 UNL     1      11.404 -50.353 -15.325  1.00  0.00    -0.030 A 
HETATM   13  C16 UNL     1      12.903 -50.240 -15.592  1.00  0.00     0.050 C 
ENDBRANCH   6   7
ENDBRANCH   5   6
ENDBRANCH   1   5
BRANCH   3  14
HETATM   14  C8  UNL     1      13.464 -43.754 -13.474  1.00  0.00     0.033 C 
HETATM   15  C9  UNL     1      12.489 -43.102 -12.443  1.00  0.00     0.039 C 
HETATM   16  C10 UNL     1      14.775 -44.022 -12.824  1.00  0.00     0.039 C 
BRANCH  14  17
HETATM   17  C11 UNL     1      13.581 -42.767 -14.583  1.00  0.00    -0.027 C 
HETATM   18  C12 UNL     1      14.128 -43.451 -15.849  1.00  0.00     0.017 C 
HETATM   19  C13 UNL     1      14.359 -41.535 -14.313  1.00  0.00     0.017 C 
HETATM   20  C14 UNL     1      12.133 -42.385 -14.995  1.00  0.00     0.017 C 
ENDBRANCH  14  17
ENDBRANCH   3  14
TORSDOF 5
ENDMDL
