MODEL 1
REMARK VINA RESULT: -9.885063745      0.000      0.000
REMARK  13 active torsions:
REMARK  status: ('A' for Active; 'I' for Inactive)
REMARK    1  A    between atoms: C2_2  and  C3_3 
REMARK    2  A    between atoms: C8_8  and  C9_9 
REMARK    3  A    between atoms: C9_9  and  C10_10 
REMARK    4  A    between atoms: C19_25  and  C20_26 
REMARK    5  A    between atoms: C20_26  and  C21_27 
REMARK    6  A    between atoms: C21_27  and  C22_28 
REMARK    7  A    between atoms: C22_28  and  C23_29 
REMARK    8  A    between atoms: C23_29  and  C24_30 
REMARK    9  A    between atoms: C24_30  and  C25_31 
REMARK   10  A    between atoms: C25_31  and  O2_32 
REMARK   11  A    between atoms: N4_34  and  O3_36 
REMARK   12  A    between atoms: C26_40  and  O4_41 
REMARK       I    between atoms: N6_44  and  C28_45 
REMARK   13  A    between atoms: C28_45  and  O6_47 
ROOT
HETATM    1  C3  UNL     1       3.719  -7.977  16.151  1.00  0.00     0.115 C 
HETATM    2  C4  UNL     1       2.448  -7.293  16.522  1.00  0.00     0.056 C 
HETATM    3  C5  UNL     1       1.847  -6.504  15.410  1.00  0.00    -0.028 C 
HETATM    4  C6  UNL     1       1.646  -5.232  15.321  1.00  0.00    -0.029 C 
HETATM    5  C7  UNL     1       1.967  -4.161  16.337  1.00  0.00     0.052 C 
HETATM    6  C8  UNL     1       2.782  -3.079  15.706  1.00  0.00     0.092 C 
HETATM    7  N3  UNL     1       3.851  -2.598  16.600  1.00  0.00    -0.354 N 
ATOM      8  H3  UNL     1       3.534  -2.250  17.505  1.00  0.00     0.162 HD
HETATM    9  C18 UNL     1       5.217  -2.545  16.401  1.00  0.00     0.240 C 
HETATM   10  O1  UNL     1       5.828  -1.437  16.447  1.00  0.00    -0.271 OA
HETATM   11  C19 UNL     1       6.164  -3.713  16.113  1.00  0.00     0.175 C 
HETATM   12  N5  UNL     1       5.486  -4.943  16.384  1.00  0.00    -0.360 N 
ATOM     13  H5  UNL     1       4.831  -5.148  15.630  1.00  0.00     0.162 HD
HETATM   14  C26 UNL     1       5.430  -5.938  17.329  1.00  0.00     0.130 C 
HETATM   15  C27 UNL     1       5.855  -7.363  17.391  1.00  0.00     0.212 C 
HETATM   16  N6  UNL     1       4.647  -8.219  17.238  1.00  0.00    -0.312 N 
HETATM   17  C28 UNL     1       4.377  -9.274  18.140  1.00  0.00     0.363 C 
HETATM   18  O5  UNL     1       5.170  -9.492  19.077  1.00  0.00    -0.238 OA
ENDROOT
BRANCH   6  19
HETATM   19  C9  UNL     1       2.088  -1.843  15.231  1.00  0.00     0.066 C 
BRANCH  19  20
HETATM   20  C10 UNL     1       2.548  -1.179  14.033  1.00  0.00    -0.028 A 
HETATM   21  C11 UNL     1       3.924  -1.221  13.722  1.00  0.00     0.098 A 
HETATM   22  N1  UNL     1       4.442  -0.680  12.622  1.00  0.00    -0.369 N 
HETATM   23  C12 UNL     1       5.879  -0.757  12.353  1.00  0.00     0.154 C 
HETATM   24  C13 UNL     1       3.654  -0.053  11.739  1.00  0.00     0.103 A 
HETATM   25  C14 UNL     1       2.306   0.038  11.959  1.00  0.00     0.007 A 
HETATM   26  C15 UNL     1       1.273   0.642  11.239  1.00  0.00     0.101 A 
HETATM   27  C17 UNL     1       1.770  -0.534  13.119  1.00  0.00    -0.000 A 
HETATM   28  N2  UNL     1       0.136   0.453  11.927  1.00  0.00    -0.373 N 
HETATM   29  C16 UNL     1       0.434  -0.241  13.036  1.00  0.00     0.100 A 
ATOM     30  H2  UNL     1      -0.791   0.779  11.654  1.00  0.00     0.164 HD
ENDBRANCH  19  20
ENDBRANCH   6  19
BRANCH  11  31
HETATM   31  C20 UNL     1       7.480  -3.464  16.717  1.00  0.00     0.035 C 
BRANCH  31  32
HETATM   32  C21 UNL     1       8.580  -3.480  15.701  1.00  0.00     0.002 C 
BRANCH  32  33
HETATM   33  C22 UNL     1       8.310  -4.496  14.602  1.00  0.00     0.001 C 
BRANCH  33  34
HETATM   34  C23 UNL     1       9.295  -5.615  14.564  1.00  0.00     0.008 C 
BRANCH  34  35
HETATM   35  C24 UNL     1      10.001  -5.726  15.879  1.00  0.00     0.086 C 
BRANCH  35  36
HETATM   36  C25 UNL     1       9.425  -6.878  16.603  1.00  0.00     0.135 C 
HETATM   37  N4  UNL     1       9.304  -6.833  17.877  1.00  0.00    -0.251 N 
ATOM     38  H4  UNL     1       8.906  -7.625  18.381  1.00  0.00     0.196 HD
BRANCH  36  39
HETATM   39  O2  UNL     1       9.028  -7.985  15.891  1.00  0.00    -0.348 OA
ATOM     40  H2  UNL     1       8.579  -8.689  16.344  1.00  0.00     0.219 HD
ENDBRANCH  36  39
BRANCH  37  41
HETATM   41  O3  UNL     1       9.707  -5.721  18.558  1.00  0.00    -0.288 OA
ATOM     42  H3  UNL     1       9.961  -5.792  19.471  1.00  0.00     0.244 HD
ENDBRANCH  37  41
ENDBRANCH  35  36
ENDBRANCH  34  35
ENDBRANCH  33  34
ENDBRANCH  32  33
ENDBRANCH  31  32
ENDBRANCH  11  31
BRANCH   1  43
HETATM   43  C2  UNL     1       3.433  -9.330  15.560  1.00  0.00    -0.012 C 
HETATM   44  C1  UNL     1       3.615  -9.581  14.276  1.00  0.00     0.009 C 
ENDBRANCH   1  43
BRANCH  14  45
HETATM   45  O4  UNL     1       4.887  -5.681  18.492  1.00  0.00    -0.348 OA
ATOM     46  H4  UNL     1       5.344  -5.942  19.283  1.00  0.00     0.219 HD
ENDBRANCH  14  45
BRANCH  17  47
HETATM   47  O6  UNL     1       3.254 -10.056  17.993  1.00  0.00    -0.309 OA
HETATM   48  C29 UNL     1       2.323 -10.214  19.071  1.00  0.00     0.215 C 
ENDBRANCH  17  47
TORSDOF 13
ENDMDL
MODEL 2
REMARK VINA RESULT: -9.788822761      1.788      3.008
REMARK  13 active torsions:
REMARK  status: ('A' for Active; 'I' for Inactive)
REMARK    1  A    between atoms: C2_2  and  C3_3 
REMARK    2  A    between atoms: C8_8  and  C9_9 
REMARK    3  A    between atoms: C9_9  and  C10_10 
REMARK    4  A    between atoms: C19_25  and  C20_26 
REMARK    5  A    between atoms: C20_26  and  C21_27 
REMARK    6  A    between atoms: C21_27  and  C22_28 
REMARK    7  A    between atoms: C22_28  and  C23_29 
REMARK    8  A    between atoms: C23_29  and  C24_30 
REMARK    9  A    between atoms: C24_30  and  C25_31 
REMARK   10  A    between atoms: C25_31  and  O2_32 
REMARK   11  A    between atoms: N4_34  and  O3_36 
REMARK   12  A    between atoms: C26_40  and  O4_41 
REMARK       I    between atoms: N6_44  and  C28_45 
REMARK   13  A    between atoms: C28_45  and  O6_47 
ROOT
HETATM    1  C3  UNL     1       3.762  -6.255  16.288  1.00  0.00     0.115 C 
HETATM    2  C4  UNL     1       3.090  -5.107  16.961  1.00  0.00     0.056 C 
HETATM    3  C5  UNL     1       2.628  -4.050  16.019  1.00  0.00    -0.028 C 
HETATM    4  C6  UNL     1       3.003  -2.818  15.920  1.00  0.00    -0.029 C 
HETATM    5  C7  UNL     1       4.036  -2.085  16.744  1.00  0.00     0.052 C 
HETATM    6  C8  UNL     1       5.042  -1.434  15.851  1.00  0.00     0.092 C 
HETATM    7  N3  UNL     1       6.412  -1.551  16.383  1.00  0.00    -0.354 N 
ATOM      8  H3  UNL     1       6.546  -1.170  17.320  1.00  0.00     0.162 HD
HETATM    9  C18 UNL     1       7.543  -2.096  15.807  1.00  0.00     0.240 C 
HETATM   10  O1  UNL     1       8.572  -1.384  15.619  1.00  0.00    -0.271 OA
HETATM   11  C19 UNL     1       7.745  -3.538  15.332  1.00  0.00     0.175 C 
HETATM   12  N5  UNL     1       6.691  -4.354  15.850  1.00  0.00    -0.360 N 
ATOM     13  H5  UNL     1       5.835  -4.187  15.321  1.00  0.00     0.162 HD
HETATM   14  C26 UNL     1       6.456  -5.290  16.826  1.00  0.00     0.130 C 
HETATM   15  C27 UNL     1       6.194  -6.755  16.847  1.00  0.00     0.212 C 
HETATM   16  N6  UNL     1       4.741  -6.969  17.085  1.00  0.00    -0.312 N 
HETATM   17  C28 UNL     1       4.285  -7.860  18.083  1.00  0.00     0.363 C 
HETATM   18  O5  UNL     1       5.119  -8.481  18.772  1.00  0.00    -0.238 OA
ENDROOT
BRANCH   6  19
HETATM   19  C9  UNL     1       4.875   0.015  15.521  1.00  0.00     0.066 C 
BRANCH  19  20
HETATM   20  C10 UNL     1       4.774   0.427  14.140  1.00  0.00    -0.028 A 
HETATM   21  C11 UNL     1       3.505   0.415  13.522  1.00  0.00     0.098 A 
HETATM   22  N1  UNL     1       3.298   0.816  12.270  1.00  0.00    -0.369 N 
HETATM   23  C12 UNL     1       1.957   0.782  11.683  1.00  0.00     0.154 C 
HETATM   24  C13 UNL     1       4.317   1.260  11.523  1.00  0.00     0.103 A 
HETATM   25  C14 UNL     1       5.584   1.304  12.039  1.00  0.00     0.007 A 
HETATM   26  C15 UNL     1       6.810   1.687  11.492  1.00  0.00     0.101 A 
HETATM   27  C17 UNL     1       5.792   0.881  13.357  1.00  0.00    -0.000 A 
HETATM   28  N2  UNL     1       7.748   1.507  12.436  1.00  0.00    -0.373 N 
HETATM   29  C16 UNL     1       7.143   1.030  13.534  1.00  0.00     0.100 A 
ATOM     30  H2  UNL     1       8.744   1.698  12.335  1.00  0.00     0.164 HD
ENDBRANCH  19  20
ENDBRANCH   6  19
BRANCH  11  31
HETATM   31  C20 UNL     1       9.142  -3.949  15.530  1.00  0.00     0.035 C 
BRANCH  31  32
HETATM   32  C21 UNL     1       9.595  -4.927  14.490  1.00  0.00     0.002 C 
BRANCH  32  33
HETATM   33  C22 UNL     1       9.476  -6.360  14.982  1.00  0.00     0.001 C 
BRANCH  33  34
HETATM   34  C23 UNL     1      10.040  -6.577  16.346  1.00  0.00     0.008 C 
BRANCH  34  35
HETATM   35  C24 UNL     1       9.395  -7.765  16.987  1.00  0.00     0.086 C 
BRANCH  35  36
HETATM   36  C25 UNL     1       8.984  -7.373  18.352  1.00  0.00     0.135 C 
HETATM   37  N4  UNL     1       8.347  -8.205  19.088  1.00  0.00    -0.251 N 
ATOM     38  H4  UNL     1       8.063  -7.939  20.030  1.00  0.00     0.196 HD
BRANCH  36  39
HETATM   39  O2  UNL     1       9.297  -6.115  18.809  1.00  0.00    -0.348 OA
ATOM     40  H2  UNL     1       8.901  -5.804  19.614  1.00  0.00     0.219 HD
ENDBRANCH  36  39
BRANCH  37  41
HETATM   41  O3  UNL     1       8.049  -9.448  18.607  1.00  0.00    -0.288 OA
ATOM     42  H3  UNL     1       7.372  -9.966  19.025  1.00  0.00     0.244 HD
ENDBRANCH  37  41
ENDBRANCH  35  36
ENDBRANCH  34  35
ENDBRANCH  33  34
ENDBRANCH  32  33
ENDBRANCH  31  32
ENDBRANCH  11  31
BRANCH   1  43
HETATM   43  C2  UNL     1       2.750  -7.288  15.877  1.00  0.00    -0.012 C 
HETATM   44  C1  UNL     1       2.960  -8.099  14.855  1.00  0.00     0.009 C 
ENDBRANCH   1  43
BRANCH  14  45
HETATM   45  O4  UNL     1       6.428  -4.909  18.079  1.00  0.00    -0.348 OA
ATOM     46  H4  UNL     1       6.519  -5.563  18.762  1.00  0.00     0.219 HD
ENDBRANCH  14  45
BRANCH  17  47
HETATM   47  O6  UNL     1       2.938  -8.046  18.299  1.00  0.00    -0.309 OA
HETATM   48  C29 UNL     1       2.350  -7.744  19.571  1.00  0.00     0.215 C 
ENDBRANCH  17  47
TORSDOF 13
ENDMDL
MODEL 3
REMARK VINA RESULT: -9.784530752      1.578      2.127
REMARK  13 active torsions:
REMARK  status: ('A' for Active; 'I' for Inactive)
REMARK    1  A    between atoms: C2_2  and  C3_3 
REMARK    2  A    between atoms: C8_8  and  C9_9 
REMARK    3  A    between atoms: C9_9  and  C10_10 
REMARK    4  A    between atoms: C19_25  and  C20_26 
REMARK    5  A    between atoms: C20_26  and  C21_27 
REMARK    6  A    between atoms: C21_27  and  C22_28 
REMARK    7  A    between atoms: C22_28  and  C23_29 
REMARK    8  A    between atoms: C23_29  and  C24_30 
REMARK    9  A    between atoms: C24_30  and  C25_31 
REMARK   10  A    between atoms: C25_31  and  O2_32 
REMARK   11  A    between atoms: N4_34  and  O3_36 
REMARK   12  A    between atoms: C26_40  and  O4_41 
REMARK       I    between atoms: N6_44  and  C28_45 
REMARK   13  A    between atoms: C28_45  and  O6_47 
ROOT
HETATM    1  C3  UNL     1       3.844  -6.389  16.249  1.00  0.00     0.115 C 
HETATM    2  C4  UNL     1       3.109  -5.269  16.902  1.00  0.00     0.056 C 
HETATM    3  C5  UNL     1       2.597  -4.250  15.943  1.00  0.00    -0.028 C 
HETATM    4  C6  UNL     1       2.907  -3.002  15.828  1.00  0.00    -0.029 C 
HETATM    5  C7  UNL     1       3.896  -2.204  16.645  1.00  0.00     0.052 C 
HETATM    6  C8  UNL     1       4.870  -1.513  15.747  1.00  0.00     0.092 C 
HETATM    7  N3  UNL     1       6.242  -1.550  16.286  1.00  0.00    -0.354 N 
ATOM      8  H3  UNL     1       6.351  -1.150  17.218  1.00  0.00     0.162 HD
HETATM    9  C18 UNL     1       7.403  -2.044  15.722  1.00  0.00     0.240 C 
HETATM   10  O1  UNL     1       8.394  -1.281  15.528  1.00  0.00    -0.271 OA
HETATM   11  C19 UNL     1       7.683  -3.479  15.268  1.00  0.00     0.175 C 
HETATM   12  N5  UNL     1       6.671  -4.343  15.794  1.00  0.00    -0.360 N 
ATOM     13  H5  UNL     1       5.810  -4.228  15.260  1.00  0.00     0.162 HD
HETATM   14  C26 UNL     1       6.481  -5.276  16.783  1.00  0.00     0.130 C 
HETATM   15  C27 UNL     1       6.297  -6.752  16.824  1.00  0.00     0.212 C 
HETATM   16  N6  UNL     1       4.856  -7.039  17.059  1.00  0.00    -0.312 N 
HETATM   17  C28 UNL     1       4.443  -7.939  18.069  1.00  0.00     0.363 C 
HETATM   18  O5  UNL     1       5.305  -8.505  18.770  1.00  0.00    -0.238 OA
ENDROOT
BRANCH   6  19
HETATM   19  C9  UNL     1       4.629  -0.080  15.396  1.00  0.00     0.066 C 
BRANCH  19  20
HETATM   20  C10 UNL     1       4.208   0.267  14.058  1.00  0.00    -0.028 A 
HETATM   21  C11 UNL     1       5.159   0.809  13.168  1.00  0.00     0.098 A 
HETATM   22  N1  UNL     1       4.884   1.121  11.904  1.00  0.00    -0.369 N 
HETATM   23  C12 UNL     1       5.914   1.680  11.027  1.00  0.00     0.154 C 
HETATM   24  C13 UNL     1       3.653   0.928  11.411  1.00  0.00     0.103 A 
HETATM   25  C14 UNL     1       2.666   0.408  12.203  1.00  0.00     0.007 A 
HETATM   26  C15 UNL     1       1.317   0.131  11.966  1.00  0.00     0.101 A 
HETATM   27  C17 UNL     1       2.965   0.083  13.531  1.00  0.00    -0.000 A 
HETATM   28  N2  UNL     1       0.797  -0.348  13.108  1.00  0.00    -0.373 N 
HETATM   29  C16 UNL     1       1.772  -0.374  14.028  1.00  0.00     0.100 A 
ATOM     30  H2  UNL     1      -0.170  -0.641  13.249  1.00  0.00     0.164 HD
ENDBRANCH  19  20
ENDBRANCH   6  19
BRANCH  11  31
HETATM   31  C20 UNL     1       9.099  -3.813  15.478  1.00  0.00     0.035 C 
BRANCH  31  32
HETATM   32  C21 UNL     1       9.599  -4.802  14.471  1.00  0.00     0.002 C 
BRANCH  32  33
HETATM   33  C22 UNL     1       9.532  -6.225  15.005  1.00  0.00     0.001 C 
BRANCH  33  34
HETATM   34  C23 UNL     1      10.068  -6.374  16.389  1.00  0.00     0.008 C 
BRANCH  34  35
HETATM   35  C24 UNL     1       9.519  -7.613  17.023  1.00  0.00     0.086 C 
BRANCH  35  36
HETATM   36  C25 UNL     1       9.056  -7.256  18.381  1.00  0.00     0.135 C 
HETATM   37  N4  UNL     1       8.417  -8.117  19.081  1.00  0.00    -0.251 N 
ATOM     38  H4  UNL     1       8.097  -7.876  20.019  1.00  0.00     0.196 HD
BRANCH  36  39
HETATM   39  O2  UNL     1       9.323  -6.000  18.870  1.00  0.00    -0.348 OA
ATOM     40  H2  UNL     1       8.613  -5.374  18.949  1.00  0.00     0.219 HD
ENDBRANCH  36  39
BRANCH  37  41
HETATM   41  O3  UNL     1       8.166  -9.358  18.570  1.00  0.00    -0.288 OA
ATOM     42  H3  UNL     1       7.569  -9.455  17.837  1.00  0.00     0.244 HD
ENDBRANCH  37  41
ENDBRANCH  35  36
ENDBRANCH  34  35
ENDBRANCH  33  34
ENDBRANCH  32  33
ENDBRANCH  31  32
ENDBRANCH  11  31
BRANCH   1  43
HETATM   43  C2  UNL     1       2.890  -7.479  15.849  1.00  0.00    -0.012 C 
HETATM   44  C1  UNL     1       3.144  -8.289  14.836  1.00  0.00     0.009 C 
ENDBRANCH   1  43
BRANCH  14  45
HETATM   45  O4  UNL     1       6.427  -4.879  18.030  1.00  0.00    -0.348 OA
ATOM     46  H4  UNL     1       6.295  -5.525  18.715  1.00  0.00     0.219 HD
ENDBRANCH  14  45
BRANCH  17  47
HETATM   47  O6  UNL     1       3.106  -8.192  18.282  1.00  0.00    -0.309 OA
HETATM   48  C29 UNL     1       2.478  -7.821  19.516  1.00  0.00     0.215 C 
ENDBRANCH  17  47
TORSDOF 13
ENDMDL
MODEL 4
REMARK VINA RESULT: -9.343013974      4.375     10.459
REMARK  13 active torsions:
REMARK  status: ('A' for Active; 'I' for Inactive)
REMARK    1  A    between atoms: C2_2  and  C3_3 
REMARK    2  A    between atoms: C8_8  and  C9_9 
REMARK    3  A    between atoms: C9_9  and  C10_10 
REMARK    4  A    between atoms: C19_25  and  C20_26 
REMARK    5  A    between atoms: C20_26  and  C21_27 
REMARK    6  A    between atoms: C21_27  and  C22_28 
REMARK    7  A    between atoms: C22_28  and  C23_29 
REMARK    8  A    between atoms: C23_29  and  C24_30 
REMARK    9  A    between atoms: C24_30  and  C25_31 
REMARK   10  A    between atoms: C25_31  and  O2_32 
REMARK   11  A    between atoms: N4_34  and  O3_36 
REMARK   12  A    between atoms: C26_40  and  O4_41 
REMARK       I    between atoms: N6_44  and  C28_45 
REMARK   13  A    between atoms: C28_45  and  O6_47 
ROOT
HETATM    1  C3  UNL     1       6.953   1.425  11.540  1.00  0.00     0.115 C 
HETATM    2  C4  UNL     1       7.105   1.516  13.020  1.00  0.00     0.056 C 
HETATM    3  C5  UNL     1       7.277   0.194  13.685  1.00  0.00    -0.028 C 
HETATM    4  C6  UNL     1       6.513  -0.401  14.539  1.00  0.00    -0.029 C 
HETATM    5  C7  UNL     1       5.204   0.081  15.118  1.00  0.00     0.052 C 
HETATM    6  C8  UNL     1       4.144  -0.956  14.933  1.00  0.00     0.092 C 
HETATM    7  N3  UNL     1       2.847  -0.361  14.559  1.00  0.00    -0.354 N 
ATOM      8  H3  UNL     1       2.484   0.331  15.214  1.00  0.00     0.162 HD
HETATM    9  C18 UNL     1       2.049  -0.598  13.457  1.00  0.00     0.240 C 
HETATM   10  O1  UNL     1       0.865  -1.022  13.604  1.00  0.00    -0.271 OA
HETATM   11  C19 UNL     1       2.413  -0.408  11.982  1.00  0.00     0.175 C 
HETATM   12  N5  UNL     1       3.618   0.358  11.892  1.00  0.00    -0.360 N 
ATOM     13  H5  UNL     1       4.417  -0.231  12.124  1.00  0.00     0.162 HD
HETATM   14  C26 UNL     1       4.049   1.627  11.595  1.00  0.00     0.130 C 
HETATM   15  C27 UNL     1       4.797   2.255  10.472  1.00  0.00     0.212 C 
HETATM   16  N6  UNL     1       6.197   2.494  10.916  1.00  0.00    -0.312 N 
HETATM   17  C28 UNL     1       6.816   3.754  10.745  1.00  0.00     0.363 C 
HETATM   18  O5  UNL     1       6.175   4.679  10.207  1.00  0.00    -0.238 OA
ENDROOT
BRANCH   6  19
HETATM   19  C9  UNL     1       3.835  -1.876  16.070  1.00  0.00     0.066 C 
BRANCH  19  20
HETATM   20  C10 UNL     1       4.107  -3.289  15.940  1.00  0.00    -0.028 A 
HETATM   21  C11 UNL     1       5.338  -3.788  16.417  1.00  0.00     0.098 A 
HETATM   22  N1  UNL     1       5.667  -5.077  16.384  1.00  0.00    -0.369 N 
HETATM   23  C12 UNL     1       6.960  -5.535  16.895  1.00  0.00     0.154 C 
HETATM   24  C13 UNL     1       4.816  -5.981  15.881  1.00  0.00     0.103 A 
HETATM   25  C14 UNL     1       3.599  -5.588  15.394  1.00  0.00     0.007 A 
HETATM   26  C15 UNL     1       2.549  -6.293  14.801  1.00  0.00     0.101 A 
HETATM   27  C17 UNL     1       3.262  -4.229  15.433  1.00  0.00    -0.000 A 
HETATM   28  N2  UNL     1       1.595  -5.405  14.482  1.00  0.00    -0.373 N 
HETATM   29  C16 UNL     1       2.019  -4.189  14.856  1.00  0.00     0.100 A 
ATOM     30  H2  UNL     1       0.703  -5.617  14.035  1.00  0.00     0.164 HD
ENDBRANCH  19  20
ENDBRANCH   6  19
BRANCH  11  31
HETATM   31  C20 UNL     1       1.231   0.011  11.214  1.00  0.00     0.035 C 
BRANCH  31  32
HETATM   32  C21 UNL     1       0.440   1.063  11.927  1.00  0.00     0.002 C 
BRANCH  32  33
HETATM   33  C22 UNL     1       0.159   2.256  11.028  1.00  0.00     0.001 C 
BRANCH  33  34
HETATM   34  C23 UNL     1       0.939   2.248   9.757  1.00  0.00     0.008 C 
BRANCH  34  35
HETATM   35  C24 UNL     1       1.640   3.557   9.574  1.00  0.00     0.086 C 
BRANCH  35  36
HETATM   36  C25 UNL     1       2.049   3.655   8.157  1.00  0.00     0.135 C 
HETATM   37  N4  UNL     1       3.027   4.413   7.829  1.00  0.00    -0.251 N 
ATOM     38  H4  UNL     1       3.314   4.483   6.853  1.00  0.00     0.196 HD
BRANCH  36  39
HETATM   39  O2  UNL     1       1.369   2.925   7.212  1.00  0.00    -0.348 OA
ATOM     40  H2  UNL     1       0.475   3.165   6.998  1.00  0.00     0.219 HD
ENDBRANCH  36  39
BRANCH  37  41
HETATM   41  O3  UNL     1       3.686   5.127   8.789  1.00  0.00    -0.288 OA
ATOM     42  H3  UNL     1       4.415   5.685   8.545  1.00  0.00     0.244 HD
ENDBRANCH  37  41
ENDBRANCH  35  36
ENDBRANCH  34  35
ENDBRANCH  33  34
ENDBRANCH  32  33
ENDBRANCH  31  32
ENDBRANCH  11  31
BRANCH   1  43
HETATM   43  C2  UNL     1       8.299   1.445  10.872  1.00  0.00    -0.012 C 
HETATM   44  C1  UNL     1       8.780   0.386  10.243  1.00  0.00     0.009 C 
ENDBRANCH   1  43
BRANCH  14  45
HETATM   45  O4  UNL     1       3.800   2.598  12.439  1.00  0.00    -0.348 OA
ATOM     46  H4  UNL     1       4.393   3.340  12.477  1.00  0.00     0.219 HD
ENDBRANCH  14  45
BRANCH  17  47
HETATM   47  O6  UNL     1       8.109   3.965  11.165  1.00  0.00    -0.309 OA
HETATM   48  C29 UNL     1       8.530   5.257  11.623  1.00  0.00     0.215 C 
ENDBRANCH  17  47
TORSDOF 13
ENDMDL
MODEL 5
REMARK VINA RESULT: -9.283339044      4.419     10.706
REMARK  13 active torsions:
REMARK  status: ('A' for Active; 'I' for Inactive)
REMARK    1  A    between atoms: C2_2  and  C3_3 
REMARK    2  A    between atoms: C8_8  and  C9_9 
REMARK    3  A    between atoms: C9_9  and  C10_10 
REMARK    4  A    between atoms: C19_25  and  C20_26 
REMARK    5  A    between atoms: C20_26  and  C21_27 
REMARK    6  A    between atoms: C21_27  and  C22_28 
REMARK    7  A    between atoms: C22_28  and  C23_29 
REMARK    8  A    between atoms: C23_29  and  C24_30 
REMARK    9  A    between atoms: C24_30  and  C25_31 
REMARK   10  A    between atoms: C25_31  and  O2_32 
REMARK   11  A    between atoms: N4_34  and  O3_36 
REMARK   12  A    between atoms: C26_40  and  O4_41 
REMARK       I    between atoms: N6_44  and  C28_45 
REMARK   13  A    between atoms: C28_45  and  O6_47 
ROOT
HETATM    1  C3  UNL     1       6.989   1.492  11.324  1.00  0.00     0.115 C 
HETATM    2  C4  UNL     1       7.165   1.610  12.799  1.00  0.00     0.056 C 
HETATM    3  C5  UNL     1       7.329   0.300  13.488  1.00  0.00    -0.028 C 
HETATM    4  C6  UNL     1       6.569  -0.266  14.366  1.00  0.00    -0.029 C 
HETATM    5  C7  UNL     1       5.276   0.247  14.955  1.00  0.00     0.052 C 
HETATM    6  C8  UNL     1       4.198  -0.777  14.807  1.00  0.00     0.092 C 
HETATM    7  N3  UNL     1       2.905  -0.172  14.440  1.00  0.00    -0.354 N 
ATOM      8  H3  UNL     1       2.562   0.539  15.086  1.00  0.00     0.162 HD
HETATM    9  C18 UNL     1       2.086  -0.419  13.355  1.00  0.00     0.240 C 
HETATM   10  O1  UNL     1       0.899  -0.823  13.529  1.00  0.00    -0.271 OA
HETATM   11  C19 UNL     1       2.430  -0.264  11.872  1.00  0.00     0.175 C 
HETATM   12  N5  UNL     1       3.645   0.482  11.748  1.00  0.00    -0.360 N 
ATOM     13  H5  UNL     1       4.439  -0.114  11.980  1.00  0.00     0.162 HD
HETATM   14  C26 UNL     1       4.090   1.738  11.418  1.00  0.00     0.130 C 
HETATM   15  C27 UNL     1       4.829   2.331  10.271  1.00  0.00     0.212 C 
HETATM   16  N6  UNL     1       6.239   2.559  10.689  1.00  0.00    -0.312 N 
HETATM   17  C28 UNL     1       6.873   3.805  10.483  1.00  0.00     0.363 C 
HETATM   18  O5  UNL     1       6.238   4.729   9.936  1.00  0.00    -0.238 OA
ENDROOT
BRANCH   6  19
HETATM   19  C9  UNL     1       3.894  -1.670  15.967  1.00  0.00     0.066 C 
BRANCH  19  20
HETATM   20  C10 UNL     1       4.155  -3.087  15.867  1.00  0.00    -0.028 A 
HETATM   21  C11 UNL     1       3.120  -3.936  15.418  1.00  0.00     0.098 A 
HETATM   22  N1  UNL     1       3.272  -5.247  15.250  1.00  0.00    -0.369 N 
HETATM   23  C12 UNL     1       2.160  -6.077  14.780  1.00  0.00     0.154 C 
HETATM   24  C13 UNL     1       4.448  -5.833  15.509  1.00  0.00     0.103 A 
HETATM   25  C14 UNL     1       5.508  -5.088  15.951  1.00  0.00     0.007 A 
HETATM   26  C15 UNL     1       6.812  -5.430  16.315  1.00  0.00     0.101 A 
HETATM   27  C17 UNL     1       5.339  -3.709  16.125  1.00  0.00    -0.000 A 
HETATM   28  N2  UNL     1       7.431  -4.303  16.703  1.00  0.00    -0.373 N 
HETATM   29  C16 UNL     1       6.559  -3.291  16.590  1.00  0.00     0.100 A 
ATOM     30  H2  UNL     1       8.396  -4.231  17.027  1.00  0.00     0.164 HD
ENDBRANCH  19  20
ENDBRANCH   6  19
BRANCH  11  31
HETATM   31  C20 UNL     1       1.243   0.156  11.114  1.00  0.00     0.035 C 
BRANCH  31  32
HETATM   32  C21 UNL     1       0.425   1.164  11.860  1.00  0.00     0.002 C 
BRANCH  32  33
HETATM   33  C22 UNL     1       0.562   2.552  11.256  1.00  0.00     0.001 C 
BRANCH  33  34
HETATM   34  C23 UNL     1       0.973   2.546   9.823  1.00  0.00     0.008 C 
BRANCH  34  35
HETATM   35  C24 UNL     1       1.726   3.798   9.498  1.00  0.00     0.086 C 
BRANCH  35  36
HETATM   36  C25 UNL     1       2.112   3.734   8.073  1.00  0.00     0.135 C 
HETATM   37  N4  UNL     1       3.088   4.446   7.646  1.00  0.00    -0.251 N 
ATOM     38  H4  UNL     1       3.359   4.405   6.663  1.00  0.00     0.196 HD
BRANCH  36  39
HETATM   39  O2  UNL     1       1.414   2.907   7.227  1.00  0.00    -0.348 OA
ATOM     40  H2  UNL     1       1.736   2.028   7.069  1.00  0.00     0.219 HD
ENDBRANCH  36  39
BRANCH  37  41
HETATM   41  O3  UNL     1       3.764   5.259   8.509  1.00  0.00    -0.288 OA
ATOM     42  H3  UNL     1       4.699   5.389   8.401  1.00  0.00     0.244 HD
ENDBRANCH  37  41
ENDBRANCH  35  36
ENDBRANCH  34  35
ENDBRANCH  33  34
ENDBRANCH  32  33
ENDBRANCH  31  32
ENDBRANCH  11  31
BRANCH   1  43
HETATM   43  C2  UNL     1       8.325   1.478  10.635  1.00  0.00    -0.012 C 
HETATM   44  C1  UNL     1       8.786   0.396  10.032  1.00  0.00     0.009 C 
ENDBRANCH   1  43
BRANCH  14  45
HETATM   45  O4  UNL     1       3.868   2.729  12.246  1.00  0.00    -0.348 OA
ATOM     46  H4  UNL     1       4.350   2.765  13.063  1.00  0.00     0.219 HD
ENDBRANCH  14  45
BRANCH  17  47
HETATM   47  O6  UNL     1       8.176   4.006  10.879  1.00  0.00    -0.309 OA
HETATM   48  C29 UNL     1       8.583   5.252  11.458  1.00  0.00     0.215 C 
ENDBRANCH  17  47
TORSDOF 13
ENDMDL
