MODEL 1
REMARK VINA RESULT: -6.138439672      0.000      0.000
REMARK  1 active torsions:
REMARK  status: ('A' for Active; 'I' for Inactive)
REMARK       I    between atoms: C1_2  and  N2_4 
REMARK       I    between atoms: N2_4  and  C2_6 
REMARK    1  A    between atoms: N4_8  and  N5_10 
ROOT
HETATM    1  N1  UNL     1       1.903   6.750  10.678  1.00  0.00    -0.040 NA
HETATM    2  C1  UNL     1       0.702   7.382  11.140  1.00  0.00     0.335 C 
HETATM    3  O1  UNL     1      -0.114   6.760  11.852  1.00  0.00    -0.251 OA
HETATM    4  N2  UNL     1       0.437   8.722  10.786  1.00  0.00    -0.284 N 
ATOM      5  H2  UNL     1       1.094   9.243  10.205  1.00  0.00     0.172 HD
HETATM    6  C2  UNL     1      -0.756   9.336  11.251  1.00  0.00     0.210 C 
HETATM    7  N3  UNL     1      -1.699   8.656  12.060  1.00  0.00    -0.062 NA
HETATM    8  N4  UNL     1      -1.043  10.571  10.949  1.00  0.00    -0.271 N 
ATOM      9  H4  UNL     1      -1.910  10.976  11.303  1.00  0.00     0.189 HD
ENDROOT
BRANCH   8  10
HETATM   10  N5  UNL     1      -0.203  11.356  10.161  1.00  0.00    -0.274 N 
HETATM   11  C3  UNL     1      -0.462  11.653   8.933  1.00  0.00     0.215 C 
HETATM   12  N6  UNL     1      -1.635  11.205   8.271  1.00  0.00    -0.065 NA
HETATM   13  N7  UNL     1       0.474  12.459   8.244  1.00  0.00    -0.065 NA
ATOM     14  H5  UNL     1       0.658  11.712  10.575  1.00  0.00     0.189 HD
ENDBRANCH   8  10
TORSDOF 1
ENDMDL
MODEL 2
REMARK VINA RESULT: -6.010662558      2.569      4.669
REMARK  1 active torsions:
REMARK  status: ('A' for Active; 'I' for Inactive)
REMARK       I    between atoms: C1_2  and  N2_4 
REMARK       I    between atoms: N2_4  and  C2_6 
REMARK    1  A    between atoms: N4_8  and  N5_10 
ROOT
HETATM    1  N1  UNL     1       1.672  11.758   8.326  1.00  0.00    -0.040 NA
HETATM    2  C1  UNL     1       0.331  11.357   8.636  1.00  0.00     0.335 C 
HETATM    3  O1  UNL     1      -0.621  11.688   7.900  1.00  0.00    -0.251 OA
HETATM    4  N2  UNL     1       0.084  10.579   9.788  1.00  0.00    -0.284 N 
ATOM      5  H2  UNL     1       0.852  10.300  10.399  1.00  0.00     0.172 HD
HETATM    6  C2  UNL     1      -1.249  10.188  10.083  1.00  0.00     0.210 C 
HETATM    7  N3  UNL     1      -2.349  10.549   9.266  1.00  0.00    -0.062 NA
HETATM    8  N4  UNL     1      -1.526   9.470  11.135  1.00  0.00    -0.271 N 
ATOM      9  H4  UNL     1      -2.496   9.209  11.313  1.00  0.00     0.189 HD
ENDROOT
BRANCH   8  10
HETATM   10  N5  UNL     1      -0.539   9.046  12.024  1.00  0.00    -0.274 N 
HETATM   11  C3  UNL     1      -0.750   8.172  12.947  1.00  0.00     0.215 C 
HETATM   12  N6  UNL     1      -2.014   7.557  13.141  1.00  0.00    -0.065 NA
HETATM   13  N7  UNL     1       0.339   7.829  13.783  1.00  0.00    -0.065 NA
ATOM     14  H5  UNL     1       0.395   9.448  11.939  1.00  0.00     0.189 HD
ENDBRANCH   8  10
TORSDOF 1
ENDMDL
MODEL 3
REMARK VINA RESULT: -5.775808942      1.442      2.238
REMARK  1 active torsions:
REMARK  status: ('A' for Active; 'I' for Inactive)
REMARK       I    between atoms: C1_2  and  N2_4 
REMARK       I    between atoms: N2_4  and  C2_6 
REMARK    1  A    between atoms: N4_8  and  N5_10 
ROOT
HETATM    1  N1  UNL     1      -1.265   8.857  13.848  1.00  0.00    -0.040 NA
HETATM    2  C1  UNL     1      -0.933   8.266  12.585  1.00  0.00     0.335 C 
HETATM    3  O1  UNL     1      -1.032   7.034  12.411  1.00  0.00    -0.251 OA
HETATM    4  N2  UNL     1      -0.489   9.086  11.526  1.00  0.00    -0.284 N 
ATOM      5  H2  UNL     1      -0.403  10.095  11.654  1.00  0.00     0.172 HD
HETATM    6  C2  UNL     1      -0.164   8.488  10.280  1.00  0.00     0.210 C 
HETATM    7  N3  UNL     1      -0.267   7.093  10.052  1.00  0.00    -0.062 NA
HETATM    8  N4  UNL     1       0.250   9.205   9.273  1.00  0.00    -0.271 N 
ATOM      9  H4  UNL     1       0.473   8.738   8.394  1.00  0.00     0.189 HD
ENDROOT
BRANCH   8  10
HETATM   10  N5  UNL     1       0.398  10.589   9.359  1.00  0.00    -0.274 N 
HETATM   11  C3  UNL     1       0.104  11.391   8.394  1.00  0.00     0.215 C 
HETATM   12  N6  UNL     1      -0.402  10.934   7.149  1.00  0.00    -0.065 NA
HETATM   13  N7  UNL     1       0.300  12.775   8.612  1.00  0.00    -0.065 NA
ATOM     14  H5  UNL     1       0.756  10.985  10.228  1.00  0.00     0.189 HD
ENDBRANCH   8  10
TORSDOF 1
ENDMDL
MODEL 4
REMARK VINA RESULT: -5.691733210      2.664      4.749
REMARK  1 active torsions:
REMARK  status: ('A' for Active; 'I' for Inactive)
REMARK       I    between atoms: C1_2  and  N2_4 
REMARK       I    between atoms: N2_4  and  C2_6 
REMARK    1  A    between atoms: N4_8  and  N5_10 
ROOT
HETATM    1  N1  UNL     1       1.591  11.792   8.250  1.00  0.00    -0.040 NA
HETATM    2  C1  UNL     1       0.203  11.473   8.416  1.00  0.00     0.335 C 
HETATM    3  O1  UNL     1      -0.669  12.364   8.364  1.00  0.00    -0.251 OA
HETATM    4  N2  UNL     1      -0.182  10.133   8.642  1.00  0.00    -0.284 N 
ATOM      5  H2  UNL     1       0.519   9.394   8.688  1.00  0.00     0.172 HD
HETATM    6  C2  UNL     1      -1.560   9.831   8.805  1.00  0.00     0.210 C 
HETATM    7  N3  UNL     1      -2.572  10.822   8.750  1.00  0.00    -0.062 NA
HETATM    8  N4  UNL     1      -1.963   8.609   9.015  1.00  0.00    -0.271 N 
ATOM      9  H4  UNL     1      -2.962   8.432   9.127  1.00  0.00     0.189 HD
ENDROOT
BRANCH   8  10
HETATM   10  N5  UNL     1      -1.075   7.538   9.093  1.00  0.00    -0.274 N 
HETATM   11  C3  UNL     1      -0.675   7.032  10.209  1.00  0.00     0.215 C 
HETATM   12  N6  UNL     1      -1.108   7.523  11.468  1.00  0.00    -0.065 NA
HETATM   13  N7  UNL     1       0.228   5.945  10.147  1.00  0.00    -0.065 NA
ATOM     14  H5  UNL     1      -0.724   7.135   8.224  1.00  0.00     0.189 HD
ENDBRANCH   8  10
TORSDOF 1
ENDMDL
MODEL 5
REMARK VINA RESULT: -5.625295150      3.136      5.421
REMARK  1 active torsions:
REMARK  status: ('A' for Active; 'I' for Inactive)
REMARK       I    between atoms: C1_2  and  N2_4 
REMARK       I    between atoms: N2_4  and  C2_6 
REMARK    1  A    between atoms: N4_8  and  N5_10 
ROOT
HETATM    1  N1  UNL     1      -3.747  10.296   8.386  1.00  0.00    -0.040 NA
HETATM    2  C1  UNL     1      -2.315  10.271   8.445  1.00  0.00     0.335 C 
HETATM    3  O1  UNL     1      -1.650  11.313   8.272  1.00  0.00    -0.251 OA
HETATM    4  N2  UNL     1      -1.649   9.053   8.702  1.00  0.00    -0.284 N 
ATOM      5  H2  UNL     1      -2.178   8.194   8.845  1.00  0.00     0.172 HD
HETATM    6  C2  UNL     1      -0.230   9.043   8.758  1.00  0.00     0.210 C 
HETATM    7  N3  UNL     1       0.551  10.210   8.567  1.00  0.00    -0.062 NA
HETATM    8  N4  UNL     1       0.429   7.943   8.992  1.00  0.00    -0.271 N 
ATOM      9  H4  UNL     1       1.448   7.976   9.025  1.00  0.00     0.189 HD
ENDROOT
BRANCH   8  10
HETATM   10  N5  UNL     1      -0.213   6.723   9.199  1.00  0.00    -0.274 N 
HETATM   11  C3  UNL     1       0.141   5.631   8.613  1.00  0.00     0.215 C 
HETATM   12  N6  UNL     1       1.225   5.572   7.699  1.00  0.00    -0.065 NA
HETATM   13  N7  UNL     1      -0.596   4.461   8.911  1.00  0.00    -0.065 NA
ATOM     14  H5  UNL     1      -1.002   6.694   9.845  1.00  0.00     0.189 HD
ENDBRANCH   8  10
TORSDOF 1
ENDMDL
