MODEL 1
REMARK VINA RESULT: -6.420787548      0.000      0.000
REMARK  16 active torsions:
REMARK  status: ('A' for Active; 'I' for Inactive)
REMARK    1  A    between atoms: C2_2  and  C3_3 
REMARK    2  A    between atoms: C3_3  and  C4_5 
REMARK    3  A    between atoms: C4_5  and  N1_6 
REMARK    4  A    between atoms: C4_5  and  C14_19 
REMARK    5  A    between atoms: N1_6  and  C5_8 
REMARK    6  A    between atoms: C5_8  and  C6_9 
REMARK    7  A    between atoms: C5_8  and  C11_16 
REMARK    8  A    between atoms: C6_9  and  C7_10 
REMARK       I    between atoms: C7_10  and  N2_12 
REMARK       I    between atoms: C14_19  and  N3_21 
REMARK    9  A    between atoms: N3_21  and  C15_23 
REMARK   10  A    between atoms: C15_23  and  C16_24 
REMARK   11  A    between atoms: C15_23  and  C20_28 
REMARK   12  A    between atoms: C16_24  and  C17_25 
REMARK   13  A    between atoms: C20_28  and  N4_30 
REMARK       I    between atoms: N4_30  and  C22_32 
REMARK   14  A    between atoms: C22_32  and  C23_34 
REMARK   15  A    between atoms: C26_40  and  C27_41 
REMARK       I    between atoms: C27_41  and  N6_43 
REMARK   16  A    between atoms: N6_43  and  C28_45 
ROOT
HETATM    1  C15 UNL     1      36.534  27.234  21.481  1.00  0.00     0.107 C 
ENDROOT
BRANCH   1   2
HETATM    2  N3  UNL     1      35.939  26.267  20.554  1.00  0.00    -0.349 N 
HETATM    3  C14 UNL     1      35.881  24.879  20.891  1.00  0.00     0.272 C 
HETATM    4  O3  UNL     1      36.394  24.665  22.061  1.00  0.00    -0.266 OA
ATOM      5  H3  UNL     1      35.564  26.587  19.660  1.00  0.00     0.163 HD
BRANCH   3   6
HETATM    6  C4  UNL     1      35.339  23.784  20.105  1.00  0.00     0.143 C 
BRANCH   6   7
HETATM    7  C3  UNL     1      35.581  22.392  20.440  1.00  0.00     0.180 C 
HETATM    8  O1  UNL     1      36.468  21.819  19.747  1.00  0.00    -0.291 OA
BRANCH   7   9
HETATM    9  C2  UNL     1      34.970  21.527  21.453  1.00  0.00     0.081 C 
HETATM   10  C1  UNL     1      34.394  20.256  20.810  1.00  0.00     0.013 C 
ENDBRANCH   7   9
ENDBRANCH   6   7
BRANCH   6  11
HETATM   11  N1  UNL     1      34.124  24.078  19.466  1.00  0.00    -0.377 N 
ATOM     12  H1  UNL     1      33.337  24.354  20.054  1.00  0.00     0.160 HD
BRANCH  11  13
HETATM   13  C5  UNL     1      33.912  24.021  18.079  1.00  0.00     0.094 C 
BRANCH  13  14
HETATM   14  C6  UNL     1      33.630  25.527  17.740  1.00  0.00     0.128 C 
BRANCH  14  15
HETATM   15  C7  UNL     1      34.721  26.282  17.220  1.00  0.00     0.221 C 
HETATM   16  O2  UNL     1      35.905  25.831  17.379  1.00  0.00    -0.273 OA
HETATM   17  N2  UNL     1      34.583  27.507  16.530  1.00  0.00    -0.352 N 
HETATM   18  C8  UNL     1      35.579  28.424  15.940  1.00  0.00     0.127 C 
HETATM   19  C10 UNL     1      33.527  28.414  16.066  1.00  0.00     0.127 C 
HETATM   20  C9  UNL     1      34.485  28.982  15.033  1.00  0.00     0.040 C 
ENDBRANCH  14  15
ENDBRANCH  13  14
BRANCH  13  21
HETATM   21  C11 UNL     1      32.798  23.169  17.610  1.00  0.00     0.001 C 
HETATM   22  C12 UNL     1      32.194  23.478  16.296  1.00  0.00     0.011 C 
HETATM   23  C13 UNL     1      33.029  21.668  17.713  1.00  0.00     0.011 C 
ENDBRANCH  13  21
ENDBRANCH  11  13
ENDBRANCH   6  11
ENDBRANCH   3   6
ENDBRANCH   1   2
BRANCH   1  24
HETATM   24  C16 UNL     1      37.544  28.128  20.846  1.00  0.00     0.031 C 
BRANCH  24  25
HETATM   25  C17 UNL     1      37.512  28.108  19.320  1.00  0.00    -0.021 C 
HETATM   26  C18 UNL     1      37.425  29.579  18.883  1.00  0.00     0.009 C 
HETATM   27  C19 UNL     1      38.856  27.624  18.765  1.00  0.00     0.009 C 
ENDBRANCH  24  25
ENDBRANCH   1  24
BRANCH   1  28
HETATM   28  C20 UNL     1      35.437  28.086  22.067  1.00  0.00     0.103 C 
HETATM   29  C21 UNL     1      34.928  27.598  23.395  1.00  0.00     0.034 C 
BRANCH  28  30
HETATM   30  N4  UNL     1      34.382  28.244  21.094  1.00  0.00    -0.354 N 
HETATM   31  C22 UNL     1      34.079  29.526  20.527  1.00  0.00     0.224 C 
HETATM   32  O4  UNL     1      34.762  30.507  20.899  1.00  0.00    -0.273 OA
ATOM     33  H4  UNL     1      33.842  27.429  20.804  1.00  0.00     0.162 HD
BRANCH  31  34
HETATM   34  C23 UNL     1      32.999  29.719  19.529  1.00  0.00     0.118 C 
HETATM   35  C24 UNL     1      32.694  31.179  19.388  1.00  0.00     0.247 C 
HETATM   36  N5  UNL     1      31.325  31.349  19.719  1.00  0.00    -0.073 N 
HETATM   37  C25 UNL     1      30.993  30.267  20.645  1.00  0.00     0.247 C 
ATOM     38  H52 UNL     1      31.107  32.276  20.084  1.00  0.00     0.277 HD
ATOM     39  H51 UNL     1      30.712  31.388  18.904  1.00  0.00     0.277 HD
HETATM   40  C26 UNL     1      31.755  29.084  20.064  1.00  0.00     0.118 C 
BRANCH  40  41
HETATM   41  C27 UNL     1      30.927  28.456  19.018  1.00  0.00     0.225 C 
HETATM   42  O5  UNL     1      30.624  29.169  18.001  1.00  0.00    -0.273 OA
HETATM   43  N6  UNL     1      30.463  27.124  19.090  1.00  0.00    -0.353 N 
ATOM     44  H6  UNL     1      30.712  26.576  19.914  1.00  0.00     0.163 HD
BRANCH  43  45
HETATM   45  C28 UNL     1      29.670  26.497  18.083  1.00  0.00     0.022 C 
HETATM   46  C29 UNL     1      30.342  26.554  16.712  1.00  0.00     0.037 C 
HETATM   47  C30 UNL     1      28.299  27.105  17.920  1.00  0.00     0.037 C 
HETATM   48  C31 UNL     1      29.444  25.022  18.435  1.00  0.00     0.037 C 
ENDBRANCH  43  45
ENDBRANCH  40  41
ENDBRANCH  31  34
ENDBRANCH  28  30
ENDBRANCH   1  28
TORSDOF 16
ENDMDL
MODEL 2
REMARK VINA RESULT: -6.379476251      1.532      3.201
REMARK  16 active torsions:
REMARK  status: ('A' for Active; 'I' for Inactive)
REMARK    1  A    between atoms: C2_2  and  C3_3 
REMARK    2  A    between atoms: C3_3  and  C4_5 
REMARK    3  A    between atoms: C4_5  and  N1_6 
REMARK    4  A    between atoms: C4_5  and  C14_19 
REMARK    5  A    between atoms: N1_6  and  C5_8 
REMARK    6  A    between atoms: C5_8  and  C6_9 
REMARK    7  A    between atoms: C5_8  and  C11_16 
REMARK    8  A    between atoms: C6_9  and  C7_10 
REMARK       I    between atoms: C7_10  and  N2_12 
REMARK       I    between atoms: C14_19  and  N3_21 
REMARK    9  A    between atoms: N3_21  and  C15_23 
REMARK   10  A    between atoms: C15_23  and  C16_24 
REMARK   11  A    between atoms: C15_23  and  C20_28 
REMARK   12  A    between atoms: C16_24  and  C17_25 
REMARK   13  A    between atoms: C20_28  and  N4_30 
REMARK       I    between atoms: N4_30  and  C22_32 
REMARK   14  A    between atoms: C22_32  and  C23_34 
REMARK   15  A    between atoms: C26_40  and  C27_41 
REMARK       I    between atoms: C27_41  and  N6_43 
REMARK   16  A    between atoms: N6_43  and  C28_45 
ROOT
HETATM    1  C15 UNL     1      36.664  27.436  21.287  1.00  0.00     0.107 C 
ENDROOT
BRANCH   1   2
HETATM    2  N3  UNL     1      35.936  26.429  20.510  1.00  0.00    -0.349 N 
HETATM    3  C14 UNL     1      36.065  25.039  20.821  1.00  0.00     0.272 C 
HETATM    4  O3  UNL     1      36.861  24.862  21.827  1.00  0.00    -0.266 OA
ATOM      5  H3  UNL     1      35.332  26.721  19.741  1.00  0.00     0.163 HD
BRANCH   3   6
HETATM    6  C4  UNL     1      35.431  23.907  20.166  1.00  0.00     0.143 C 
BRANCH   6   7
HETATM    7  C3  UNL     1      34.211  23.302  20.668  1.00  0.00     0.180 C 
HETATM    8  O1  UNL     1      33.320  24.116  21.038  1.00  0.00    -0.291 OA
BRANCH   7   9
HETATM    9  C2  UNL     1      33.830  21.894  20.821  1.00  0.00     0.081 C 
HETATM   10  C1  UNL     1      34.954  21.094  21.498  1.00  0.00     0.013 C 
ENDBRANCH   7   9
ENDBRANCH   6   7
BRANCH   6  11
HETATM   11  N1  UNL     1      35.640  23.854  18.779  1.00  0.00    -0.377 N 
ATOM     12  H1  UNL     1      36.564  23.574  18.451  1.00  0.00     0.160 HD
BRANCH  11  13
HETATM   13  C5  UNL     1      34.669  24.157  17.809  1.00  0.00     0.094 C 
BRANCH  13  14
HETATM   14  C6  UNL     1      34.870  22.986  16.784  1.00  0.00     0.128 C 
BRANCH  14  15
HETATM   15  C7  UNL     1      35.070  21.685  17.329  1.00  0.00     0.221 C 
HETATM   16  O2  UNL     1      36.249  21.348  17.686  1.00  0.00    -0.273 OA
HETATM   17  N2  UNL     1      34.043  20.731  17.506  1.00  0.00    -0.352 N 
HETATM   18  C8  UNL     1      34.059  19.351  18.033  1.00  0.00     0.127 C 
HETATM   19  C10 UNL     1      32.596  20.600  17.311  1.00  0.00     0.127 C 
HETATM   20  C9  UNL     1      32.570  19.481  18.338  1.00  0.00     0.040 C 
ENDBRANCH  14  15
ENDBRANCH  13  14
BRANCH  13  21
HETATM   21  C11 UNL     1      34.793  25.465  17.129  1.00  0.00     0.001 C 
HETATM   22  C12 UNL     1      34.528  25.519  15.676  1.00  0.00     0.011 C 
HETATM   23  C13 UNL     1      34.087  26.629  17.810  1.00  0.00     0.011 C 
ENDBRANCH  13  21
ENDBRANCH  11  13
ENDBRANCH   6  11
ENDBRANCH   3   6
ENDBRANCH   1   2
BRANCH   1  24
HETATM   24  C16 UNL     1      37.666  28.197  20.487  1.00  0.00     0.031 C 
BRANCH  24  25
HETATM   25  C17 UNL     1      37.590  27.929  18.986  1.00  0.00    -0.021 C 
HETATM   26  C18 UNL     1      37.350  29.297  18.328  1.00  0.00     0.009 C 
HETATM   27  C19 UNL     1      38.956  27.483  18.453  1.00  0.00     0.009 C 
ENDBRANCH  24  25
ENDBRANCH   1  24
BRANCH   1  28
HETATM   28  C20 UNL     1      35.675  28.410  21.872  1.00  0.00     0.103 C 
HETATM   29  C21 UNL     1      35.304  28.121  23.300  1.00  0.00     0.034 C 
BRANCH  28  30
HETATM   30  N4  UNL     1      34.521  28.498  21.007  1.00  0.00    -0.354 N 
HETATM   31  C22 UNL     1      34.206  29.710  20.309  1.00  0.00     0.224 C 
HETATM   32  O4  UNL     1      34.966  30.692  20.468  1.00  0.00    -0.273 OA
ATOM     33  H4  UNL     1      33.919  27.683  20.891  1.00  0.00     0.162 HD
BRANCH  31  34
HETATM   34  C23 UNL     1      33.026  29.831  19.419  1.00  0.00     0.118 C 
HETATM   35  C24 UNL     1      32.496  31.231  19.467  1.00  0.00     0.247 C 
HETATM   36  N5  UNL     1      31.150  31.148  19.912  1.00  0.00    -0.073 N 
HETATM   37  C25 UNL     1      31.066  29.938  20.729  1.00  0.00     0.247 C 
ATOM     38  H52 UNL     1      30.829  31.987  20.395  1.00  0.00     0.277 HD
ATOM     39  H51 UNL     1      30.470  31.173  19.152  1.00  0.00     0.277 HD
HETATM   40  C26 UNL     1      31.942  28.956  19.964  1.00  0.00     0.118 C 
BRANCH  40  41
HETATM   41  C27 UNL     1      31.129  28.315  18.914  1.00  0.00     0.225 C 
HETATM   42  O5  UNL     1      31.039  28.918  17.790  1.00  0.00    -0.273 OA
HETATM   43  N6  UNL     1      30.459  27.086  19.092  1.00  0.00    -0.353 N 
ATOM     44  H6  UNL     1      30.540  26.626  19.999  1.00  0.00     0.163 HD
BRANCH  43  45
HETATM   45  C28 UNL     1      29.677  26.447  18.085  1.00  0.00     0.022 C 
HETATM   46  C29 UNL     1      30.504  26.123  16.842  1.00  0.00     0.037 C 
HETATM   47  C30 UNL     1      28.496  27.263  17.620  1.00  0.00     0.037 C 
HETATM   48  C31 UNL     1      29.101  25.131  18.623  1.00  0.00     0.037 C 
ENDBRANCH  43  45
ENDBRANCH  40  41
ENDBRANCH  31  34
ENDBRANCH  28  30
ENDBRANCH   1  28
TORSDOF 16
ENDMDL
MODEL 3
REMARK VINA RESULT: -6.378972725      1.986      6.686
REMARK  16 active torsions:
REMARK  status: ('A' for Active; 'I' for Inactive)
REMARK    1  A    between atoms: C2_2  and  C3_3 
REMARK    2  A    between atoms: C3_3  and  C4_5 
REMARK    3  A    between atoms: C4_5  and  N1_6 
REMARK    4  A    between atoms: C4_5  and  C14_19 
REMARK    5  A    between atoms: N1_6  and  C5_8 
REMARK    6  A    between atoms: C5_8  and  C6_9 
REMARK    7  A    between atoms: C5_8  and  C11_16 
REMARK    8  A    between atoms: C6_9  and  C7_10 
REMARK       I    between atoms: C7_10  and  N2_12 
REMARK       I    between atoms: C14_19  and  N3_21 
REMARK    9  A    between atoms: N3_21  and  C15_23 
REMARK   10  A    between atoms: C15_23  and  C16_24 
REMARK   11  A    between atoms: C15_23  and  C20_28 
REMARK   12  A    between atoms: C16_24  and  C17_25 
REMARK   13  A    between atoms: C20_28  and  N4_30 
REMARK       I    between atoms: N4_30  and  C22_32 
REMARK   14  A    between atoms: C22_32  and  C23_34 
REMARK   15  A    between atoms: C26_40  and  C27_41 
REMARK       I    between atoms: C27_41  and  N6_43 
REMARK   16  A    between atoms: N6_43  and  C28_45 
ROOT
HETATM    1  C15 UNL     1      35.187  28.062  21.222  1.00  0.00     0.107 C 
ENDROOT
BRANCH   1   2
HETATM    2  N3  UNL     1      35.192  28.308  19.777  1.00  0.00    -0.349 N 
HETATM    3  C14 UNL     1      35.183  29.644  19.267  1.00  0.00     0.272 C 
HETATM    4  O3  UNL     1      35.180  30.507  20.232  1.00  0.00    -0.266 OA
ATOM      5  H3  UNL     1      35.202  27.519  19.129  1.00  0.00     0.163 HD
BRANCH   3   6
HETATM    6  C4  UNL     1      35.180  30.078  17.880  1.00  0.00     0.143 C 
BRANCH   6   7
HETATM    7  C3  UNL     1      36.325  29.894  17.007  1.00  0.00     0.180 C 
HETATM    8  O1  UNL     1      36.798  30.954  16.509  1.00  0.00    -0.291 OA
BRANCH   7   9
HETATM    9  C2  UNL     1      37.035  28.678  16.597  1.00  0.00     0.081 C 
HETATM   10  C1  UNL     1      37.999  28.212  17.699  1.00  0.00     0.013 C 
ENDBRANCH   7   9
ENDBRANCH   6   7
BRANCH   6  11
HETATM   11  N1  UNL     1      33.914  30.068  17.275  1.00  0.00    -0.377 N 
ATOM     12  H1  UNL     1      33.878  30.032  16.256  1.00  0.00     0.160 HD
BRANCH  11  13
HETATM   13  C5  UNL     1      32.692  30.104  17.968  1.00  0.00     0.094 C 
BRANCH  13  14
HETATM   14  C6  UNL     1      31.843  29.055  17.166  1.00  0.00     0.128 C 
BRANCH  14  15
HETATM   15  C7  UNL     1      32.349  27.725  17.118  1.00  0.00     0.221 C 
HETATM   16  O2  UNL     1      33.243  27.443  16.250  1.00  0.00    -0.273 OA
HETATM   17  N2  UNL     1      31.927  26.682  17.974  1.00  0.00    -0.352 N 
HETATM   18  C8  UNL     1      32.318  25.261  18.064  1.00  0.00     0.127 C 
HETATM   19  C10 UNL     1      31.011  26.464  19.098  1.00  0.00     0.127 C 
HETATM   20  C9  UNL     1      31.823  25.246  19.507  1.00  0.00     0.040 C 
ENDBRANCH  14  15
ENDBRANCH  13  14
BRANCH  13  21
HETATM   21  C11 UNL     1      31.993  31.406  18.017  1.00  0.00     0.001 C 
HETATM   22  C12 UNL     1      30.911  31.649  17.039  1.00  0.00     0.011 C 
HETATM   23  C13 UNL     1      31.528  31.851  19.397  1.00  0.00     0.011 C 
ENDBRANCH  13  21
ENDBRANCH  11  13
ENDBRANCH   6  11
ENDBRANCH   3   6
ENDBRANCH   1   2
BRANCH   1  24
HETATM   24  C16 UNL     1      34.002  27.288  21.692  1.00  0.00     0.031 C 
BRANCH  24  25
HETATM   25  C17 UNL     1      33.013  28.112  22.511  1.00  0.00    -0.021 C 
HETATM   26  C18 UNL     1      33.864  29.076  23.352  1.00  0.00     0.009 C 
HETATM   27  C19 UNL     1      32.192  29.027  21.595  1.00  0.00     0.009 C 
ENDBRANCH  24  25
ENDBRANCH   1  24
BRANCH   1  28
HETATM   28  C20 UNL     1      36.436  27.305  21.592  1.00  0.00     0.103 C 
HETATM   29  C21 UNL     1      37.679  28.150  21.613  1.00  0.00     0.034 C 
BRANCH  28  30
HETATM   30  N4  UNL     1      36.566  26.149  20.736  1.00  0.00    -0.354 N 
HETATM   31  C22 UNL     1      36.489  24.819  21.267  1.00  0.00     0.224 C 
HETATM   32  O4  UNL     1      36.302  24.689  22.497  1.00  0.00    -0.273 OA
ATOM     33  H4  UNL     1      36.715  26.281  19.736  1.00  0.00     0.162 HD
BRANCH  31  34
HETATM   34  C23 UNL     1      36.624  23.614  20.413  1.00  0.00     0.118 C 
HETATM   35  C24 UNL     1      37.784  23.782  19.479  1.00  0.00     0.247 C 
HETATM   36  N5  UNL     1      37.271  23.678  18.160  1.00  0.00    -0.073 N 
HETATM   37  C25 UNL     1      35.877  24.114  18.231  1.00  0.00     0.247 C 
ATOM     38  H52 UNL     1      37.821  24.188  17.469  1.00  0.00     0.277 HD
ATOM     39  H51 UNL     1      37.386  22.751  17.751  1.00  0.00     0.277 HD
HETATM   40  C26 UNL     1      35.407  23.518  19.550  1.00  0.00     0.118 C 
BRANCH  40  41
HETATM   41  C27 UNL     1      34.971  22.129  19.313  1.00  0.00     0.225 C 
HETATM   42  O5  UNL     1      35.467  21.221  20.063  1.00  0.00    -0.273 OA
HETATM   43  N6  UNL     1      34.045  21.766  18.311  1.00  0.00    -0.353 N 
ATOM     44  H6  UNL     1      33.667  22.506  17.719  1.00  0.00     0.163 HD
BRANCH  43  45
HETATM   45  C28 UNL     1      33.605  20.429  18.074  1.00  0.00     0.022 C 
HETATM   46  C29 UNL     1      34.637  19.622  17.288  1.00  0.00     0.037 C 
HETATM   47  C30 UNL     1      32.309  20.341  17.306  1.00  0.00     0.037 C 
HETATM   48  C31 UNL     1      33.362  19.711  19.407  1.00  0.00     0.037 C 
ENDBRANCH  43  45
ENDBRANCH  40  41
ENDBRANCH  31  34
ENDBRANCH  28  30
ENDBRANCH   1  28
TORSDOF 16
ENDMDL
MODEL 4
REMARK VINA RESULT: -6.278688158      1.908      6.632
REMARK  16 active torsions:
REMARK  status: ('A' for Active; 'I' for Inactive)
REMARK    1  A    between atoms: C2_2  and  C3_3 
REMARK    2  A    between atoms: C3_3  and  C4_5 
REMARK    3  A    between atoms: C4_5  and  N1_6 
REMARK    4  A    between atoms: C4_5  and  C14_19 
REMARK    5  A    between atoms: N1_6  and  C5_8 
REMARK    6  A    between atoms: C5_8  and  C6_9 
REMARK    7  A    between atoms: C5_8  and  C11_16 
REMARK    8  A    between atoms: C6_9  and  C7_10 
REMARK       I    between atoms: C7_10  and  N2_12 
REMARK       I    between atoms: C14_19  and  N3_21 
REMARK    9  A    between atoms: N3_21  and  C15_23 
REMARK   10  A    between atoms: C15_23  and  C16_24 
REMARK   11  A    between atoms: C15_23  and  C20_28 
REMARK   12  A    between atoms: C16_24  and  C17_25 
REMARK   13  A    between atoms: C20_28  and  N4_30 
REMARK       I    between atoms: N4_30  and  C22_32 
REMARK   14  A    between atoms: C22_32  and  C23_34 
REMARK   15  A    between atoms: C26_40  and  C27_41 
REMARK       I    between atoms: C27_41  and  N6_43 
REMARK   16  A    between atoms: N6_43  and  C28_45 
ROOT
HETATM    1  C15 UNL     1      35.809  28.929  20.910  1.00  0.00     0.107 C 
ENDROOT
BRANCH   1   2
HETATM    2  N3  UNL     1      35.270  28.684  19.569  1.00  0.00    -0.349 N 
HETATM    3  C14 UNL     1      35.699  29.475  18.457  1.00  0.00     0.272 C 
HETATM    4  O3  UNL     1      36.575  30.354  18.827  1.00  0.00    -0.266 OA
ATOM      5  H3  UNL     1      34.583  27.942  19.428  1.00  0.00     0.163 HD
BRANCH   3   6
HETATM    6  C4  UNL     1      35.276  29.382  17.071  1.00  0.00     0.143 C 
BRANCH   6   7
HETATM    7  C3  UNL     1      35.570  28.226  16.244  1.00  0.00     0.180 C 
HETATM    8  O1  UNL     1      36.005  27.216  16.867  1.00  0.00    -0.291 OA
BRANCH   7   9
HETATM    9  C2  UNL     1      35.449  28.022  14.797  1.00  0.00     0.081 C 
HETATM   10  C1  UNL     1      36.743  28.433  14.078  1.00  0.00     0.013 C 
ENDBRANCH   7   9
ENDBRANCH   6   7
BRANCH   6  11
HETATM   11  N1  UNL     1      34.096  30.083  16.779  1.00  0.00    -0.377 N 
ATOM     12  H1  UNL     1      34.053  30.589  15.894  1.00  0.00     0.160 HD
BRANCH  11  13
HETATM   13  C5  UNL     1      32.969  30.142  17.617  1.00  0.00     0.094 C 
BRANCH  13  14
HETATM   14  C6  UNL     1      32.036  29.059  16.968  1.00  0.00     0.128 C 
BRANCH  14  15
HETATM   15  C7  UNL     1      31.270  28.255  17.861  1.00  0.00     0.221 C 
HETATM   16  O2  UNL     1      30.072  28.610  18.124  1.00  0.00    -0.273 OA
HETATM   17  N2  UNL     1      31.748  27.079  18.480  1.00  0.00    -0.352 N 
HETATM   18  C8  UNL     1      31.118  26.138  19.429  1.00  0.00     0.127 C 
HETATM   19  C10 UNL     1      32.955  26.246  18.512  1.00  0.00     0.127 C 
HETATM   20  C9  UNL     1      32.117  25.071  18.989  1.00  0.00     0.040 C 
ENDBRANCH  14  15
ENDBRANCH  13  14
BRANCH  13  21
HETATM   21  C11 UNL     1      32.269  31.441  17.703  1.00  0.00     0.001 C 
HETATM   22  C12 UNL     1      31.326  31.794  16.620  1.00  0.00     0.011 C 
HETATM   23  C13 UNL     1      31.627  31.755  19.047  1.00  0.00     0.011 C 
ENDBRANCH  13  21
ENDBRANCH  11  13
ENDBRANCH   6  11
ENDBRANCH   3   6
ENDBRANCH   1   2
BRANCH   1  24
HETATM   24  C16 UNL     1      34.774  28.907  21.983  1.00  0.00     0.031 C 
BRANCH  24  25
HETATM   25  C17 UNL     1      33.487  28.191  21.584  1.00  0.00    -0.021 C 
HETATM   26  C18 UNL     1      33.197  27.188  22.712  1.00  0.00     0.009 C 
HETATM   27  C19 UNL     1      32.302  29.162  21.623  1.00  0.00     0.009 C 
ENDBRANCH  24  25
ENDBRANCH   1  24
BRANCH   1  28
HETATM   28  C20 UNL     1      36.846  27.880  21.218  1.00  0.00     0.103 C 
HETATM   29  C21 UNL     1      38.261  28.335  20.992  1.00  0.00     0.034 C 
BRANCH  28  30
HETATM   30  N4  UNL     1      36.531  26.669  20.496  1.00  0.00    -0.354 N 
HETATM   31  C22 UNL     1      36.150  25.471  21.186  1.00  0.00     0.224 C 
HETATM   32  O4  UNL     1      36.095  25.506  22.435  1.00  0.00    -0.273 OA
ATOM     33  H4  UNL     1      36.581  26.666  19.478  1.00  0.00     0.162 HD
BRANCH  31  34
HETATM   34  C23 UNL     1      35.827  24.213  20.471  1.00  0.00     0.118 C 
HETATM   35  C24 UNL     1      36.070  23.041  21.373  1.00  0.00     0.247 C 
HETATM   36  N5  UNL     1      37.032  22.218  20.731  1.00  0.00    -0.073 N 
HETATM   37  C25 UNL     1      37.828  23.107  19.886  1.00  0.00     0.247 C 
ATOM     38  H52 UNL     1      37.592  21.666  21.380  1.00  0.00     0.277 HD
ATOM     39  H51 UNL     1      36.622  21.435  20.222  1.00  0.00     0.277 HD
HETATM   40  C26 UNL     1      36.784  24.066  19.332  1.00  0.00     0.118 C 
BRANCH  40  41
HETATM   41  C27 UNL     1      36.173  23.459  18.134  1.00  0.00     0.225 C 
HETATM   42  O5  UNL     1      36.436  22.230  17.899  1.00  0.00    -0.273 OA
HETATM   43  N6  UNL     1      35.326  24.164  17.253  1.00  0.00    -0.353 N 
ATOM     44  H6  UNL     1      35.136  25.146  17.457  1.00  0.00     0.163 HD
BRANCH  43  45
HETATM   45  C28 UNL     1      34.719  23.592  16.096  1.00  0.00     0.022 C 
HETATM   46  C29 UNL     1      33.647  22.567  16.464  1.00  0.00     0.037 C 
HETATM   47  C30 UNL     1      35.692  22.891  15.180  1.00  0.00     0.037 C 
HETATM   48  C31 UNL     1      34.053  24.687  15.254  1.00  0.00     0.037 C 
ENDBRANCH  43  45
ENDBRANCH  40  41
ENDBRANCH  31  34
ENDBRANCH  28  30
ENDBRANCH   1  28
TORSDOF 16
ENDMDL
MODEL 5
REMARK VINA RESULT: -6.108990957      2.786      6.656
REMARK  16 active torsions:
REMARK  status: ('A' for Active; 'I' for Inactive)
REMARK    1  A    between atoms: C2_2  and  C3_3 
REMARK    2  A    between atoms: C3_3  and  C4_5 
REMARK    3  A    between atoms: C4_5  and  N1_6 
REMARK    4  A    between atoms: C4_5  and  C14_19 
REMARK    5  A    between atoms: N1_6  and  C5_8 
REMARK    6  A    between atoms: C5_8  and  C6_9 
REMARK    7  A    between atoms: C5_8  and  C11_16 
REMARK    8  A    between atoms: C6_9  and  C7_10 
REMARK       I    between atoms: C7_10  and  N2_12 
REMARK       I    between atoms: C14_19  and  N3_21 
REMARK    9  A    between atoms: N3_21  and  C15_23 
REMARK   10  A    between atoms: C15_23  and  C16_24 
REMARK   11  A    between atoms: C15_23  and  C20_28 
REMARK   12  A    between atoms: C16_24  and  C17_25 
REMARK   13  A    between atoms: C20_28  and  N4_30 
REMARK       I    between atoms: N4_30  and  C22_32 
REMARK   14  A    between atoms: C22_32  and  C23_34 
REMARK   15  A    between atoms: C26_40  and  C27_41 
REMARK       I    between atoms: C27_41  and  N6_43 
REMARK   16  A    between atoms: N6_43  and  C28_45 
ROOT
HETATM    1  C15 UNL     1      32.351  30.661  19.224  1.00  0.00     0.107 C 
ENDROOT
BRANCH   1   2
HETATM    2  N3  UNL     1      33.258  30.035  18.256  1.00  0.00    -0.349 N 
HETATM    3  C14 UNL     1      34.659  29.945  18.527  1.00  0.00     0.272 C 
HETATM    4  O3  UNL     1      34.942  30.463  19.680  1.00  0.00    -0.266 OA
ATOM      5  H3  UNL     1      32.886  29.660  17.383  1.00  0.00     0.163 HD
BRANCH   3   6
HETATM    6  C4  UNL     1      35.701  29.370  17.694  1.00  0.00     0.143 C 
BRANCH   6   7
HETATM    7  C3  UNL     1      35.775  27.948  17.412  1.00  0.00     0.180 C 
HETATM    8  O1  UNL     1      36.863  27.392  17.731  1.00  0.00    -0.291 OA
BRANCH   7   9
HETATM    9  C2  UNL     1      34.795  27.035  16.815  1.00  0.00     0.081 C 
HETATM   10  C1  UNL     1      35.019  25.597  17.308  1.00  0.00     0.013 C 
ENDBRANCH   7   9
ENDBRANCH   6   7
BRANCH   6  11
HETATM   11  N1  UNL     1      36.194  30.237  16.705  1.00  0.00    -0.377 N 
ATOM     12  H1  UNL     1      36.920  30.900  16.978  1.00  0.00     0.160 HD
BRANCH  11  13
HETATM   13  C5  UNL     1      35.760  30.259  15.369  1.00  0.00     0.094 C 
BRANCH  13  14
HETATM   14  C6  UNL     1      37.043  30.780  14.629  1.00  0.00     0.128 C 
BRANCH  14  15
HETATM   15  C7  UNL     1      37.970  29.794  14.184  1.00  0.00     0.221 C 
HETATM   16  O2  UNL     1      38.013  28.676  14.800  1.00  0.00    -0.273 OA
HETATM   17  N2  UNL     1      38.854  29.968  13.095  1.00  0.00    -0.352 N 
HETATM   18  C8  UNL     1      39.878  29.081  12.505  1.00  0.00     0.127 C 
HETATM   19  C10 UNL     1      39.190  30.971  12.080  1.00  0.00     0.127 C 
HETATM   20  C9  UNL     1      39.772  29.874  11.205  1.00  0.00     0.040 C 
ENDBRANCH  14  15
ENDBRANCH  13  14
BRANCH  13  21
HETATM   21  C11 UNL     1      34.600  31.123  15.059  1.00  0.00     0.001 C 
HETATM   22  C12 UNL     1      34.859  32.427  14.413  1.00  0.00     0.011 C 
HETATM   23  C13 UNL     1      33.439  30.436  14.353  1.00  0.00     0.011 C 
ENDBRANCH  13  21
ENDBRANCH  11  13
ENDBRANCH   6  11
ENDBRANCH   3   6
ENDBRANCH   1   2
BRANCH   1  24
HETATM   24  C16 UNL     1      31.447  31.681  18.621  1.00  0.00     0.031 C 
BRANCH  24  25
HETATM   25  C17 UNL     1      31.282  31.544  17.110  1.00  0.00    -0.021 C 
HETATM   26  C18 UNL     1      29.957  30.794  16.899  1.00  0.00     0.009 C 
HETATM   27  C19 UNL     1      31.049  32.917  16.471  1.00  0.00     0.009 C 
ENDBRANCH  24  25
ENDBRANCH   1  24
BRANCH   1  28
HETATM   28  C20 UNL     1      31.509  29.589  19.867  1.00  0.00     0.103 C 
HETATM   29  C21 UNL     1      30.278  30.111  20.555  1.00  0.00     0.034 C 
BRANCH  28  30
HETATM   30  N4  UNL     1      32.336  28.791  20.742  1.00  0.00    -0.354 N 
HETATM   31  C22 UNL     1      32.738  27.464  20.377  1.00  0.00     0.224 C 
HETATM   32  O4  UNL     1      32.353  27.017  19.273  1.00  0.00    -0.273 OA
ATOM     33  H4  UNL     1      32.640  29.178  21.635  1.00  0.00     0.162 HD
BRANCH  31  34
HETATM   34  C23 UNL     1      33.582  26.620  21.256  1.00  0.00     0.118 C 
HETATM   35  C24 UNL     1      33.477  27.099  22.672  1.00  0.00     0.247 C 
HETATM   36  N5  UNL     1      34.789  27.445  23.089  1.00  0.00    -0.073 N 
HETATM   37  C25 UNL     1      35.514  27.825  21.878  1.00  0.00     0.247 C 
ATOM     38  H52 UNL     1      34.808  28.162  23.815  1.00  0.00     0.277 HD
ATOM     39  H51 UNL     1      35.251  26.711  23.626  1.00  0.00     0.277 HD
HETATM   40  C26 UNL     1      35.010  26.815  20.856  1.00  0.00     0.118 C 
BRANCH  40  41
HETATM   41  C27 UNL     1      35.818  25.586  20.967  1.00  0.00     0.225 C 
HETATM   42  O5  UNL     1      37.021  25.709  21.381  1.00  0.00    -0.273 OA
HETATM   43  N6  UNL     1      35.328  24.303  20.642  1.00  0.00    -0.353 N 
ATOM     44  H6  UNL     1      34.367  24.230  20.307  1.00  0.00     0.163 HD
BRANCH  43  45
HETATM   45  C28 UNL     1      36.092  23.103  20.752  1.00  0.00     0.022 C 
HETATM   46  C29 UNL     1      36.690  22.935  22.147  1.00  0.00     0.037 C 
HETATM   47  C30 UNL     1      37.238  23.018  19.775  1.00  0.00     0.037 C 
HETATM   48  C31 UNL     1      35.201  21.886  20.472  1.00  0.00     0.037 C 
ENDBRANCH  43  45
ENDBRANCH  40  41
ENDBRANCH  31  34
ENDBRANCH  28  30
ENDBRANCH   1  28
TORSDOF 16
ENDMDL
