MODEL 1
REMARK VINA RESULT: -7.584013165      0.000      0.000
REMARK  4 active torsions:
REMARK  status: ('A' for Active; 'I' for Inactive)
REMARK    1  A    between atoms: C2_2  and  O1_3 
REMARK    2  A    between atoms: O1_3  and  N1_4 
REMARK    3  A    between atoms: N1_4  and  C3_5 
REMARK    4  A    between atoms: C15_17  and  O2_18 
ROOT
HETATM    1  C3  UNL     1      36.041  25.949  22.345  1.00  0.00     0.203 C 
HETATM    2  C4  UNL     1      34.720  26.009  23.014  1.00  0.00     0.046 C 
HETATM    3  C5  UNL     1      33.761  27.028  22.496  1.00  0.00     0.019 C 
HETATM    4  C6  UNL     1      33.713  27.075  20.983  1.00  0.00     0.002 C 
HETATM    5  C7  UNL     1      33.255  25.679  20.520  1.00  0.00     0.022 C 
HETATM    6  C8  UNL     1      35.060  27.241  20.413  1.00  0.00     0.011 C 
HETATM    7  C9  UNL     1      35.302  28.043  19.426  1.00  0.00    -0.001 C 
HETATM    8  C10 UNL     1      34.256  28.858  18.784  1.00  0.00     0.034 C 
HETATM    9  C11 UNL     1      32.943  28.238  19.017  1.00  0.00    -0.001 C 
HETATM   10  C12 UNL     1      31.748  28.939  18.474  1.00  0.00    -0.002 C 
HETATM   11  C13 UNL     1      31.796  29.211  16.998  1.00  0.00     0.008 C 
HETATM   12  C14 UNL     1      30.441  29.599  16.534  1.00  0.00     0.032 C 
HETATM   13  C15 UNL     1      29.673  30.539  17.376  1.00  0.00     0.118 C 
HETATM   14  C16 UNL     1      29.810  30.318  18.866  1.00  0.00     0.041 C 
HETATM   15  C17 UNL     1      31.316  30.173  19.175  1.00  0.00    -0.038 C 
HETATM   16  C18 UNL     1      31.919  31.458  18.691  1.00  0.00     0.015 C 
HETATM   17  C19 UNL     1      31.421  30.116  20.676  1.00  0.00     0.010 C 
HETATM   18  C20 UNL     1      32.630  29.353  21.155  1.00  0.00     0.007 C 
HETATM   19  C21 UNL     1      32.678  28.018  20.512  1.00  0.00     0.004 C 
HETATM   20  N2  UNL     1      36.099  26.467  21.019  1.00  0.00    -0.373 N 
ATOM     21  H2  UNL     1      36.934  26.273  20.466  1.00  0.00     0.161 HD
ENDROOT
BRANCH   1  22
HETATM   22  N1  UNL     1      36.468  24.541  22.311  1.00  0.00    -0.076 NA
BRANCH  22  23
HETATM   23  O1  UNL     1      37.333  24.403  21.279  1.00  0.00    -0.285 OA
BRANCH  23  24
HETATM   24  C2  UNL     1      37.350  23.064  20.903  1.00  0.00     0.191 C 
HETATM   25  C1  UNL     1      35.944  22.546  20.784  1.00  0.00     0.035 C 
ENDBRANCH  23  24
ENDBRANCH  22  23
ENDBRANCH   1  22
BRANCH  13  26
HETATM   26  O2  UNL     1      28.316  30.401  17.072  1.00  0.00    -0.396 OA
ATOM     27  H2  UNL     1      27.876  30.016  17.821  1.00  0.00     0.210 HD
ENDBRANCH  13  26
TORSDOF 4
ENDMDL
MODEL 2
REMARK VINA RESULT: -7.504832618      1.340      1.460
REMARK  4 active torsions:
REMARK  status: ('A' for Active; 'I' for Inactive)
REMARK    1  A    between atoms: C2_2  and  O1_3 
REMARK    2  A    between atoms: O1_3  and  N1_4 
REMARK    3  A    between atoms: N1_4  and  C3_5 
REMARK    4  A    between atoms: C15_17  and  O2_18 
ROOT
HETATM    1  C3  UNL     1      35.863  26.641  22.378  1.00  0.00     0.203 C 
HETATM    2  C4  UNL     1      34.516  26.052  22.189  1.00  0.00     0.046 C 
HETATM    3  C5  UNL     1      33.481  26.943  21.590  1.00  0.00     0.019 C 
HETATM    4  C6  UNL     1      34.002  27.737  20.409  1.00  0.00     0.002 C 
HETATM    5  C7  UNL     1      34.443  26.705  19.354  1.00  0.00     0.022 C 
HETATM    6  C8  UNL     1      35.229  28.470  20.761  1.00  0.00     0.011 C 
HETATM    7  C9  UNL     1      35.440  29.691  20.386  1.00  0.00    -0.001 C 
HETATM    8  C10 UNL     1      34.474  30.456  19.577  1.00  0.00     0.034 C 
HETATM    9  C11 UNL     1      33.609  29.524  18.839  1.00  0.00    -0.001 C 
HETATM   10  C12 UNL     1      32.538  30.110  17.989  1.00  0.00    -0.002 C 
HETATM   11  C13 UNL     1      33.019  31.093  16.961  1.00  0.00     0.008 C 
HETATM   12  C14 UNL     1      31.931  31.343  15.984  1.00  0.00     0.032 C 
HETATM   13  C15 UNL     1      30.564  31.524  16.514  1.00  0.00     0.118 C 
HETATM   14  C16 UNL     1      30.203  30.619  17.670  1.00  0.00     0.041 C 
HETATM   15  C17 UNL     1      31.362  30.684  18.688  1.00  0.00    -0.038 C 
HETATM   16  C18 UNL     1      31.451  32.135  19.056  1.00  0.00     0.015 C 
HETATM   17  C19 UNL     1      30.897  29.901  19.887  1.00  0.00     0.010 C 
HETATM   18  C20 UNL     1      32.032  29.299  20.677  1.00  0.00     0.007 C 
HETATM   19  C21 UNL     1      32.922  28.524  19.779  1.00  0.00     0.004 C 
HETATM   20  N2  UNL     1      36.184  27.756  21.551  1.00  0.00    -0.373 N 
ATOM     21  H2  UNL     1      37.155  28.064  21.519  1.00  0.00     0.161 HD
ENDROOT
BRANCH   1  22
HETATM   22  N1  UNL     1      36.858  25.583  22.135  1.00  0.00    -0.076 NA
BRANCH  22  23
HETATM   23  O1  UNL     1      36.287  24.404  22.477  1.00  0.00    -0.285 OA
BRANCH  23  24
HETATM   24  C2  UNL     1      36.885  23.399  21.724  1.00  0.00     0.191 C 
HETATM   25  C1  UNL     1      37.100  23.871  20.314  1.00  0.00     0.035 C 
ENDBRANCH  23  24
ENDBRANCH  22  23
ENDBRANCH   1  22
BRANCH  13  26
HETATM   26  O2  UNL     1      29.651  31.254  15.491  1.00  0.00    -0.396 OA
ATOM     27  H2  UNL     1      29.612  32.007  14.914  1.00  0.00     0.210 HD
ENDBRANCH  13  26
TORSDOF 4
ENDMDL
MODEL 3
REMARK VINA RESULT: -7.344921438      2.902      7.305
REMARK  4 active torsions:
REMARK  status: ('A' for Active; 'I' for Inactive)
REMARK    1  A    between atoms: C2_2  and  O1_3 
REMARK    2  A    between atoms: O1_3  and  N1_4 
REMARK    3  A    between atoms: N1_4  and  C3_5 
REMARK    4  A    between atoms: C15_17  and  O2_18 
ROOT
HETATM    1  C3  UNL     1      29.774  29.706  18.357  1.00  0.00     0.203 C 
HETATM    2  C4  UNL     1      30.054  30.618  19.491  1.00  0.00     0.046 C 
HETATM    3  C5  UNL     1      31.135  30.195  20.429  1.00  0.00     0.019 C 
HETATM    4  C6  UNL     1      32.363  29.671  19.713  1.00  0.00     0.002 C 
HETATM    5  C7  UNL     1      32.884  30.829  18.842  1.00  0.00     0.022 C 
HETATM    6  C8  UNL     1      32.009  28.607  18.760  1.00  0.00     0.011 C 
HETATM    7  C9  UNL     1      32.712  27.527  18.632  1.00  0.00    -0.001 C 
HETATM    8  C10 UNL     1      33.926  27.267  19.425  1.00  0.00     0.034 C 
HETATM    9  C11 UNL     1      34.485  28.543  19.896  1.00  0.00    -0.001 C 
HETATM   10  C12 UNL     1      35.701  28.484  20.751  1.00  0.00    -0.002 C 
HETATM   11  C13 UNL     1      36.862  27.749  20.144  1.00  0.00     0.008 C 
HETATM   12  C14 UNL     1      38.085  28.044  20.930  1.00  0.00     0.032 C 
HETATM   13  C15 UNL     1      37.970  28.039  22.402  1.00  0.00     0.118 C 
HETATM   14  C16 UNL     1      36.691  28.638  22.944  1.00  0.00     0.041 C 
HETATM   15  C17 UNL     1      35.519  28.022  22.149  1.00  0.00    -0.038 C 
HETATM   16  C18 UNL     1      35.648  26.546  22.383  1.00  0.00     0.015 C 
HETATM   17  C19 UNL     1      34.266  28.518  22.819  1.00  0.00     0.010 C 
HETATM   18  C20 UNL     1      33.085  28.594  21.883  1.00  0.00     0.007 C 
HETATM   19  C21 UNL     1      33.447  29.365  20.669  1.00  0.00     0.004 C 
HETATM   20  N2  UNL     1      30.832  28.829  17.978  1.00  0.00    -0.373 N 
ATOM     21  H2  UNL     1      30.743  28.327  17.095  1.00  0.00     0.161 HD
ENDROOT
BRANCH   1  22
HETATM   22  N1  UNL     1      29.418  30.531  17.191  1.00  0.00    -0.076 NA
BRANCH  22  23
HETATM   23  O1  UNL     1      30.441  30.449  16.308  1.00  0.00    -0.285 OA
BRANCH  23  24
HETATM   24  C2  UNL     1      30.400  31.576  15.493  1.00  0.00     0.191 C 
HETATM   25  C1  UNL     1      31.121  32.716  16.156  1.00  0.00     0.035 C 
ENDBRANCH  23  24
ENDBRANCH  22  23
ENDBRANCH   1  22
BRANCH  13  26
HETATM   26  O2  UNL     1      39.022  28.790  22.933  1.00  0.00    -0.396 OA
ATOM     27  H2  UNL     1      38.916  29.694  22.660  1.00  0.00     0.210 HD
ENDBRANCH  13  26
TORSDOF 4
ENDMDL
MODEL 4
REMARK VINA RESULT: -6.907745927      2.978      7.493
REMARK  4 active torsions:
REMARK  status: ('A' for Active; 'I' for Inactive)
REMARK    1  A    between atoms: C2_2  and  O1_3 
REMARK    2  A    between atoms: O1_3  and  N1_4 
REMARK    3  A    between atoms: N1_4  and  C3_5 
REMARK    4  A    between atoms: C15_17  and  O2_18 
ROOT
HETATM    1  C3  UNL     1      30.557  30.906  19.733  1.00  0.00     0.203 C 
HETATM    2  C4  UNL     1      31.462  31.470  18.703  1.00  0.00     0.046 C 
HETATM    3  C5  UNL     1      32.898  31.079  18.796  1.00  0.00     0.019 C 
HETATM    4  C6  UNL     1      33.088  29.601  19.073  1.00  0.00     0.002 C 
HETATM    5  C7  UNL     1      32.444  28.853  17.891  1.00  0.00     0.022 C 
HETATM    6  C8  UNL     1      32.320  29.178  20.255  1.00  0.00     0.011 C 
HETATM    7  C9  UNL     1      32.807  28.379  21.149  1.00  0.00    -0.001 C 
HETATM    8  C10 UNL     1      34.168  27.821  21.065  1.00  0.00     0.034 C 
HETATM    9  C11 UNL     1      34.615  27.832  19.665  1.00  0.00    -0.001 C 
HETATM   10  C12 UNL     1      35.989  27.339  19.380  1.00  0.00    -0.002 C 
HETATM   11  C13 UNL     1      36.271  25.947  19.869  1.00  0.00     0.008 C 
HETATM   12  C14 UNL     1      37.526  25.461  19.244  1.00  0.00     0.032 C 
HETATM   13  C15 UNL     1      38.663  26.400  19.171  1.00  0.00     0.118 C 
HETATM   14  C16 UNL     1      38.289  27.829  18.846  1.00  0.00     0.041 C 
HETATM   15  C17 UNL     1      37.116  28.222  19.771  1.00  0.00    -0.038 C 
HETATM   16  C18 UNL     1      37.657  28.033  21.157  1.00  0.00     0.015 C 
HETATM   17  C19 UNL     1      36.880  29.689  19.532  1.00  0.00     0.010 C 
HETATM   18  C20 UNL     1      35.456  30.110  19.797  1.00  0.00     0.007 C 
HETATM   19  C21 UNL     1      34.519  29.235  19.051  1.00  0.00     0.004 C 
HETATM   20  N2  UNL     1      30.996  29.708  20.367  1.00  0.00    -0.373 N 
ATOM     21  H2  UNL     1      30.323  29.195  20.937  1.00  0.00     0.161 HD
ENDROOT
BRANCH   1  22
HETATM   22  N1  UNL     1      29.256  30.644  19.097  1.00  0.00    -0.076 NA
BRANCH  22  23
HETATM   23  O1  UNL     1      28.300  30.828  20.038  1.00  0.00    -0.285 OA
BRANCH  23  24
HETATM   24  C2  UNL     1      27.078  30.446  19.495  1.00  0.00     0.191 C 
HETATM   25  C1  UNL     1      25.953  31.088  20.259  1.00  0.00     0.035 C 
ENDBRANCH  23  24
ENDBRANCH  22  23
ENDBRANCH   1  22
BRANCH  13  26
HETATM   26  O2  UNL     1      39.529  25.973  18.162  1.00  0.00    -0.396 OA
ATOM     27  H2  UNL     1      40.083  25.285  18.510  1.00  0.00     0.210 HD
ENDBRANCH  13  26
TORSDOF 4
ENDMDL
MODEL 5
REMARK VINA RESULT: -6.900580227      1.792      2.476
REMARK  4 active torsions:
REMARK  status: ('A' for Active; 'I' for Inactive)
REMARK    1  A    between atoms: C2_2  and  O1_3 
REMARK    2  A    between atoms: O1_3  and  N1_4 
REMARK    3  A    between atoms: N1_4  and  C3_5 
REMARK    4  A    between atoms: C15_17  and  O2_18 
ROOT
HETATM    1  C3  UNL     1      36.672  23.926  21.164  1.00  0.00     0.203 C 
HETATM    2  C4  UNL     1      36.378  24.911  22.232  1.00  0.00     0.046 C 
HETATM    3  C5  UNL     1      35.990  26.279  21.783  1.00  0.00     0.019 C 
HETATM    4  C6  UNL     1      34.997  26.263  20.639  1.00  0.00     0.002 C 
HETATM    5  C7  UNL     1      33.744  25.536  21.164  1.00  0.00     0.022 C 
HETATM    6  C8  UNL     1      35.481  25.429  19.526  1.00  0.00     0.011 C 
HETATM    7  C9  UNL     1      35.370  25.792  18.288  1.00  0.00    -0.001 C 
HETATM    8  C10 UNL     1      34.749  27.065  17.882  1.00  0.00     0.034 C 
HETATM    9  C11 UNL     1      33.842  27.527  18.942  1.00  0.00    -0.001 C 
HETATM   10  C12 UNL     1      33.145  28.824  18.732  1.00  0.00    -0.002 C 
HETATM   11  C13 UNL     1      32.341  28.907  17.466  1.00  0.00     0.008 C 
HETATM   12  C14 UNL     1      31.450  30.092  17.536  1.00  0.00     0.032 C 
HETATM   13  C15 UNL     1      32.020  31.347  18.065  1.00  0.00     0.118 C 
HETATM   14  C16 UNL     1      32.964  31.175  19.234  1.00  0.00     0.041 C 
HETATM   15  C17 UNL     1      33.961  30.055  18.863  1.00  0.00    -0.038 C 
HETATM   16  C18 UNL     1      34.625  30.550  17.612  1.00  0.00     0.015 C 
HETATM   17  C19 UNL     1      34.974  30.025  19.976  1.00  0.00     0.010 C 
HETATM   18  C20 UNL     1      35.608  28.669  20.162  1.00  0.00     0.007 C 
HETATM   19  C21 UNL     1      34.558  27.630  20.295  1.00  0.00     0.004 C 
HETATM   20  N2  UNL     1      36.093  24.189  19.889  1.00  0.00    -0.373 N 
ATOM     21  H2  UNL     1      36.117  23.446  19.191  1.00  0.00     0.161 HD
ENDROOT
BRANCH   1  22
HETATM   22  N1  UNL     1      36.202  22.608  21.623  1.00  0.00    -0.076 NA
BRANCH  22  23
HETATM   23  O1  UNL     1      35.127  22.276  20.869  1.00  0.00    -0.285 OA
BRANCH  23  24
HETATM   24  C2  UNL     1      34.884  20.917  21.037  1.00  0.00     0.191 C 
HETATM   25  C1  UNL     1      34.507  20.296  19.721  1.00  0.00     0.035 C 
ENDBRANCH  23  24
ENDBRANCH  22  23
ENDBRANCH   1  22
BRANCH  13  26
HETATM   26  O2  UNL     1      30.974  32.159  18.510  1.00  0.00    -0.396 OA
ATOM     27  H2  UNL     1      31.122  33.042  18.196  1.00  0.00     0.210 HD
ENDBRANCH  13  26
TORSDOF 4
ENDMDL
