MODEL 1
REMARK VINA RESULT: -7.937303309      0.000      0.000
REMARK  3 active torsions:
REMARK  status: ('A' for Active; 'I' for Inactive)
REMARK    1  A    between atoms: C1_2  and  C2_3 
REMARK       I    between atoms: C1_2  and  N2_15 
REMARK    2  A    between atoms: C7_12  and  C8_13 
REMARK    3  A    between atoms: N2_15  and  C9_17 
ROOT
HETATM    1  O1  UNL     1      19.785   6.822  13.419  1.00  0.00    -0.269 OA
HETATM    2  C1  UNL     1      19.077   6.033  12.677  1.00  0.00     0.243 C 
HETATM    3  N2  UNL     1      18.015   5.410  13.352  1.00  0.00    -0.347 N 
ATOM      4  H2  UNL     1      17.393   4.768  12.861  1.00  0.00     0.163 HD
ENDROOT
BRANCH   2   5
HETATM    5  C2  UNL     1      19.459   5.907  11.318  1.00  0.00     0.099 C 
HETATM    6  C3  UNL     1      20.675   5.946  10.772  1.00  0.00     0.025 A 
HETATM    7  N1  UNL     1      21.808   6.135  11.580  1.00  0.00    -0.367 N 
HETATM    8  C7  UNL     1      20.835   5.785   9.310  1.00  0.00     0.096 A 
HETATM    9  C4  UNL     1      23.008   6.141  11.155  1.00  0.00     0.113 A 
ATOM     10  H1  UNL     1      21.659   6.277  12.578  1.00  0.00     0.165 HD
HETATM   11  C5  UNL     1      23.208   5.937   9.708  1.00  0.00     0.067 A 
HETATM   12 CL1  UNL     1      24.868   5.937   9.117  1.00  0.00    -0.081 Cl
HETATM   13  C6  UNL     1      22.211   5.762   8.885  1.00  0.00     0.045 A 
HETATM   14 CL2  UNL     1      22.655   5.525   7.171  1.00  0.00    -0.086 Cl
BRANCH   8  15
HETATM   15  C8  UNL     1      19.983   6.788   8.549  1.00  0.00     0.131 C 
HETATM   16 CL3  UNL     1      20.559   8.440   8.768  1.00  0.00    -0.129 Cl
ENDBRANCH   8  15
ENDBRANCH   2   5
BRANCH   3  17
HETATM   17  C9  UNL     1      17.813   5.699  14.781  1.00  0.00     0.136 C 
HETATM   18  C10 UNL     1      17.104   7.016  14.964  1.00  0.00     0.032 C 
HETATM   19  C11 UNL     1      15.694   6.956  14.401  1.00  0.00     0.007 C 
HETATM   20  C12 UNL     1      14.908   6.044  15.318  1.00  0.00     0.041 C 
HETATM   21  C13 UNL     1      15.655   4.806  15.664  1.00  0.00    -0.031 A 
HETATM   22  C14 UNL     1      14.898   3.795  16.268  1.00  0.00     0.027 A 
HETATM   23  C16 UNL     1      16.997   4.639  15.419  1.00  0.00     0.054 A 
HETATM   24  C15 UNL     1      15.533   2.623  16.613  1.00  0.00     0.107 A 
HETATM   25  N3  UNL     1      16.844   2.515  16.350  1.00  0.00    -0.312 N 
HETATM   26  N4  UNL     1      17.558   3.472  15.779  1.00  0.00    -0.303 N 
ATOM     27  H3  UNL     1      17.316   1.647  16.604  1.00  0.00     0.186 HD
ATOM     28  H4  UNL     1      18.552   3.322  15.609  1.00  0.00     0.186 HD
ENDBRANCH   3  17
TORSDOF 3
ENDMDL
MODEL 2
REMARK VINA RESULT: -7.224664403      1.090      1.173
REMARK  3 active torsions:
REMARK  status: ('A' for Active; 'I' for Inactive)
REMARK    1  A    between atoms: C1_2  and  C2_3 
REMARK       I    between atoms: C1_2  and  N2_15 
REMARK    2  A    between atoms: C7_12  and  C8_13 
REMARK    3  A    between atoms: N2_15  and  C9_17 
ROOT
HETATM    1  O1  UNL     1      20.147   7.356  13.382  1.00  0.00    -0.269 OA
HETATM    2  C1  UNL     1      19.692   6.362  12.690  1.00  0.00     0.243 C 
HETATM    3  N2  UNL     1      18.635   5.672  13.304  1.00  0.00    -0.347 N 
ATOM      4  H2  UNL     1      18.202   4.870  12.844  1.00  0.00     0.163 HD
ENDROOT
BRANCH   2   5
HETATM    5  C2  UNL     1      20.307   6.111  11.438  1.00  0.00     0.099 C 
HETATM    6  C3  UNL     1      21.574   6.294  11.063  1.00  0.00     0.025 A 
HETATM    7  N1  UNL     1      22.514   6.806  11.972  1.00  0.00    -0.367 N 
HETATM    8  C7  UNL     1      21.995   5.951   9.687  1.00  0.00     0.096 A 
HETATM    9  C4  UNL     1      23.751   6.972  11.719  1.00  0.00     0.113 A 
ATOM     10  H1  UNL     1      22.182   7.064  12.901  1.00  0.00     0.165 HD
HETATM   11  C5  UNL     1      24.215   6.598  10.370  1.00  0.00     0.067 A 
HETATM   12 CL1  UNL     1      25.927   6.819  10.018  1.00  0.00    -0.081 Cl
HETATM   13  C6  UNL     1      23.407   6.122   9.463  1.00  0.00     0.045 A 
HETATM   14 CL2  UNL     1      24.159   5.723   7.892  1.00  0.00    -0.086 Cl
BRANCH   8  15
HETATM   15  C8  UNL     1      21.129   6.656   8.655  1.00  0.00     0.131 C 
HETATM   16 CL3  UNL     1      21.007   5.733   7.158  1.00  0.00    -0.129 Cl
ENDBRANCH   8  15
ENDBRANCH   2   5
BRANCH   3  17
HETATM   17  C9  UNL     1      18.161   6.122  14.622  1.00  0.00     0.136 C 
HETATM   18  C10 UNL     1      17.419   7.428  14.504  1.00  0.00     0.032 C 
HETATM   19  C11 UNL     1      16.143   7.255  13.697  1.00  0.00     0.007 C 
HETATM   20  C12 UNL     1      15.204   6.435  14.555  1.00  0.00     0.041 C 
HETATM   21  C13 UNL     1      15.882   5.272  15.185  1.00  0.00    -0.031 A 
HETATM   22  C14 UNL     1      15.032   4.316  15.755  1.00  0.00     0.027 A 
HETATM   23  C16 UNL     1      17.248   5.120  15.221  1.00  0.00     0.054 A 
HETATM   24  C15 UNL     1      15.600   3.215  16.355  1.00  0.00     0.107 A 
HETATM   25  N3  UNL     1      16.938   3.118  16.361  1.00  0.00    -0.312 N 
HETATM   26  N4  UNL     1      17.740   4.023  15.821  1.00  0.00    -0.303 N 
ATOM     27  H3  UNL     1      17.361   2.303  16.804  1.00  0.00     0.186 HD
ATOM     28  H4  UNL     1      18.749   3.886  15.862  1.00  0.00     0.186 HD
ENDBRANCH   3  17
TORSDOF 3
ENDMDL
MODEL 3
REMARK VINA RESULT: -7.182042601      3.685      4.265
REMARK  3 active torsions:
REMARK  status: ('A' for Active; 'I' for Inactive)
REMARK    1  A    between atoms: C1_2  and  C2_3 
REMARK       I    between atoms: C1_2  and  N2_15 
REMARK    2  A    between atoms: C7_12  and  C8_13 
REMARK    3  A    between atoms: N2_15  and  C9_17 
ROOT
HETATM    1  O1  UNL     1      18.417   7.121  12.717  1.00  0.00    -0.269 OA
HETATM    2  C1  UNL     1      17.491   6.396  12.177  1.00  0.00     0.243 C 
HETATM    3  N2  UNL     1      16.757   5.626  13.094  1.00  0.00    -0.347 N 
ATOM      4  H2  UNL     1      16.003   5.018  12.774  1.00  0.00     0.163 HD
ENDROOT
BRANCH   2   5
HETATM    5  C2  UNL     1      17.347   6.474  10.769  1.00  0.00     0.099 C 
HETATM    6  C3  UNL     1      17.118   7.539   9.999  1.00  0.00     0.025 A 
HETATM    7  N1  UNL     1      16.986   8.813  10.572  1.00  0.00    -0.367 N 
HETATM    8  C7  UNL     1      17.007   7.379   8.532  1.00  0.00     0.096 A 
HETATM    9  C4  UNL     1      16.812   9.890   9.915  1.00  0.00     0.113 A 
ATOM     10  H1  UNL     1      17.033   8.882  11.589  1.00  0.00     0.165 HD
HETATM   11  C5  UNL     1      16.743   9.774   8.446  1.00  0.00     0.067 A 
HETATM   12 CL1  UNL     1      16.510  11.263   7.532  1.00  0.00    -0.081 Cl
HETATM   13  C6  UNL     1      16.848   8.628   7.832  1.00  0.00     0.045 A 
HETATM   14 CL2  UNL     1      16.744   8.693   6.050  1.00  0.00    -0.086 Cl
BRANCH   8  15
HETATM   15  C8  UNL     1      15.955   6.343   8.169  1.00  0.00     0.131 C 
HETATM   16 CL3  UNL     1      14.319   6.968   8.374  1.00  0.00    -0.129 Cl
ENDBRANCH   8  15
ENDBRANCH   2   5
BRANCH   3  17
HETATM   17  C9  UNL     1      17.094   5.711  14.524  1.00  0.00     0.136 C 
HETATM   18  C10 UNL     1      16.492   6.947  15.141  1.00  0.00     0.032 C 
HETATM   19  C11 UNL     1      14.975   6.877  15.127  1.00  0.00     0.007 C 
HETATM   20  C12 UNL     1      14.588   5.806  16.124  1.00  0.00     0.041 C 
HETATM   21  C13 UNL     1      15.419   4.581  15.991  1.00  0.00    -0.031 A 
HETATM   22  C14 UNL     1      14.944   3.455  16.675  1.00  0.00     0.027 A 
HETATM   23  C16 UNL     1      16.578   4.529  15.254  1.00  0.00     0.054 A 
HETATM   24  C15 UNL     1      15.670   2.288  16.592  1.00  0.00     0.107 A 
HETATM   25  N3  UNL     1      16.793   2.294  15.858  1.00  0.00    -0.312 N 
HETATM   26  N4  UNL     1      17.240   3.360  15.212  1.00  0.00    -0.303 N 
ATOM     27  H3  UNL     1      17.332   1.431  15.794  1.00  0.00     0.186 HD
ATOM     28  H4  UNL     1      18.103   3.294  14.673  1.00  0.00     0.186 HD
ENDBRANCH   3  17
TORSDOF 3
ENDMDL
MODEL 4
REMARK VINA RESULT: -7.098356586      1.479      2.714
REMARK  3 active torsions:
REMARK  status: ('A' for Active; 'I' for Inactive)
REMARK    1  A    between atoms: C1_2  and  C2_3 
REMARK       I    between atoms: C1_2  and  N2_15 
REMARK    2  A    between atoms: C7_12  and  C8_13 
REMARK    3  A    between atoms: N2_15  and  C9_17 
ROOT
HETATM    1  O1  UNL     1      19.792   7.475  13.930  1.00  0.00    -0.269 OA
HETATM    2  C1  UNL     1      19.382   6.571  13.099  1.00  0.00     0.243 C 
HETATM    3  N2  UNL     1      18.339   5.770  13.592  1.00  0.00    -0.347 N 
ATOM      4  H2  UNL     1      17.941   5.026  13.018  1.00  0.00     0.163 HD
ENDROOT
BRANCH   2   5
HETATM    5  C2  UNL     1      20.023   6.514  11.836  1.00  0.00     0.099 C 
HETATM    6  C3  UNL     1      19.515   6.707  10.618  1.00  0.00     0.025 A 
HETATM    7  N1  UNL     1      18.154   7.018  10.459  1.00  0.00    -0.367 N 
HETATM    8  C7  UNL     1      20.386   6.598   9.428  1.00  0.00     0.096 A 
HETATM    9  C4  UNL     1      17.592   7.262   9.343  1.00  0.00     0.113 A 
ATOM     10  H1  UNL     1      17.576   7.051  11.298  1.00  0.00     0.165 HD
HETATM   11  C5  UNL     1      18.442   7.208   8.139  1.00  0.00     0.067 A 
HETATM   12 CL1  UNL     1      17.669   7.553   6.593  1.00  0.00    -0.081 Cl
HETATM   13  C6  UNL     1      19.713   6.919   8.196  1.00  0.00     0.045 A 
HETATM   14 CL2  UNL     1      20.574   6.909   6.631  1.00  0.00    -0.086 Cl
BRANCH   8  15
HETATM   15  C8  UNL     1      21.106   5.260   9.393  1.00  0.00     0.131 C 
HETATM   16 CL3  UNL     1      22.854   5.449   9.526  1.00  0.00    -0.129 Cl
ENDBRANCH   8  15
ENDBRANCH   2   5
BRANCH   3  17
HETATM   17  C9  UNL     1      17.831   6.020  14.951  1.00  0.00     0.136 C 
HETATM   18  C10 UNL     1      16.930   7.227  14.969  1.00  0.00     0.032 C 
HETATM   19  C11 UNL     1      15.675   6.980  14.149  1.00  0.00     0.007 C 
HETATM   20  C12 UNL     1      14.857   5.965  14.918  1.00  0.00     0.041 C 
HETATM   21  C13 UNL     1      15.683   4.837  15.424  1.00  0.00    -0.031 A 
HETATM   22  C14 UNL     1      14.967   3.729  15.892  1.00  0.00     0.027 A 
HETATM   23  C16 UNL     1      17.058   4.855  15.443  1.00  0.00     0.054 A 
HETATM   24  C15 UNL     1      15.676   2.652  16.375  1.00  0.00     0.107 A 
HETATM   25  N3  UNL     1      17.015   2.723  16.369  1.00  0.00    -0.312 N 
HETATM   26  N4  UNL     1      17.691   3.773  15.926  1.00  0.00    -0.303 N 
ATOM     27  H3  UNL     1      17.542   1.926  16.725  1.00  0.00     0.186 HD
ATOM     28  H4  UNL     1      18.710   3.759  15.951  1.00  0.00     0.186 HD
ENDBRANCH   3  17
TORSDOF 3
ENDMDL
MODEL 5
REMARK VINA RESULT: -6.940890356      2.656      3.817
REMARK  3 active torsions:
REMARK  status: ('A' for Active; 'I' for Inactive)
REMARK    1  A    between atoms: C1_2  and  C2_3 
REMARK       I    between atoms: C1_2  and  N2_15 
REMARK    2  A    between atoms: C7_12  and  C8_13 
REMARK    3  A    between atoms: N2_15  and  C9_17 
ROOT
HETATM    1  O1  UNL     1      19.086   5.761  10.126  1.00  0.00    -0.269 OA
HETATM    2  C1  UNL     1      19.930   4.877  10.551  1.00  0.00     0.243 C 
HETATM    3  N2  UNL     1      19.340   3.798  11.228  1.00  0.00    -0.347 N 
ATOM      4  H2  UNL     1      19.915   3.044  11.605  1.00  0.00     0.163 HD
ENDROOT
BRANCH   2   5
HETATM    5  C2  UNL     1      21.302   5.112  10.283  1.00  0.00     0.099 C 
HETATM    6  C3  UNL     1      22.122   6.029  10.799  1.00  0.00     0.025 A 
HETATM    7  N1  UNL     1      21.650   6.942  11.757  1.00  0.00    -0.367 N 
HETATM    8  C7  UNL     1      23.535   6.084  10.367  1.00  0.00     0.096 A 
HETATM    9  C4  UNL     1      22.368   7.819  12.337  1.00  0.00     0.113 A 
ATOM     10  H1  UNL     1      20.662   6.898  12.006  1.00  0.00     0.165 HD
HETATM   11  C5  UNL     1      23.793   7.872  11.963  1.00  0.00     0.067 A 
HETATM   12 CL1  UNL     1      24.791   9.082  12.769  1.00  0.00    -0.081 Cl
HETATM   13  C6  UNL     1      24.312   7.067  11.078  1.00  0.00     0.045 A 
HETATM   14 CL2  UNL     1      26.057   7.283  10.765  1.00  0.00    -0.086 Cl
BRANCH   8  15
HETATM   15  C8  UNL     1      23.645   6.203   8.856  1.00  0.00     0.131 C 
HETATM   16 CL3  UNL     1      24.956   5.216   8.212  1.00  0.00    -0.129 Cl
ENDBRANCH   8  15
ENDBRANCH   2   5
BRANCH   3  17
HETATM   17  C9  UNL     1      17.877   3.771  11.386  1.00  0.00     0.136 C 
HETATM   18  C10 UNL     1      17.267   2.699  10.520  1.00  0.00     0.032 C 
HETATM   19  C11 UNL     1      17.708   1.318  10.976  1.00  0.00     0.007 C 
HETATM   20  C12 UNL     1      17.032   1.073  12.308  1.00  0.00     0.041 C 
HETATM   21  C13 UNL     1      17.118   2.249  13.213  1.00  0.00    -0.031 A 
HETATM   22  C14 UNL     1      16.771   2.007  14.548  1.00  0.00     0.027 A 
HETATM   23  C16 UNL     1      17.507   3.499  12.794  1.00  0.00     0.054 A 
HETATM   24  C15 UNL     1      16.830   3.057  15.436  1.00  0.00     0.107 A 
HETATM   25  N3  UNL     1      17.217   4.255  14.974  1.00  0.00    -0.312 N 
HETATM   26  N4  UNL     1      17.544   4.481  13.711  1.00  0.00    -0.303 N 
ATOM     27  H3  UNL     1      17.262   5.034  15.630  1.00  0.00     0.186 HD
ATOM     28  H4  UNL     1      17.829   5.418  13.428  1.00  0.00     0.186 HD
ENDBRANCH   3  17
TORSDOF 3
ENDMDL
