MODEL 1
REMARK VINA RESULT: -6.443640569      0.000      0.000
REMARK  5 active torsions:
REMARK  status: ('A' for Active; 'I' for Inactive)
REMARK    1  A    between atoms: O1_2  and  C2_3 
REMARK    2  A    between atoms: C5_6  and  C6_7 
REMARK    3  A    between atoms: N1_8  and  N2_10 
REMARK    4  A    between atoms: N2_10  and  C7_12 
REMARK    5  A    between atoms: C7_12  and  N3_14 
ROOT
HETATM    1  C6  UNL     1      17.161   6.158  11.847  1.00  0.00     0.120 C 
HETATM    2  N1  UNL     1      16.596   5.851  10.738  1.00  0.00    -0.309 N 
ATOM      3  H1  UNL     1      15.805   5.207  10.747  1.00  0.00     0.186 HD
ENDROOT
BRANCH   2   4
HETATM    4  N2  UNL     1      17.031   6.369   9.524  1.00  0.00    -0.277 N 
ATOM      5  H2  UNL     1      17.969   6.125   9.206  1.00  0.00     0.189 HD
BRANCH   4   6
HETATM    6  C7  UNL     1      16.247   7.219   8.699  1.00  0.00     0.188 C 
HETATM    7  S1  UNL     1      15.933   6.691   7.184  1.00  0.00    -0.039 SA
BRANCH   6   8
HETATM    8  N3  UNL     1      15.742   8.458   9.115  1.00  0.00    -0.354 N 
HETATM    9  C8  UNL     1      14.318   8.633   9.302  1.00  0.00     0.129 C 
HETATM   10  C9  UNL     1      13.995   9.643  10.366  1.00  0.00     0.002 C 
HETATM   11  C10 UNL     1      14.396   9.051  11.712  1.00  0.00     0.011 C 
HETATM   12  C11 UNL     1      14.698  10.959  10.176  1.00  0.00     0.044 C 
HETATM   13  C12 UNL     1      15.857  10.890   9.230  1.00  0.00     0.188 C 
HETATM   14  F1  UNL     1      15.500  11.094   7.911  1.00  0.00    -0.248 F 
HETATM   15  C13 UNL     1      16.630   9.592   9.369  1.00  0.00     0.162 C 
ENDBRANCH   6   8
ENDBRANCH   4   6
ENDBRANCH   2   4
BRANCH   1  16
HETATM   16  C5  UNL     1      16.684   5.601  13.094  1.00  0.00     0.004 A 
HETATM   17  C4  UNL     1      15.955   6.407  13.973  1.00  0.00     0.017 A 
HETATM   18  C3  UNL     1      15.485   5.911  15.170  1.00  0.00     0.039 A 
HETATM   19  C2  UNL     1      15.719   4.604  15.541  1.00  0.00     0.091 A 
HETATM   20  C15 UNL     1      16.439   3.811  14.670  1.00  0.00     0.089 A 
HETATM   21  C14 UNL     1      16.916   4.291  13.470  1.00  0.00     0.070 A 
HETATM   22 CL2  UNL     1      16.734   2.147  15.147  1.00  0.00    -0.080 Cl
HETATM   23 CL1  UNL     1      17.828   3.281  12.372  1.00  0.00    -0.081 Cl
BRANCH  19  24
HETATM   24  O1  UNL     1      15.236   4.128  16.751  1.00  0.00    -0.354 OA
HETATM   25  C1  UNL     1      13.961   3.522  16.831  1.00  0.00     0.210 C 
ENDBRANCH  19  24
ENDBRANCH   1  16
TORSDOF 5
ENDMDL
MODEL 2
REMARK VINA RESULT: -6.419361017      2.002      2.570
REMARK  5 active torsions:
REMARK  status: ('A' for Active; 'I' for Inactive)
REMARK    1  A    between atoms: O1_2  and  C2_3 
REMARK    2  A    between atoms: C5_6  and  C6_7 
REMARK    3  A    between atoms: N1_8  and  N2_10 
REMARK    4  A    between atoms: N2_10  and  C7_12 
REMARK    5  A    between atoms: C7_12  and  N3_14 
ROOT
HETATM    1  C6  UNL     1      17.051   6.301  12.728  1.00  0.00     0.120 C 
HETATM    2  N1  UNL     1      16.995   5.753  11.571  1.00  0.00    -0.309 N 
ATOM      3  H1  UNL     1      16.731   4.770  11.501  1.00  0.00     0.186 HD
ENDROOT
BRANCH   2   4
HETATM    4  N2  UNL     1      17.282   6.458  10.409  1.00  0.00    -0.277 N 
ATOM      5  H2  UNL     1      18.252   6.488  10.093  1.00  0.00     0.189 HD
BRANCH   4   6
HETATM    6  C7  UNL     1      16.307   7.141   9.634  1.00  0.00     0.188 C 
HETATM    7  S1  UNL     1      15.809   6.404   8.262  1.00  0.00    -0.039 SA
BRANCH   6   8
HETATM    8  N3  UNL     1      15.766   8.384   9.985  1.00  0.00    -0.354 N 
HETATM    9  C8  UNL     1      16.576   9.352  10.692  1.00  0.00     0.129 C 
HETATM   10  C9  UNL     1      16.193  10.769  10.372  1.00  0.00     0.002 C 
HETATM   11  C10 UNL     1      16.595  11.049   8.928  1.00  0.00     0.011 C 
HETATM   12  C11 UNL     1      14.724  11.045  10.538  1.00  0.00     0.044 C 
HETATM   13  C12 UNL     1      13.884   9.807  10.595  1.00  0.00     0.188 C 
HETATM   14  F1  UNL     1      13.749   9.295  11.872  1.00  0.00    -0.248 F 
HETATM   15  C13 UNL     1      14.385   8.732   9.650  1.00  0.00     0.162 C 
ENDBRANCH   6   8
ENDBRANCH   4   6
ENDBRANCH   2   4
BRANCH   1  16
HETATM   16  C5  UNL     1      16.746   5.539  13.919  1.00  0.00     0.004 A 
HETATM   17  C4  UNL     1      17.539   4.438  14.254  1.00  0.00     0.017 A 
HETATM   18  C3  UNL     1      17.279   3.689  15.382  1.00  0.00     0.039 A 
HETATM   19  C2  UNL     1      16.226   4.000  16.216  1.00  0.00     0.091 A 
HETATM   20  C15 UNL     1      15.444   5.088  15.881  1.00  0.00     0.089 A 
HETATM   21  C14 UNL     1      15.692   5.847  14.759  1.00  0.00     0.070 A 
HETATM   22 CL2  UNL     1      14.105   5.479  16.948  1.00  0.00    -0.080 Cl
HETATM   23 CL1  UNL     1      14.697   7.223  14.342  1.00  0.00    -0.081 Cl
BRANCH  19  24
HETATM   24  O1  UNL     1      15.984   3.230  17.344  1.00  0.00    -0.354 OA
HETATM   25  C1  UNL     1      15.012   2.204  17.323  1.00  0.00     0.210 C 
ENDBRANCH  19  24
ENDBRANCH   1  16
TORSDOF 5
ENDMDL
MODEL 3
REMARK VINA RESULT: -6.404257196      2.218      3.069
REMARK  5 active torsions:
REMARK  status: ('A' for Active; 'I' for Inactive)
REMARK    1  A    between atoms: O1_2  and  C2_3 
REMARK    2  A    between atoms: C5_6  and  C6_7 
REMARK    3  A    between atoms: N1_8  and  N2_10 
REMARK    4  A    between atoms: N2_10  and  C7_12 
REMARK    5  A    between atoms: C7_12  and  N3_14 
ROOT
HETATM    1  C6  UNL     1      16.755   7.340  12.961  1.00  0.00     0.120 C 
HETATM    2  N1  UNL     1      15.951   8.142  12.367  1.00  0.00    -0.309 N 
ATOM      3  H1  UNL     1      14.950   8.064  12.548  1.00  0.00     0.186 HD
ENDROOT
BRANCH   2   4
HETATM    4  N2  UNL     1      16.403   9.115  11.485  1.00  0.00    -0.277 N 
ATOM      5  H2  UNL     1      16.164  10.088  11.679  1.00  0.00     0.189 HD
BRANCH   4   6
HETATM    6  C7  UNL     1      17.179   8.837  10.328  1.00  0.00     0.188 C 
HETATM    7  S1  UNL     1      18.720   9.383  10.325  1.00  0.00    -0.039 SA
BRANCH   6   8
HETATM    8  N3  UNL     1      16.695   8.134   9.218  1.00  0.00    -0.354 N 
HETATM    9  C8  UNL     1      16.568   8.799   7.939  1.00  0.00     0.129 C 
HETATM   10  C9  UNL     1      16.753   7.861   6.780  1.00  0.00     0.002 C 
HETATM   11  C10 UNL     1      18.218   7.439   6.747  1.00  0.00     0.011 C 
HETATM   12  C11 UNL     1      15.887   6.634   6.857  1.00  0.00     0.044 C 
HETATM   13  C12 UNL     1      15.322   6.384   8.221  1.00  0.00     0.188 C 
HETATM   14  F1  UNL     1      14.119   7.028   8.442  1.00  0.00    -0.248 F 
HETATM   15  C13 UNL     1      16.309   6.727   9.321  1.00  0.00     0.162 C 
ENDBRANCH   6   8
ENDBRANCH   4   6
ENDBRANCH   2   4
BRANCH   1  16
HETATM   16  C5  UNL     1      16.253   6.337  13.875  1.00  0.00     0.004 A 
HETATM   17  C4  UNL     1      15.296   6.694  14.830  1.00  0.00     0.017 A 
HETATM   18  C3  UNL     1      14.794   5.765  15.716  1.00  0.00     0.039 A 
HETATM   19  C2  UNL     1      15.220   4.455  15.692  1.00  0.00     0.091 A 
HETATM   20  C15 UNL     1      16.165   4.106  14.748  1.00  0.00     0.089 A 
HETATM   21  C14 UNL     1      16.676   5.022  13.854  1.00  0.00     0.070 A 
HETATM   22 CL2  UNL     1      16.704   2.435  14.721  1.00  0.00    -0.080 Cl
HETATM   23 CL1  UNL     1      17.873   4.573  12.661  1.00  0.00    -0.081 Cl
BRANCH  19  24
HETATM   24  O1  UNL     1      14.701   3.539  16.595  1.00  0.00    -0.354 OA
HETATM   25  C1  UNL     1      14.815   3.754  17.988  1.00  0.00     0.210 C 
ENDBRANCH  19  24
ENDBRANCH   1  16
TORSDOF 5
ENDMDL
MODEL 4
REMARK VINA RESULT: -6.349040257      2.301      2.707
REMARK  5 active torsions:
REMARK  status: ('A' for Active; 'I' for Inactive)
REMARK    1  A    between atoms: O1_2  and  C2_3 
REMARK    2  A    between atoms: C5_6  and  C6_7 
REMARK    3  A    between atoms: N1_8  and  N2_10 
REMARK    4  A    between atoms: N2_10  and  C7_12 
REMARK    5  A    between atoms: C7_12  and  N3_14 
ROOT
HETATM    1  C6  UNL     1      16.698   5.665  12.388  1.00  0.00     0.120 C 
HETATM    2  N1  UNL     1      17.686   6.462  12.208  1.00  0.00    -0.309 N 
ATOM      3  H1  UNL     1      18.319   6.649  12.986  1.00  0.00     0.186 HD
ENDROOT
BRANCH   2   4
HETATM    4  N2  UNL     1      17.919   7.079  10.986  1.00  0.00    -0.277 N 
ATOM      5  H2  UNL     1      18.423   6.553  10.272  1.00  0.00     0.189 HD
BRANCH   4   6
HETATM    6  C7  UNL     1      17.497   8.397  10.670  1.00  0.00     0.188 C 
HETATM    7  S1  UNL     1      18.604   9.588  10.845  1.00  0.00    -0.039 SA
BRANCH   6   8
HETATM    8  N3  UNL     1      16.207   8.715  10.225  1.00  0.00    -0.354 N 
HETATM    9  C8  UNL     1      15.163   9.006  11.183  1.00  0.00     0.129 C 
HETATM   10  C9  UNL     1      14.145   9.975  10.652  1.00  0.00     0.002 C 
HETATM   11  C10 UNL     1      14.815  11.338  10.526  1.00  0.00     0.011 C 
HETATM   12  C11 UNL     1      13.579   9.577   9.315  1.00  0.00     0.044 C 
HETATM   13  C12 UNL     1      14.398   8.547   8.601  1.00  0.00     0.188 C 
HETATM   14  F1  UNL     1      14.054   7.249   8.931  1.00  0.00    -0.248 F 
HETATM   15  C13 UNL     1      15.886   8.761   8.798  1.00  0.00     0.162 C 
ENDBRANCH   6   8
ENDBRANCH   4   6
ENDBRANCH   2   4
BRANCH   1  16
HETATM   16  C5  UNL     1      16.482   5.038  13.674  1.00  0.00     0.004 A 
HETATM   17  C4  UNL     1      17.170   3.863  13.991  1.00  0.00     0.017 A 
HETATM   18  C3  UNL     1      16.990   3.238  15.206  1.00  0.00     0.039 A 
HETATM   19  C2  UNL     1      16.125   3.751  16.150  1.00  0.00     0.091 A 
HETATM   20  C15 UNL     1      15.448   4.912  15.833  1.00  0.00     0.089 A 
HETATM   21  C14 UNL     1      15.617   5.549  14.624  1.00  0.00     0.070 A 
HETATM   22 CL2  UNL     1      14.349   5.561  17.039  1.00  0.00    -0.080 Cl
HETATM   23 CL1  UNL     1      14.756   7.018  14.230  1.00  0.00    -0.081 Cl
BRANCH  19  24
HETATM   24  O1  UNL     1      15.961   3.104  17.365  1.00  0.00    -0.354 OA
HETATM   25  C1  UNL     1      14.933   2.149  17.542  1.00  0.00     0.210 C 
ENDBRANCH  19  24
ENDBRANCH   1  16
TORSDOF 5
ENDMDL
MODEL 5
REMARK VINA RESULT: -6.335061714      1.061      1.692
REMARK  5 active torsions:
REMARK  status: ('A' for Active; 'I' for Inactive)
REMARK    1  A    between atoms: O1_2  and  C2_3 
REMARK    2  A    between atoms: C5_6  and  C6_7 
REMARK    3  A    between atoms: N1_8  and  N2_10 
REMARK    4  A    between atoms: N2_10  and  C7_12 
REMARK    5  A    between atoms: C7_12  and  N3_14 
ROOT
HETATM    1  C6  UNL     1      17.069   6.060  11.997  1.00  0.00     0.120 C 
HETATM    2  N1  UNL     1      16.549   5.726  10.875  1.00  0.00    -0.309 N 
ATOM      3  H1  UNL     1      15.800   5.032  10.864  1.00  0.00     0.186 HD
ENDROOT
BRANCH   2   4
HETATM    4  N2  UNL     1      16.974   6.280   9.674  1.00  0.00    -0.277 N 
ATOM      5  H2  UNL     1      17.867   5.969   9.292  1.00  0.00     0.189 HD
BRANCH   4   6
HETATM    6  C7  UNL     1      16.239   7.253   8.946  1.00  0.00     0.188 C 
HETATM    7  S1  UNL     1      15.994   6.954   7.357  1.00  0.00    -0.039 SA
BRANCH   6   8
HETATM    8  N3  UNL     1      15.726   8.426   9.514  1.00  0.00    -0.354 N 
HETATM    9  C8  UNL     1      16.611   9.347  10.194  1.00  0.00     0.129 C 
HETATM   10  C9  UNL     1      16.145  10.772  10.100  1.00  0.00     0.002 C 
HETATM   11  C10 UNL     1      16.307  11.224   8.653  1.00  0.00     0.011 C 
HETATM   12  C11 UNL     1      14.713  10.963  10.519  1.00  0.00     0.044 C 
HETATM   13  C12 UNL     1      13.926   9.690  10.563  1.00  0.00     0.188 C 
HETATM   14  F1  UNL     1      14.007   9.038  11.779  1.00  0.00    -0.248 F 
HETATM   15  C13 UNL     1      14.301   8.746   9.436  1.00  0.00     0.162 C 
ENDBRANCH   6   8
ENDBRANCH   4   6
ENDBRANCH   2   4
BRANCH   1  16
HETATM   16  C5  UNL     1      16.604   5.464  13.231  1.00  0.00     0.004 A 
HETATM   17  C4  UNL     1      15.851   6.232  14.124  1.00  0.00     0.017 A 
HETATM   18  C3  UNL     1      15.391   5.699  15.309  1.00  0.00     0.039 A 
HETATM   19  C2  UNL     1      15.658   4.391  15.653  1.00  0.00     0.091 A 
HETATM   20  C15 UNL     1      16.402   3.636  14.768  1.00  0.00     0.089 A 
HETATM   21  C14 UNL     1      16.869   4.154  13.580  1.00  0.00     0.070 A 
HETATM   22 CL2  UNL     1      16.740   1.971  15.211  1.00  0.00    -0.080 Cl
HETATM   23 CL1  UNL     1      17.811   3.192  12.465  1.00  0.00    -0.081 Cl
BRANCH  19  24
HETATM   24  O1  UNL     1      15.184   3.878  16.851  1.00  0.00    -0.354 OA
HETATM   25  C1  UNL     1      13.901   3.288  16.927  1.00  0.00     0.210 C 
ENDBRANCH  19  24
ENDBRANCH   1  16
TORSDOF 5
ENDMDL
