MODEL 1
REMARK VINA RESULT: -10.033525214      0.000      0.000
REMARK  6 active torsions:
REMARK  status: ('A' for Active; 'I' for Inactive)
REMARK       I    between atoms: C1_2  and  N1_3 
REMARK    1  A    between atoms: C1_2  and  C22_33 
REMARK    2  A    between atoms: N1_3  and  C2_5 
REMARK    3  A    between atoms: C7_10  and  N2_11 
REMARK    4  A    between atoms: N2_11  and  C8_13 
REMARK    5  A    between atoms: C9_16  and  C10_17 
REMARK    6  A    between atoms: C15_26  and  C16_27 
ROOT
HETATM    1  N2  UNL     1      40.776  16.158  52.152  1.00  0.00    -0.339 N 
ATOM      2  H2  UNL     1      41.488  16.800  52.499  1.00  0.00     0.167 HD
ENDROOT
BRANCH   1   3
HETATM    3  C7  UNL     1      39.744  15.838  53.058  1.00  0.00     0.060 A 
HETATM    4  C2  UNL     1      40.003  14.934  54.110  1.00  0.00     0.062 A 
HETATM    5  C3  UNL     1      38.976  14.582  54.923  1.00  0.00     0.032 A 
HETATM    6  C4  UNL     1      37.689  15.068  54.769  1.00  0.00     0.002 A 
HETATM    7  C5  UNL     1      37.462  15.933  53.758  1.00  0.00     0.002 A 
HETATM    8  C6  UNL     1      38.475  16.333  52.888  1.00  0.00     0.032 A 
BRANCH   4   9
HETATM    9  N1  UNL     1      41.307  14.480  54.335  1.00  0.00    -0.319 N 
HETATM   10  C1  UNL     1      42.131  14.666  55.456  1.00  0.00     0.280 C 
HETATM   11  O1  UNL     1      41.780  15.293  56.459  1.00  0.00    -0.265 OA
ATOM     12  H1  UNL     1      41.717  13.935  53.577  1.00  0.00     0.169 HD
BRANCH  10  13
HETATM   13  C22 UNL     1      43.507  14.111  55.510  1.00  0.00     0.144 A 
HETATM   14  N6  UNL     1      44.658  14.745  55.541  1.00  0.00    -0.345 N 
HETATM   15  C23 UNL     1      45.774  14.082  55.593  1.00  0.00     0.050 A 
ATOM     16  H6  UNL     1      44.675  15.764  55.523  1.00  0.00     0.167 HD
HETATM   17  C24 UNL     1      47.067  14.634  55.631  1.00  0.00     0.031 A 
HETATM   18  C28 UNL     1      45.698  12.714  55.616  1.00  0.00     0.034 A 
HETATM   19  C25 UNL     1      48.164  13.844  55.686  1.00  0.00     0.002 A 
HETATM   20  C26 UNL     1      48.098  12.470  55.709  1.00  0.00     0.002 A 
HETATM   21  C27 UNL     1      46.846  11.911  55.673  1.00  0.00     0.021 A 
HETATM   22  S1  UNL     1      44.003  12.472  55.558  1.00  0.00    -0.065 SA
ENDBRANCH  10  13
ENDBRANCH   4   9
ENDBRANCH   1   3
BRANCH   1  23
HETATM   23  C8  UNL     1      40.953  15.706  50.834  1.00  0.00     0.135 A 
HETATM   24  N3  UNL     1      40.950  16.501  49.762  1.00  0.00    -0.326 N 
HETATM   25  C9  UNL     1      41.063  15.811  48.635  1.00  0.00     0.117 A 
ATOM     26  H3  UNL     1      40.872  17.517  49.805  1.00  0.00     0.169 HD
HETATM   27  N5  UNL     1      41.141  14.530  48.994  1.00  0.00    -0.338 N 
HETATM   28  C15 UNL     1      41.079  14.413  50.367  1.00  0.00     0.088 A 
ATOM     29  H5  UNL     1      41.234  13.748  48.346  1.00  0.00     0.167 HD
BRANCH  25  30
HETATM   30  C10 UNL     1      41.094  16.336  47.269  1.00  0.00     0.011 A 
HETATM   31  C11 UNL     1      42.304  16.555  46.644  1.00  0.00     0.032 A 
HETATM   32  C12 UNL     1      42.275  17.055  45.344  1.00  0.00     0.088 A 
HETATM   33  N4  UNL     1      41.101  17.315  44.717  1.00  0.00    -0.375 N 
HETATM   34  C13 UNL     1      39.927  17.101  45.326  1.00  0.00     0.088 A 
ATOM     35  H4  UNL     1      41.112  17.680  43.765  1.00  0.00     0.164 HD
HETATM   36  C14 UNL     1      39.900  16.606  46.618  1.00  0.00     0.032 A 
ENDBRANCH  25  30
BRANCH  28  37
HETATM   37  C16 UNL     1      41.100  13.147  51.071  1.00  0.00    -0.006 A 
HETATM   38  C17 UNL     1      42.365  12.634  51.403  1.00  0.00     0.014 A 
HETATM   39  C18 UNL     1      42.530  11.475  52.129  1.00  0.00     0.001 A 
HETATM   40  C19 UNL     1      41.428  10.772  52.559  1.00  0.00     0.000 A 
HETATM   41  C20 UNL     1      40.194  11.268  52.239  1.00  0.00     0.001 A 
HETATM   42  C21 UNL     1      40.037  12.434  51.510  1.00  0.00     0.014 A 
ENDBRANCH  28  37
ENDBRANCH   1  23
TORSDOF 6
ENDMDL
MODEL 2
REMARK VINA RESULT: -9.375479692      2.582      6.330
REMARK  6 active torsions:
REMARK  status: ('A' for Active; 'I' for Inactive)
REMARK       I    between atoms: C1_2  and  N1_3 
REMARK    1  A    between atoms: C1_2  and  C22_33 
REMARK    2  A    between atoms: N1_3  and  C2_5 
REMARK    3  A    between atoms: C7_10  and  N2_11 
REMARK    4  A    between atoms: N2_11  and  C8_13 
REMARK    5  A    between atoms: C9_16  and  C10_17 
REMARK    6  A    between atoms: C15_26  and  C16_27 
ROOT
HETATM    1  N2  UNL     1      41.213  11.851  49.533  1.00  0.00    -0.339 N 
ATOM      2  H2  UNL     1      40.393  11.274  49.350  1.00  0.00     0.167 HD
ENDROOT
BRANCH   1   3
HETATM    3  C7  UNL     1      42.443  11.330  49.079  1.00  0.00     0.060 A 
HETATM    4  C2  UNL     1      43.548  11.305  49.956  1.00  0.00     0.062 A 
HETATM    5  C3  UNL     1      44.740  10.871  49.475  1.00  0.00     0.032 A 
HETATM    6  C4  UNL     1      44.921  10.452  48.168  1.00  0.00     0.002 A 
HETATM    7  C5  UNL     1      43.851  10.482  47.346  1.00  0.00     0.002 A 
HETATM    8  C6  UNL     1      42.600  10.918  47.780  1.00  0.00     0.032 A 
BRANCH   4   9
HETATM    9  N1  UNL     1      43.382  11.655  51.300  1.00  0.00    -0.319 N 
HETATM   10  C1  UNL     1      43.880  12.768  51.995  1.00  0.00     0.280 C 
HETATM   11  O1  UNL     1      44.570  13.644  51.468  1.00  0.00    -0.265 OA
ATOM     12  H1  UNL     1      42.819  11.010  51.854  1.00  0.00     0.169 HD
BRANCH  10  13
HETATM   13  C22 UNL     1      43.605  12.969  53.440  1.00  0.00     0.144 A 
HETATM   14  N6  UNL     1      42.932  13.930  54.031  1.00  0.00    -0.345 N 
HETATM   15  C23 UNL     1      42.790  13.938  55.323  1.00  0.00     0.050 A 
ATOM     16  H6  UNL     1      42.518  14.676  53.473  1.00  0.00     0.167 HD
HETATM   17  C24 UNL     1      42.097  14.900  56.078  1.00  0.00     0.031 A 
HETATM   18  C28 UNL     1      43.364  12.913  56.029  1.00  0.00     0.034 A 
HETATM   19  C25 UNL     1      42.012  14.806  57.424  1.00  0.00     0.002 A 
HETATM   20  C26 UNL     1      42.585  13.782  58.142  1.00  0.00     0.002 A 
HETATM   21  C27 UNL     1      43.266  12.832  57.426  1.00  0.00     0.021 A 
HETATM   22  S1  UNL     1      44.079  11.998  54.770  1.00  0.00    -0.065 SA
ENDBRANCH  10  13
ENDBRANCH   4   9
ENDBRANCH   1   3
BRANCH   1  23
HETATM   23  C8  UNL     1      40.972  13.061  50.204  1.00  0.00     0.135 A 
HETATM   24  N3  UNL     1      40.264  13.166  51.329  1.00  0.00    -0.326 N 
HETATM   25  C9  UNL     1      40.124  14.428  51.711  1.00  0.00     0.117 A 
ATOM     26  H3  UNL     1      39.876  12.370  51.836  1.00  0.00     0.169 HD
HETATM   27  N5  UNL     1      40.766  15.160  50.800  1.00  0.00    -0.338 N 
HETATM   28  C15 UNL     1      41.317  14.346  49.833  1.00  0.00     0.088 A 
ATOM     29  H5  UNL     1      40.839  16.178  50.816  1.00  0.00     0.167 HD
BRANCH  25  30
HETATM   30  C10 UNL     1      39.415  14.930  52.888  1.00  0.00     0.011 A 
HETATM   31  C11 UNL     1      39.177  14.092  53.958  1.00  0.00     0.032 A 
HETATM   32  C12 UNL     1      38.498  14.623  55.052  1.00  0.00     0.088 A 
HETATM   33  N4  UNL     1      38.086  15.914  55.065  1.00  0.00    -0.375 N 
HETATM   34  C13 UNL     1      38.318  16.727  54.026  1.00  0.00     0.088 A 
ATOM     35  H4  UNL     1      37.591  16.274  55.881  1.00  0.00     0.164 HD
HETATM   36  C14 UNL     1      38.988  16.249  52.913  1.00  0.00     0.032 A 
ENDBRANCH  25  30
BRANCH  28  37
HETATM   37  C16 UNL     1      42.046  14.838  48.682  1.00  0.00    -0.006 A 
HETATM   38  C17 UNL     1      41.430  15.858  47.938  1.00  0.00     0.014 A 
HETATM   39  C18 UNL     1      42.039  16.464  46.861  1.00  0.00     0.001 A 
HETATM   40  C19 UNL     1      43.302  16.074  46.478  1.00  0.00     0.000 A 
HETATM   41  C20 UNL     1      43.906  15.082  47.201  1.00  0.00     0.001 A 
HETATM   42  C21 UNL     1      43.288  14.479  48.282  1.00  0.00     0.014 A 
ENDBRANCH  28  37
ENDBRANCH   1  23
TORSDOF 6
ENDMDL
MODEL 3
REMARK VINA RESULT: -9.276368276      2.751      5.035
REMARK  6 active torsions:
REMARK  status: ('A' for Active; 'I' for Inactive)
REMARK       I    between atoms: C1_2  and  N1_3 
REMARK    1  A    between atoms: C1_2  and  C22_33 
REMARK    2  A    between atoms: N1_3  and  C2_5 
REMARK    3  A    between atoms: C7_10  and  N2_11 
REMARK    4  A    between atoms: N2_11  and  C8_13 
REMARK    5  A    between atoms: C9_16  and  C10_17 
REMARK    6  A    between atoms: C15_26  and  C16_27 
ROOT
HETATM    1  N2  UNL     1      42.690  13.818  52.549  1.00  0.00    -0.339 N 
ATOM      2  H2  UNL     1      42.157  13.386  53.303  1.00  0.00     0.167 HD
ENDROOT
BRANCH   1   3
HETATM    3  C7  UNL     1      44.092  13.694  52.641  1.00  0.00     0.060 A 
HETATM    4  C2  UNL     1      44.691  13.556  53.912  1.00  0.00     0.062 A 
HETATM    5  C3  UNL     1      46.045  13.516  53.982  1.00  0.00     0.032 A 
HETATM    6  C4  UNL     1      46.863  13.603  52.869  1.00  0.00     0.002 A 
HETATM    7  C5  UNL     1      46.271  13.732  51.664  1.00  0.00     0.002 A 
HETATM    8  C6  UNL     1      44.885  13.781  51.525  1.00  0.00     0.032 A 
BRANCH   4   9
HETATM    9  N1  UNL     1      43.891  13.396  55.048  1.00  0.00    -0.319 N 
HETATM   10  C1  UNL     1      43.688  14.276  56.122  1.00  0.00     0.280 C 
HETATM   11  O1  UNL     1      44.222  15.385  56.200  1.00  0.00    -0.265 OA
ATOM     12  H1  UNL     1      43.383  12.514  55.104  1.00  0.00     0.169 HD
BRANCH  10  13
HETATM   13  C22 UNL     1      42.799  13.925  57.258  1.00  0.00     0.144 A 
HETATM   14  N6  UNL     1      42.947  14.181  58.538  1.00  0.00    -0.345 N 
HETATM   15  C23 UNL     1      42.051  13.794  59.396  1.00  0.00     0.050 A 
ATOM     16  H6  UNL     1      43.771  14.688  58.861  1.00  0.00     0.167 HD
HETATM   17  C24 UNL     1      42.086  14.003  60.786  1.00  0.00     0.031 A 
HETATM   18  C28 UNL     1      40.962  13.118  58.913  1.00  0.00     0.034 A 
HETATM   19  C25 UNL     1      41.093  13.554  61.587  1.00  0.00     0.002 A 
HETATM   20  C26 UNL     1      39.995  12.874  61.111  1.00  0.00     0.002 A 
HETATM   21  C27 UNL     1      39.941  12.659  59.758  1.00  0.00     0.021 A 
HETATM   22  S1  UNL     1      41.307  13.084  57.234  1.00  0.00    -0.065 SA
ENDBRANCH  10  13
ENDBRANCH   4   9
ENDBRANCH   1   3
BRANCH   1  23
HETATM   23  C8  UNL     1      41.933  14.459  51.556  1.00  0.00     0.135 A 
HETATM   24  N3  UNL     1      42.371  14.704  50.320  1.00  0.00    -0.326 N 
HETATM   25  C9  UNL     1      41.486  15.387  49.607  1.00  0.00     0.117 A 
ATOM     26  H3  UNL     1      43.278  14.401  49.966  1.00  0.00     0.169 HD
HETATM   27  N5  UNL     1      40.442  15.588  50.412  1.00  0.00    -0.338 N 
HETATM   28  C15 UNL     1      40.675  15.022  51.647  1.00  0.00     0.088 A 
ATOM     29  H5  UNL     1      39.593  16.089  50.150  1.00  0.00     0.167 HD
BRANCH  25  30
HETATM   30  C10 UNL     1      41.615  15.837  48.220  1.00  0.00     0.011 A 
HETATM   31  C11 UNL     1      42.749  15.526  47.499  1.00  0.00     0.032 A 
HETATM   32  C12 UNL     1      42.818  15.978  46.183  1.00  0.00     0.088 A 
HETATM   33  N4  UNL     1      41.808  16.696  45.633  1.00  0.00    -0.375 N 
HETATM   34  C13 UNL     1      40.708  16.997  46.335  1.00  0.00     0.088 A 
ATOM     35  H4  UNL     1      41.889  17.013  44.667  1.00  0.00     0.164 HD
HETATM   36  C14 UNL     1      40.589  16.572  47.647  1.00  0.00     0.032 A 
ENDBRANCH  25  30
BRANCH  28  37
HETATM   37  C16 UNL     1      39.748  15.099  52.758  1.00  0.00    -0.006 A 
HETATM   38  C17 UNL     1      38.938  16.246  52.822  1.00  0.00     0.014 A 
HETATM   39  C18 UNL     1      37.968  16.417  53.785  1.00  0.00     0.001 A 
HETATM   40  C19 UNL     1      37.763  15.443  54.734  1.00  0.00     0.000 A 
HETATM   41  C20 UNL     1      38.549  14.325  54.676  1.00  0.00     0.001 A 
HETATM   42  C21 UNL     1      39.520  14.159  53.704  1.00  0.00     0.014 A 
ENDBRANCH  28  37
ENDBRANCH   1  23
TORSDOF 6
ENDMDL
MODEL 4
REMARK VINA RESULT: -9.276199816      2.390      4.814
REMARK  6 active torsions:
REMARK  status: ('A' for Active; 'I' for Inactive)
REMARK       I    between atoms: C1_2  and  N1_3 
REMARK    1  A    between atoms: C1_2  and  C22_33 
REMARK    2  A    between atoms: N1_3  and  C2_5 
REMARK    3  A    between atoms: C7_10  and  N2_11 
REMARK    4  A    between atoms: N2_11  and  C8_13 
REMARK    5  A    between atoms: C9_16  and  C10_17 
REMARK    6  A    between atoms: C15_26  and  C16_27 
ROOT
HETATM    1  N2  UNL     1      43.013  13.560  50.992  1.00  0.00    -0.339 N 
ATOM      2  H2  UNL     1      42.575  12.949  51.680  1.00  0.00     0.167 HD
ENDROOT
BRANCH   1   3
HETATM    3  C7  UNL     1      44.413  13.441  50.870  1.00  0.00     0.060 A 
HETATM    4  C2  UNL     1      45.208  13.404  52.036  1.00  0.00     0.062 A 
HETATM    5  C3  UNL     1      46.557  13.368  51.893  1.00  0.00     0.032 A 
HETATM    6  C4  UNL     1      47.187  13.364  50.661  1.00  0.00     0.002 A 
HETATM    7  C5  UNL     1      46.410  13.398  49.559  1.00  0.00     0.002 A 
HETATM    8  C6  UNL     1      45.019  13.437  49.638  1.00  0.00     0.032 A 
BRANCH   4   9
HETATM    9  N1  UNL     1      44.600  13.336  53.293  1.00  0.00    -0.319 N 
HETATM   10  C1  UNL     1      43.896  14.329  53.994  1.00  0.00     0.280 C 
HETATM   11  O1  UNL     1      43.706  15.464  53.552  1.00  0.00    -0.265 OA
ATOM     12  H1  UNL     1      44.679  12.438  53.770  1.00  0.00     0.169 HD
BRANCH  10  13
HETATM   13  C22 UNL     1      43.324  14.073  55.339  1.00  0.00     0.144 A 
HETATM   14  N6  UNL     1      42.090  13.771  55.673  1.00  0.00    -0.345 N 
HETATM   15  C23 UNL     1      41.772  13.575  56.918  1.00  0.00     0.050 A 
ATOM     16  H6  UNL     1      41.375  13.688  54.950  1.00  0.00     0.167 HD
HETATM   17  C24 UNL     1      40.496  13.247  57.409  1.00  0.00     0.031 A 
HETATM   18  C28 UNL     1      42.767  13.696  57.852  1.00  0.00     0.034 A 
HETATM   19  C25 UNL     1      40.280  13.064  58.731  1.00  0.00     0.002 A 
HETATM   20  C26 UNL     1      41.272  13.184  59.677  1.00  0.00     0.002 A 
HETATM   21  C27 UNL     1      42.525  13.504  59.220  1.00  0.00     0.021 A 
HETATM   22  S1  UNL     1      44.110  14.089  56.862  1.00  0.00    -0.065 SA
ENDBRANCH  10  13
ENDBRANCH   4   9
ENDBRANCH   1   3
BRANCH   1  23
HETATM   23  C8  UNL     1      42.144  14.411  50.290  1.00  0.00     0.135 A 
HETATM   24  N3  UNL     1      42.342  14.815  49.035  1.00  0.00    -0.326 N 
HETATM   25  C9  UNL     1      41.411  15.673  48.638  1.00  0.00     0.117 A 
ATOM     26  H3  UNL     1      43.116  14.502  48.450  1.00  0.00     0.169 HD
HETATM   27  N5  UNL     1      40.585  15.824  49.675  1.00  0.00    -0.338 N 
HETATM   28  C15 UNL     1      41.004  15.050  50.737  1.00  0.00     0.088 A 
ATOM     29  H5  UNL     1      39.763  16.427  49.681  1.00  0.00     0.167 HD
BRANCH  25  30
HETATM   30  C10 UNL     1      41.300  16.327  47.335  1.00  0.00     0.011 A 
HETATM   31  C11 UNL     1      42.439  16.637  46.621  1.00  0.00     0.032 A 
HETATM   32  C12 UNL     1      42.274  17.259  45.385  1.00  0.00     0.088 A 
HETATM   33  N4  UNL     1      41.041  17.548  44.902  1.00  0.00    -0.375 N 
HETATM   34  C13 UNL     1      39.936  17.246  45.597  1.00  0.00     0.088 A 
ATOM     35  H4  UNL     1      40.953  18.003  43.994  1.00  0.00     0.164 HD
HETATM   36  C14 UNL     1      40.044  16.628  46.831  1.00  0.00     0.032 A 
ENDBRANCH  25  30
BRANCH  28  37
HETATM   37  C16 UNL     1      40.341  15.021  52.025  1.00  0.00    -0.006 A 
HETATM   38  C17 UNL     1      40.084  16.264  52.626  1.00  0.00     0.014 A 
HETATM   39  C18 UNL     1      39.402  16.386  53.817  1.00  0.00     0.001 A 
HETATM   40  C19 UNL     1      38.944  15.262  54.464  1.00  0.00     0.000 A 
HETATM   41  C20 UNL     1      39.191  14.049  53.881  1.00  0.00     0.001 A 
HETATM   42  C21 UNL     1      39.876  13.935  52.684  1.00  0.00     0.014 A 
ENDBRANCH  28  37
ENDBRANCH   1  23
TORSDOF 6
ENDMDL
MODEL 5
REMARK VINA RESULT: -9.259614399      2.987      6.974
REMARK  6 active torsions:
REMARK  status: ('A' for Active; 'I' for Inactive)
REMARK       I    between atoms: C1_2  and  N1_3 
REMARK    1  A    between atoms: C1_2  and  C22_33 
REMARK    2  A    between atoms: N1_3  and  C2_5 
REMARK    3  A    between atoms: C7_10  and  N2_11 
REMARK    4  A    between atoms: N2_11  and  C8_13 
REMARK    5  A    between atoms: C9_16  and  C10_17 
REMARK    6  A    between atoms: C15_26  and  C16_27 
ROOT
HETATM    1  N2  UNL     1      41.816  15.483  53.688  1.00  0.00    -0.339 N 
ATOM      2  H2  UNL     1      42.302  16.379  53.671  1.00  0.00     0.167 HD
ENDROOT
BRANCH   1   3
HETATM    3  C7  UNL     1      40.412  15.550  53.813  1.00  0.00     0.060 A 
HETATM    4  C2  UNL     1      39.638  15.945  52.700  1.00  0.00     0.062 A 
HETATM    5  C3  UNL     1      38.298  16.078  52.866  1.00  0.00     0.032 A 
HETATM    6  C4  UNL     1      37.657  15.842  54.070  1.00  0.00     0.002 A 
HETATM    7  C5  UNL     1      38.415  15.464  55.120  1.00  0.00     0.002 A 
HETATM    8  C6  UNL     1      39.796  15.311  55.015  1.00  0.00     0.032 A 
BRANCH   4   9
HETATM    9  N1  UNL     1      40.246  16.122  51.453  1.00  0.00    -0.319 N 
HETATM   10  C1  UNL     1      40.641  15.158  50.513  1.00  0.00     0.280 C 
HETATM   11  O1  UNL     1      40.482  13.946  50.678  1.00  0.00    -0.265 OA
ATOM     12  H1  UNL     1      40.428  17.090  51.189  1.00  0.00     0.169 HD
BRANCH  10  13
HETATM   13  C22 UNL     1      41.289  15.539  49.233  1.00  0.00     0.144 A 
HETATM   14  N6  UNL     1      42.397  15.083  48.695  1.00  0.00    -0.345 N 
HETATM   15  C23 UNL     1      42.811  15.539  47.551  1.00  0.00     0.050 A 
ATOM     16  H6  UNL     1      42.937  14.366  49.179  1.00  0.00     0.167 HD
HETATM   17  C24 UNL     1      43.973  15.139  46.868  1.00  0.00     0.031 A 
HETATM   18  C28 UNL     1      42.050  16.500  46.940  1.00  0.00     0.034 A 
HETATM   19  C25 UNL     1      44.307  15.683  45.676  1.00  0.00     0.002 A 
HETATM   20  C26 UNL     1      43.550  16.649  45.054  1.00  0.00     0.002 A 
HETATM   21  C27 UNL     1      42.412  17.055  45.703  1.00  0.00     0.021 A 
HETATM   22  S1  UNL     1      40.775  16.687  48.069  1.00  0.00    -0.065 SA
ENDBRANCH  10  13
ENDBRANCH   4   9
ENDBRANCH   1   3
BRANCH   1  23
HETATM   23  C8  UNL     1      42.630  14.344  53.584  1.00  0.00     0.135 A 
HETATM   24  N3  UNL     1      43.017  13.801  52.429  1.00  0.00    -0.326 N 
HETATM   25  C9  UNL     1      43.718  12.690  52.613  1.00  0.00     0.117 A 
ATOM     26  H3  UNL     1      42.800  14.194  51.513  1.00  0.00     0.169 HD
HETATM   27  N5  UNL     1      43.784  12.513  53.933  1.00  0.00    -0.338 N 
HETATM   28  C15 UNL     1      43.117  13.528  54.586  1.00  0.00     0.088 A 
ATOM     29  H5  UNL     1      44.261  11.738  54.393  1.00  0.00     0.167 HD
BRANCH  25  30
HETATM   30  C10 UNL     1      44.303  11.825  51.588  1.00  0.00     0.011 A 
HETATM   31  C11 UNL     1      45.000  10.694  51.959  1.00  0.00     0.032 A 
HETATM   32  C12 UNL     1      45.534   9.906  50.941  1.00  0.00     0.088 A 
HETATM   33  N4  UNL     1      45.375  10.239  49.637  1.00  0.00    -0.375 N 
HETATM   34  C13 UNL     1      44.698  11.338  49.279  1.00  0.00     0.088 A 
ATOM     35  H4  UNL     1      45.779   9.643  48.915  1.00  0.00     0.164 HD
HETATM   36  C14 UNL     1      44.147  12.156  50.251  1.00  0.00     0.032 A 
ENDBRANCH  25  30
BRANCH  28  37
HETATM   37  C16 UNL     1      42.974  13.604  56.026  1.00  0.00    -0.006 A 
HETATM   38  C17 UNL     1      43.303  12.446  56.751  1.00  0.00     0.014 A 
HETATM   39  C18 UNL     1      43.277  12.400  58.128  1.00  0.00     0.001 A 
HETATM   40  C19 UNL     1      42.918  13.518  58.846  1.00  0.00     0.000 A 
HETATM   41  C20 UNL     1      42.599  14.647  58.144  1.00  0.00     0.001 A 
HETATM   42  C21 UNL     1      42.628  14.686  56.761  1.00  0.00     0.014 A 
ENDBRANCH  28  37
ENDBRANCH   1  23
TORSDOF 6
ENDMDL
