MODEL 1
REMARK VINA RESULT: -10.264298098      0.000      0.000
REMARK  6 active torsions:
REMARK  status: ('A' for Active; 'I' for Inactive)
REMARK       I    between atoms: C1_2  and  N1_3 
REMARK       I    between atoms: C1_2  and  N5_30 
REMARK    1  A    between atoms: N1_3  and  C2_5 
REMARK    2  A    between atoms: C6_9  and  O2_10 
REMARK    3  A    between atoms: O2_10  and  C7_11 
REMARK    4  A    between atoms: C10_14  and  C11_15 
REMARK    5  A    between atoms: N5_30  and  C20_32 
REMARK    6  A    between atoms: C22_36  and  C23_37 
ROOT
HETATM    1  C2  UNL     1      42.571  14.642  56.707  1.00  0.00     0.039 A 
HETATM    2  C3  UNL     1      43.838  15.057  56.238  1.00  0.00     0.030 A 
HETATM    3  C4  UNL     1      44.166  15.126  54.931  1.00  0.00     0.005 A 
HETATM    4  C5  UNL     1      43.230  14.778  53.976  1.00  0.00     0.037 A 
HETATM    5  C6  UNL     1      42.000  14.372  54.374  1.00  0.00     0.078 A 
HETATM    6  C19 UNL     1      41.677  14.307  55.737  1.00  0.00     0.066 A 
ENDROOT
BRANCH   5   7
HETATM    7  O2  UNL     1      41.013  14.007  53.451  1.00  0.00    -0.309 OA
BRANCH   7   8
HETATM    8  C7  UNL     1      41.087  14.516  52.156  1.00  0.00     0.091 A 
HETATM    9  C8  UNL     1      41.750  13.803  51.184  1.00  0.00     0.041 A 
HETATM   10  C9  UNL     1      41.809  14.326  49.912  1.00  0.00     0.036 A 
HETATM   11  C10 UNL     1      41.220  15.535  49.618  1.00  0.00     0.076 A 
HETATM   12  N4  UNL     1      40.577  16.216  50.582  1.00  0.00    -0.360 N 
HETATM   13  C18 UNL     1      40.498  15.738  51.836  1.00  0.00     0.125 A 
ATOM     14  H4  UNL     1      40.142  17.110  50.359  1.00  0.00     0.165 HD
BRANCH  11  15
HETATM   15  C11 UNL     1      41.296  16.077  48.249  1.00  0.00     0.133 A 
HETATM   16  N2  UNL     1      42.384  16.517  47.601  1.00  0.00    -0.339 N 
HETATM   17  C12 UNL     1      42.022  16.936  46.354  1.00  0.00     0.060 A 
ATOM     18  H2  UNL     1      43.331  16.535  47.980  1.00  0.00     0.167 HD
HETATM   19  C13 UNL     1      42.763  17.470  45.305  1.00  0.00     0.032 A 
HETATM   20  C17 UNL     1      40.665  16.741  46.246  1.00  0.00     0.060 A 
HETATM   21  C14 UNL     1      42.127  17.814  44.131  1.00  0.00     0.002 A 
HETATM   22  C15 UNL     1      40.776  17.628  44.003  1.00  0.00     0.002 A 
HETATM   23  C16 UNL     1      40.060  17.097  45.056  1.00  0.00     0.032 A 
HETATM   24  N3  UNL     1      40.266  16.220  47.414  1.00  0.00    -0.339 N 
ATOM     25  H3  UNL     1      39.303  15.967  47.635  1.00  0.00     0.167 HD
ENDBRANCH  11  15
ENDBRANCH   7   8
ENDBRANCH   5   7
BRANCH   1  26
HETATM   26  N1  UNL     1      42.372  14.593  58.105  1.00  0.00    -0.309 N 
HETATM   27  C1  UNL     1      42.264  13.397  58.865  1.00  0.00     0.325 C 
HETATM   28  O1  UNL     1      42.337  12.304  58.281  1.00  0.00    -0.247 OA
HETATM   29  N5  UNL     1      42.077  13.442  60.254  1.00  0.00    -0.301 N 
ATOM     30  H5  UNL     1      42.021  14.359  60.698  1.00  0.00     0.171 HD
ATOM     31  H1  UNL     1      42.301  15.479  58.604  1.00  0.00     0.170 HD
BRANCH  29  32
HETATM   32  C20 UNL     1      41.961  12.305  61.075  1.00  0.00     0.095 A 
HETATM   33  C21 UNL     1      42.864  11.394  61.525  1.00  0.00     0.126 A 
HETATM   34  N6  UNL     1      42.450  10.427  62.287  1.00  0.00    -0.357 N 
HETATM   35  C22 UNL     1      41.180  10.339  62.613  1.00  0.00     0.086 A 
ATOM     36  H6  UNL     1      43.113   9.734  62.633  1.00  0.00     0.166 HD
HETATM   37  S1  UNL     1      40.501  11.687  61.811  1.00  0.00    -0.052 SA
BRANCH  35  38
HETATM   38  C23 UNL     1      40.510   9.328  63.461  1.00  0.00    -0.002 A 
HETATM   39  C24 UNL     1      39.487   9.698  64.300  1.00  0.00     0.014 A 
HETATM   40  C25 UNL     1      38.852   8.739  65.103  1.00  0.00     0.001 A 
HETATM   41  C26 UNL     1      39.253   7.422  65.053  1.00  0.00     0.000 A 
HETATM   42  C27 UNL     1      40.284   7.091  64.197  1.00  0.00     0.001 A 
HETATM   43  C28 UNL     1      40.921   8.045  63.394  1.00  0.00     0.014 A 
ENDBRANCH  35  38
ENDBRANCH  29  32
ENDBRANCH   1  26
TORSDOF 6
ENDMDL
MODEL 2
REMARK VINA RESULT: -10.164825501      3.357     15.114
REMARK  6 active torsions:
REMARK  status: ('A' for Active; 'I' for Inactive)
REMARK       I    between atoms: C1_2  and  N1_3 
REMARK       I    between atoms: C1_2  and  N5_30 
REMARK    1  A    between atoms: N1_3  and  C2_5 
REMARK    2  A    between atoms: C6_9  and  O2_10 
REMARK    3  A    between atoms: O2_10  and  C7_11 
REMARK    4  A    between atoms: C10_14  and  C11_15 
REMARK    5  A    between atoms: N5_30  and  C20_32 
REMARK    6  A    between atoms: C22_36  and  C23_37 
ROOT
HETATM    1  C2  UNL     1      40.728  15.181  51.911  1.00  0.00     0.039 A 
HETATM    2  C3  UNL     1      40.137  13.902  51.793  1.00  0.00     0.030 A 
HETATM    3  C4  UNL     1      40.217  12.950  52.747  1.00  0.00     0.005 A 
HETATM    4  C5  UNL     1      40.909  13.214  53.913  1.00  0.00     0.037 A 
HETATM    5  C6  UNL     1      41.495  14.425  54.075  1.00  0.00     0.078 A 
HETATM    6  C19 UNL     1      41.402  15.401  53.073  1.00  0.00     0.066 A 
ENDROOT
BRANCH   5   7
HETATM    7  O2  UNL     1      42.209  14.745  55.235  1.00  0.00    -0.309 OA
BRANCH   7   8
HETATM    8  C7  UNL     1      41.993  13.989  56.385  1.00  0.00     0.091 A 
HETATM    9  C8  UNL     1      40.752  14.001  56.981  1.00  0.00     0.041 A 
HETATM   10  C9  UNL     1      40.563  13.246  58.116  1.00  0.00     0.036 A 
HETATM   11  C10 UNL     1      41.589  12.496  58.644  1.00  0.00     0.076 A 
HETATM   12  N4  UNL     1      42.794  12.498  58.047  1.00  0.00    -0.360 N 
HETATM   13  C18 UNL     1      43.017  13.223  56.938  1.00  0.00     0.125 A 
ATOM     14  H4  UNL     1      43.550  11.941  58.442  1.00  0.00     0.165 HD
BRANCH  11  15
HETATM   15  C11 UNL     1      41.365  11.694  59.861  1.00  0.00     0.133 A 
HETATM   16  N2  UNL     1      42.289  11.183  60.686  1.00  0.00    -0.339 N 
HETATM   17  C12 UNL     1      41.664  10.506  61.693  1.00  0.00     0.060 A 
ATOM     18  H2  UNL     1      43.299  11.284  60.580  1.00  0.00     0.167 HD
HETATM   19  C13 UNL     1      42.160   9.806  62.787  1.00  0.00     0.032 A 
HETATM   20  C17 UNL     1      40.311  10.614  61.465  1.00  0.00     0.060 A 
HETATM   21  C14 UNL     1      41.283   9.206  63.665  1.00  0.00     0.002 A 
HETATM   22  C15 UNL     1      39.932   9.301  63.455  1.00  0.00     0.002 A 
HETATM   23  C16 UNL     1      39.461   9.999  62.364  1.00  0.00     0.032 A 
HETATM   24  N3  UNL     1      40.175  11.340  60.348  1.00  0.00    -0.339 N 
ATOM     25  H3  UNL     1      39.281  11.589  59.925  1.00  0.00     0.167 HD
ENDBRANCH  11  15
ENDBRANCH   7   8
ENDBRANCH   5   7
BRANCH   1  26
HETATM   26  N1  UNL     1      40.586  16.072  50.824  1.00  0.00    -0.309 N 
HETATM   27  C1  UNL     1      41.150  15.871  49.535  1.00  0.00     0.325 C 
HETATM   28  O1  UNL     1      41.827  14.852  49.326  1.00  0.00    -0.247 OA
HETATM   29  N5  UNL     1      40.949  16.806  48.509  1.00  0.00    -0.301 N 
ATOM     30  H5  UNL     1      40.388  17.631  48.719  1.00  0.00     0.171 HD
ATOM     31  H1  UNL     1      40.040  16.919  50.975  1.00  0.00     0.170 HD
BRANCH  29  32
HETATM   32  C20 UNL     1      41.473  16.679  47.209  1.00  0.00     0.095 A 
HETATM   33  C21 UNL     1      42.691  16.303  46.736  1.00  0.00     0.126 A 
HETATM   34  N6  UNL     1      42.883  16.283  45.452  1.00  0.00    -0.357 N 
HETATM   35  C22 UNL     1      41.913  16.621  44.631  1.00  0.00     0.086 A 
ATOM     36  H6  UNL     1      43.790  16.005  45.078  1.00  0.00     0.166 HD
HETATM   37  S1  UNL     1      40.638  16.996  45.706  1.00  0.00    -0.052 SA
BRANCH  35  38
HETATM   38  C23 UNL     1      41.925  16.665  43.152  1.00  0.00    -0.002 A 
HETATM   39  C24 UNL     1      40.961  17.371  42.474  1.00  0.00     0.014 A 
HETATM   40  C25 UNL     1      40.972  17.413  41.072  1.00  0.00     0.001 A 
HETATM   41  C26 UNL     1      41.951  16.744  40.370  1.00  0.00     0.000 A 
HETATM   42  C27 UNL     1      42.901  16.046  41.088  1.00  0.00     0.001 A 
HETATM   43  C28 UNL     1      42.892  16.002  42.487  1.00  0.00     0.014 A 
ENDBRANCH  35  38
ENDBRANCH  29  32
ENDBRANCH   1  26
TORSDOF 6
ENDMDL
MODEL 3
REMARK VINA RESULT: -9.826438823      3.744     15.311
REMARK  6 active torsions:
REMARK  status: ('A' for Active; 'I' for Inactive)
REMARK       I    between atoms: C1_2  and  N1_3 
REMARK       I    between atoms: C1_2  and  N5_30 
REMARK    1  A    between atoms: N1_3  and  C2_5 
REMARK    2  A    between atoms: C6_9  and  O2_10 
REMARK    3  A    between atoms: O2_10  and  C7_11 
REMARK    4  A    between atoms: C10_14  and  C11_15 
REMARK    5  A    between atoms: N5_30  and  C20_32 
REMARK    6  A    between atoms: C22_36  and  C23_37 
ROOT
HETATM    1  C2  UNL     1      41.868  14.532  50.109  1.00  0.00     0.039 A 
HETATM    2  C3  UNL     1      41.072  13.372  49.968  1.00  0.00     0.030 A 
HETATM    3  C4  UNL     1      40.208  12.938  50.911  1.00  0.00     0.005 A 
HETATM    4  C5  UNL     1      40.075  13.649  52.088  1.00  0.00     0.037 A 
HETATM    5  C6  UNL     1      40.817  14.768  52.273  1.00  0.00     0.078 A 
HETATM    6  C19 UNL     1      41.708  15.203  51.283  1.00  0.00     0.066 A 
ENDROOT
BRANCH   5   7
HETATM    7  O2  UNL     1      40.723  15.525  53.446  1.00  0.00    -0.309 OA
BRANCH   7   8
HETATM    8  C7  UNL     1      40.831  14.875  54.674  1.00  0.00     0.091 A 
HETATM    9  C8  UNL     1      39.701  14.655  55.427  1.00  0.00     0.041 A 
HETATM   10  C9  UNL     1      39.834  14.010  56.636  1.00  0.00     0.036 A 
HETATM   11  C10 UNL     1      41.068  13.596  57.083  1.00  0.00     0.076 A 
HETATM   12  N4  UNL     1      42.160  13.822  56.332  1.00  0.00    -0.360 N 
HETATM   13  C18 UNL     1      42.070  14.448  55.147  1.00  0.00     0.125 A 
ATOM     14  H4  UNL     1      43.072  13.512  56.668  1.00  0.00     0.165 HD
BRANCH  11  15
HETATM   15  C11 UNL     1      41.188  12.908  58.381  1.00  0.00     0.133 A 
HETATM   16  N2  UNL     1      42.312  12.535  59.009  1.00  0.00    -0.339 N 
HETATM   17  C12 UNL     1      41.986  11.927  60.186  1.00  0.00     0.060 A 
ATOM     18  H2  UNL     1      43.260  12.683  58.663  1.00  0.00     0.167 HD
HETATM   19  C13 UNL     1      42.770  11.370  61.190  1.00  0.00     0.032 A 
HETATM   20  C17 UNL     1      40.612  11.934  60.271  1.00  0.00     0.060 A 
HETATM   21  C14 UNL     1      42.163  10.810  62.294  1.00  0.00     0.002 A 
HETATM   22  C15 UNL     1      40.797  10.806  62.397  1.00  0.00     0.002 A 
HETATM   23  C16 UNL     1      40.038  11.364  61.391  1.00  0.00     0.032 A 
HETATM   24  N3  UNL     1      40.170  12.536  59.159  1.00  0.00    -0.339 N 
ATOM     25  H3  UNL     1      39.187  12.690  58.936  1.00  0.00     0.167 HD
ENDBRANCH  11  15
ENDBRANCH   7   8
ENDBRANCH   5   7
BRANCH   1  26
HETATM   26  N1  UNL     1      42.747  14.856  49.053  1.00  0.00    -0.309 N 
HETATM   27  C1  UNL     1      42.337  15.276  47.759  1.00  0.00     0.325 C 
HETATM   28  O1  UNL     1      41.124  15.364  47.510  1.00  0.00    -0.247 OA
HETATM   29  N5  UNL     1      43.283  15.587  46.770  1.00  0.00    -0.301 N 
ATOM     30  H5  UNL     1      44.270  15.502  47.011  1.00  0.00     0.171 HD
ATOM     31  H1  UNL     1      43.749  14.783  49.232  1.00  0.00     0.170 HD
BRANCH  29  32
HETATM   32  C20 UNL     1      42.957  16.009  45.468  1.00  0.00     0.095 A 
HETATM   33  C21 UNL     1      43.210  15.490  44.237  1.00  0.00     0.126 A 
HETATM   34  N6  UNL     1      42.771  16.120  43.191  1.00  0.00    -0.357 N 
HETATM   35  C22 UNL     1      42.094  17.239  43.326  1.00  0.00     0.086 A 
ATOM     36  H6  UNL     1      42.952  15.746  42.259  1.00  0.00     0.166 HD
HETATM   37  S1  UNL     1      42.058  17.441  45.023  1.00  0.00    -0.052 SA
BRANCH  35  38
HETATM   38  C23 UNL     1      41.512  18.102  42.275  1.00  0.00    -0.002 A 
HETATM   39  C24 UNL     1      42.215  18.358  41.123  1.00  0.00     0.014 A 
HETATM   40  C25 UNL     1      41.663  19.175  40.126  1.00  0.00     0.001 A 
HETATM   41  C26 UNL     1      40.411  19.726  40.301  1.00  0.00     0.000 A 
HETATM   42  C27 UNL     1      39.738  19.445  41.471  1.00  0.00     0.001 A 
HETATM   43  C28 UNL     1      40.286  18.630  42.469  1.00  0.00     0.014 A 
ENDBRANCH  35  38
ENDBRANCH  29  32
ENDBRANCH   1  26
TORSDOF 6
ENDMDL
MODEL 4
REMARK VINA RESULT: -9.731362475      1.181      1.583
REMARK  6 active torsions:
REMARK  status: ('A' for Active; 'I' for Inactive)
REMARK       I    between atoms: C1_2  and  N1_3 
REMARK       I    between atoms: C1_2  and  N5_30 
REMARK    1  A    between atoms: N1_3  and  C2_5 
REMARK    2  A    between atoms: C6_9  and  O2_10 
REMARK    3  A    between atoms: O2_10  and  C7_11 
REMARK    4  A    between atoms: C10_14  and  C11_15 
REMARK    5  A    between atoms: N5_30  and  C20_32 
REMARK    6  A    between atoms: C22_36  and  C23_37 
ROOT
HETATM    1  C2  UNL     1      40.463  14.240  56.325  1.00  0.00     0.039 A 
HETATM    2  C3  UNL     1      39.175  14.744  56.033  1.00  0.00     0.030 A 
HETATM    3  C4  UNL     1      38.639  14.758  54.795  1.00  0.00     0.005 A 
HETATM    4  C5  UNL     1      39.368  14.255  53.734  1.00  0.00     0.037 A 
HETATM    5  C6  UNL     1      40.609  13.760  53.960  1.00  0.00     0.078 A 
HETATM    6  C19 UNL     1      41.149  13.755  55.253  1.00  0.00     0.066 A 
ENDROOT
BRANCH   5   7
HETATM    7  O2  UNL     1      41.392  13.240  52.923  1.00  0.00    -0.309 OA
BRANCH   7   8
HETATM    8  C7  UNL     1      41.373  13.878  51.685  1.00  0.00     0.091 A 
HETATM    9  C8  UNL     1      41.356  13.124  50.533  1.00  0.00     0.041 A 
HETATM   10  C9  UNL     1      41.338  13.779  49.322  1.00  0.00     0.036 A 
HETATM   11  C10 UNL     1      41.337  15.153  49.262  1.00  0.00     0.076 A 
HETATM   12  N4  UNL     1      41.354  15.871  50.399  1.00  0.00    -0.360 N 
HETATM   13  C18 UNL     1      41.373  15.269  51.600  1.00  0.00     0.125 A 
ATOM     14  H4  UNL     1      41.354  16.889  50.349  1.00  0.00     0.165 HD
BRANCH  11  15
HETATM   15  C11 UNL     1      41.318  15.834  47.954  1.00  0.00     0.133 A 
HETATM   16  N2  UNL     1      42.358  16.346  47.282  1.00  0.00    -0.339 N 
HETATM   17  C12 UNL     1      41.911  16.888  46.113  1.00  0.00     0.060 A 
ATOM     18  H2  UNL     1      43.329  16.333  47.595  1.00  0.00     0.167 HD
HETATM   19  C13 UNL     1      42.577  17.532  45.076  1.00  0.00     0.032 A 
HETATM   20  C17 UNL     1      40.550  16.694  46.078  1.00  0.00     0.060 A 
HETATM   21  C14 UNL     1      41.862  17.990  43.989  1.00  0.00     0.002 A 
HETATM   22  C15 UNL     1      40.505  17.807  43.936  1.00  0.00     0.002 A 
HETATM   23  C16 UNL     1      39.864  17.166  44.975  1.00  0.00     0.032 A 
HETATM   24  N3  UNL     1      40.232  16.054  47.211  1.00  0.00    -0.339 N 
ATOM     25  H3  UNL     1      39.287  15.771  47.471  1.00  0.00     0.167 HD
ENDBRANCH  11  15
ENDBRANCH   7   8
ENDBRANCH   5   7
BRANCH   1  26
HETATM   26  N1  UNL     1      40.908  14.312  57.663  1.00  0.00    -0.309 N 
HETATM   27  C1  UNL     1      40.905  13.222  58.575  1.00  0.00     0.325 C 
HETATM   28  O1  UNL     1      40.477  12.120  58.197  1.00  0.00    -0.247 OA
HETATM   29  N5  UNL     1      41.377  13.381  59.887  1.00  0.00    -0.301 N 
ATOM     30  H5  UNL     1      41.720  14.302  60.162  1.00  0.00     0.171 HD
ATOM     31  H1  UNL     1      41.257  15.209  57.998  1.00  0.00     0.170 HD
BRANCH  29  32
HETATM   32  C20 UNL     1      41.407  12.354  60.848  1.00  0.00     0.095 A 
HETATM   33  C21 UNL     1      42.423  11.686  61.456  1.00  0.00     0.126 A 
HETATM   34  N6  UNL     1      42.134  10.763  62.322  1.00  0.00    -0.357 N 
HETATM   35  C22 UNL     1      40.880  10.486  62.602  1.00  0.00     0.086 A 
ATOM     36  H6  UNL     1      42.883  10.251  62.788  1.00  0.00     0.166 HD
HETATM   37  S1  UNL     1      40.031  11.577  61.596  1.00  0.00    -0.052 SA
BRANCH  35  38
HETATM   38  C23 UNL     1      40.342   9.483  63.548  1.00  0.00    -0.002 A 
HETATM   39  C24 UNL     1      39.473   9.867  64.541  1.00  0.00     0.014 A 
HETATM   40  C25 UNL     1      38.962   8.917  65.438  1.00  0.00     0.001 A 
HETATM   41  C26 UNL     1      39.332   7.594  65.325  1.00  0.00     0.000 A 
HETATM   42  C27 UNL     1      40.206   7.250  64.315  1.00  0.00     0.001 A 
HETATM   43  C28 UNL     1      40.718   8.196  63.418  1.00  0.00     0.014 A 
ENDBRANCH  35  38
ENDBRANCH  29  32
ENDBRANCH   1  26
TORSDOF 6
ENDMDL
MODEL 5
REMARK VINA RESULT: -9.713170854      1.709      2.781
REMARK  6 active torsions:
REMARK  status: ('A' for Active; 'I' for Inactive)
REMARK       I    between atoms: C1_2  and  N1_3 
REMARK       I    between atoms: C1_2  and  N5_30 
REMARK    1  A    between atoms: N1_3  and  C2_5 
REMARK    2  A    between atoms: C6_9  and  O2_10 
REMARK    3  A    between atoms: O2_10  and  C7_11 
REMARK    4  A    between atoms: C10_14  and  C11_15 
REMARK    5  A    between atoms: N5_30  and  C20_32 
REMARK    6  A    between atoms: C22_36  and  C23_37 
ROOT
HETATM    1  C2  UNL     1      41.983  12.910  58.022  1.00  0.00     0.039 A 
HETATM    2  C3  UNL     1      42.849  14.020  58.145  1.00  0.00     0.030 A 
HETATM    3  C4  UNL     1      42.766  15.123  57.372  1.00  0.00     0.005 A 
HETATM    4  C5  UNL     1      41.788  15.198  56.399  1.00  0.00     0.037 A 
HETATM    5  C6  UNL     1      40.933  14.160  56.240  1.00  0.00     0.078 A 
HETATM    6  C19 UNL     1      41.034  13.022  57.052  1.00  0.00     0.066 A 
ENDROOT
BRANCH   5   7
HETATM    7  O2  UNL     1      39.924  14.182  55.269  1.00  0.00    -0.309 OA
BRANCH   7   8
HETATM    8  C7  UNL     1      40.269  14.473  53.951  1.00  0.00     0.091 A 
HETATM    9  C8  UNL     1      39.769  15.608  53.354  1.00  0.00     0.041 A 
HETATM   10  C9  UNL     1      40.125  15.873  52.051  1.00  0.00     0.036 A 
HETATM   11  C10 UNL     1      40.959  15.025  51.360  1.00  0.00     0.076 A 
HETATM   12  N4  UNL     1      41.436  13.921  51.962  1.00  0.00    -0.360 N 
HETATM   13  C18 UNL     1      41.112  13.628  53.233  1.00  0.00     0.125 A 
ATOM     14  H4  UNL     1      42.055  13.297  51.446  1.00  0.00     0.165 HD
BRANCH  11  15
HETATM   15  C11 UNL     1      41.328  15.328  49.965  1.00  0.00     0.133 A 
HETATM   16  N2  UNL     1      40.743  16.204  49.136  1.00  0.00    -0.339 N 
HETATM   17  C12 UNL     1      41.388  16.181  47.934  1.00  0.00     0.060 A 
ATOM     18  H2  UNL     1      39.942  16.792  49.366  1.00  0.00     0.167 HD
HETATM   19  C13 UNL     1      41.178  16.889  46.756  1.00  0.00     0.032 A 
HETATM   20  C17 UNL     1      42.402  15.258  48.044  1.00  0.00     0.060 A 
HETATM   21  C14 UNL     1      41.999  16.662  45.672  1.00  0.00     0.002 A 
HETATM   22  C15 UNL     1      43.014  15.746  45.760  1.00  0.00     0.002 A 
HETATM   23  C16 UNL     1      43.205  15.055  46.938  1.00  0.00     0.032 A 
HETATM   24  N3  UNL     1      42.329  14.766  49.288  1.00  0.00    -0.339 N 
ATOM     25  H3  UNL     1      42.956  14.056  49.667  1.00  0.00     0.167 HD
ENDBRANCH  11  15
ENDBRANCH   7   8
ENDBRANCH   5   7
BRANCH   1  26
HETATM   26  N1  UNL     1      42.199  11.810  58.881  1.00  0.00    -0.309 N 
HETATM   27  C1  UNL     1      41.411  11.509  60.024  1.00  0.00     0.325 C 
HETATM   28  O1  UNL     1      40.462  12.255  60.316  1.00  0.00    -0.247 OA
HETATM   29  N5  UNL     1      41.692  10.387  60.817  1.00  0.00    -0.301 N 
ATOM     30  H5  UNL     1      42.480   9.798  60.547  1.00  0.00     0.171 HD
ATOM     31  H1  UNL     1      42.978  11.187  58.666  1.00  0.00     0.170 HD
BRANCH  29  32
HETATM   32  C20 UNL     1      40.960  10.022  61.962  1.00  0.00     0.095 A 
HETATM   33  C21 UNL     1      40.403  10.743  62.972  1.00  0.00     0.126 A 
HETATM   34  N6  UNL     1      39.772  10.112  63.915  1.00  0.00    -0.357 N 
HETATM   35  C22 UNL     1      39.675   8.802  63.887  1.00  0.00     0.086 A 
ATOM     36  H6  UNL     1      39.349  10.636  64.681  1.00  0.00     0.166 HD
HETATM   37  S1  UNL     1      40.518   8.404  62.454  1.00  0.00    -0.052 SA
BRANCH  35  38
HETATM   38  C23 UNL     1      39.006   7.901  64.852  1.00  0.00    -0.002 A 
HETATM   39  C24 UNL     1      39.330   6.567  64.890  1.00  0.00     0.014 A 
HETATM   40  C25 UNL     1      38.696   5.713  65.805  1.00  0.00     0.001 A 
HETATM   41  C26 UNL     1      37.745   6.212  66.669  1.00  0.00     0.000 A 
HETATM   42  C27 UNL     1      37.449   7.557  66.599  1.00  0.00     0.001 A 
HETATM   43  C28 UNL     1      38.079   8.412  65.686  1.00  0.00     0.014 A 
ENDBRANCH  35  38
ENDBRANCH  29  32
ENDBRANCH   1  26
TORSDOF 6
ENDMDL
