MODEL 1
REMARK VINA RESULT: -9.172607797      0.000      0.000
REMARK  10 active torsions:
REMARK  status: ('A' for Active; 'I' for Inactive)
REMARK    1  A    between atoms: C1_2  and  C2_3 
REMARK       I    between atoms: C1_2  and  N1_11 
REMARK    2  A    between atoms: C2_3  and  C3_4 
REMARK    3  A    between atoms: N1_11  and  C7_13 
REMARK    4  A    between atoms: C8_14  and  O4_15 
REMARK    5  A    between atoms: C9_17  and  C10_18 
REMARK    6  A    between atoms: C10_18  and  O5_19 
REMARK    7  A    between atoms: C11_22  and  C12_23 
REMARK    8  A    between atoms: C12_23  and  N2_24 
REMARK       I    between atoms: N2_24  and  C13_26 
REMARK    9  A    between atoms: C13_26  and  C14_28 
REMARK   10  A    between atoms: C20_34  and  O8_35 
ROOT
HETATM    1  C7  UNL     1      15.345  14.695  15.911  1.00  0.00     0.147 C 
HETATM    2  C8  UNL     1      14.118  15.359  15.360  1.00  0.00     0.174 C 
HETATM    3  C9  UNL     1      13.639  16.345  16.399  1.00  0.00     0.176 C 
HETATM    4  O6  UNL     1      13.467  15.872  17.643  1.00  0.00    -0.371 OA
HETATM    5  C11 UNL     1      14.299  14.962  18.190  1.00  0.00     0.170 C 
HETATM    6  C20 UNL     1      15.063  14.089  17.240  1.00  0.00     0.174 C 
ENDROOT
BRANCH   1   7
HETATM    7  N1  UNL     1      15.851  13.651  15.037  1.00  0.00    -0.351 N 
HETATM    8  C1  UNL     1      16.696  13.894  13.941  1.00  0.00     0.220 C 
HETATM    9  O1  UNL     1      17.058  15.050  13.666  1.00  0.00    -0.274 OA
ATOM     10  H1  UNL     1      15.576  12.687  15.230  1.00  0.00     0.163 HD
BRANCH   8  11
HETATM   11  C2  UNL     1      17.167  12.782  13.101  1.00  0.00     0.137 C 
BRANCH  11  12
HETATM   12  C3  UNL     1      18.427  12.143  13.695  1.00  0.00     0.154 C 
HETATM   13  C4  UNL     1      19.488  13.167  13.744  1.00  0.00     0.201 C 
HETATM   14  O2  UNL     1      20.074  13.359  14.984  1.00  0.00    -0.370 OA
HETATM   15  C5  UNL     1      20.266  12.122  15.561  1.00  0.00     0.217 C 
HETATM   16  S1  UNL     1      21.109  10.951  14.466  1.00  0.00    -0.061 SA
HETATM   17  C6  UNL     1      18.915  11.574  15.896  1.00  0.00     0.212 C 
HETATM   18  O3  UNL     1      18.078  11.522  14.837  1.00  0.00    -0.380 OA
ENDBRANCH  11  12
ENDBRANCH   8  11
ENDBRANCH   1   7
BRANCH   2  19
HETATM   19  O4  UNL     1      14.470  16.119  14.223  1.00  0.00    -0.391 OA
ATOM     20  H4  UNL     1      14.039  15.758  13.457  1.00  0.00     0.210 HD
ENDBRANCH   2  19
BRANCH   6  21
HETATM   21  O8  UNL     1      14.393  12.875  17.024  1.00  0.00    -0.391 OA
ATOM     22  H8  UNL     1      15.034  12.177  17.077  1.00  0.00     0.210 HD
ENDBRANCH   6  21
BRANCH   3  23
HETATM   23  C10 UNL     1      14.436  17.650  16.314  1.00  0.00     0.198 C 
BRANCH  23  24
HETATM   24  O5  UNL     1      13.706  18.544  15.543  1.00  0.00    -0.398 OA
ATOM     25  H5  UNL     1      14.122  19.396  15.613  1.00  0.00     0.209 HD
ENDBRANCH  23  24
ENDBRANCH   3  23
BRANCH   5  26
HETATM   26  C12 UNL     1      15.285  15.625  19.119  1.00  0.00     0.157 C 
BRANCH  26  27
HETATM   27  N2  UNL     1      16.635  15.124  19.031  1.00  0.00    -0.354 N 
HETATM   28  C13 UNL     1      17.738  15.934  19.347  1.00  0.00     0.251 C 
HETATM   29  O7  UNL     1      17.572  17.111  19.720  1.00  0.00    -0.268 OA
ATOM     30  H2  UNL     1      16.793  14.160  18.734  1.00  0.00     0.162 HD
BRANCH  28  31
HETATM   31  C14 UNL     1      19.089  15.414  19.242  1.00  0.00     0.032 A 
HETATM   32  C15 UNL     1      20.225  16.043  19.684  1.00  0.00     0.017 A 
HETATM   33  C16 UNL     1      21.497  15.487  19.548  1.00  0.00     0.001 A 
HETATM   34  C17 UNL     1      21.672  14.259  18.954  1.00  0.00     0.000 A 
HETATM   35  C18 UNL     1      20.539  13.616  18.506  1.00  0.00     0.001 A 
HETATM   36  C19 UNL     1      19.285  14.164  18.639  1.00  0.00     0.017 A 
ENDBRANCH  28  31
ENDBRANCH  26  27
ENDBRANCH   5  26
TORSDOF 10
ENDMDL
MODEL 2
REMARK VINA RESULT: -8.918245068      0.998      1.312
REMARK  10 active torsions:
REMARK  status: ('A' for Active; 'I' for Inactive)
REMARK    1  A    between atoms: C1_2  and  C2_3 
REMARK       I    between atoms: C1_2  and  N1_11 
REMARK    2  A    between atoms: C2_3  and  C3_4 
REMARK    3  A    between atoms: N1_11  and  C7_13 
REMARK    4  A    between atoms: C8_14  and  O4_15 
REMARK    5  A    between atoms: C9_17  and  C10_18 
REMARK    6  A    between atoms: C10_18  and  O5_19 
REMARK    7  A    between atoms: C11_22  and  C12_23 
REMARK    8  A    between atoms: C12_23  and  N2_24 
REMARK       I    between atoms: N2_24  and  C13_26 
REMARK    9  A    between atoms: C13_26  and  C14_28 
REMARK   10  A    between atoms: C20_34  and  O8_35 
ROOT
HETATM    1  C7  UNL     1      15.265  14.738  15.993  1.00  0.00     0.147 C 
HETATM    2  C8  UNL     1      14.053  15.391  15.396  1.00  0.00     0.174 C 
HETATM    3  C9  UNL     1      13.552  16.403  16.398  1.00  0.00     0.176 C 
HETATM    4  O6  UNL     1      13.349  15.961  17.649  1.00  0.00    -0.371 OA
HETATM    5  C11 UNL     1      14.164  15.064  18.239  1.00  0.00     0.170 C 
HETATM    6  C20 UNL     1      14.949  14.166  17.330  1.00  0.00     0.174 C 
ENDROOT
BRANCH   1   7
HETATM    7  N1  UNL     1      15.788  13.671  15.158  1.00  0.00    -0.351 N 
HETATM    8  C1  UNL     1      16.659  13.885  14.075  1.00  0.00     0.220 C 
HETATM    9  O1  UNL     1      17.028  15.034  13.778  1.00  0.00    -0.274 OA
ATOM     10  H1  UNL     1      15.508  12.713  15.369  1.00  0.00     0.163 HD
BRANCH   8  11
HETATM   11  C2  UNL     1      17.146  12.752  13.275  1.00  0.00     0.137 C 
BRANCH  11  12
HETATM   12  C3  UNL     1      18.508  12.267  13.786  1.00  0.00     0.154 C 
HETATM   13  C4  UNL     1      18.649  10.838  13.446  1.00  0.00     0.201 C 
HETATM   14  O2  UNL     1      19.791  10.506  12.737  1.00  0.00    -0.370 OA
HETATM   15  C5  UNL     1      20.848  11.206  13.277  1.00  0.00     0.217 C 
HETATM   16  S1  UNL     1      20.965  11.040  15.077  1.00  0.00    -0.061 SA
HETATM   17  C6  UNL     1      20.640  12.649  12.943  1.00  0.00     0.212 C 
HETATM   18  O3  UNL     1      19.445  13.130  13.351  1.00  0.00    -0.380 OA
ENDBRANCH  11  12
ENDBRANCH   8  11
ENDBRANCH   1   7
BRANCH   2  19
HETATM   19  O4  UNL     1      14.434  16.122  14.249  1.00  0.00    -0.391 OA
ATOM     20  H4  UNL     1      14.560  17.034  14.485  1.00  0.00     0.210 HD
ENDBRANCH   2  19
BRANCH   6  21
HETATM   21  O8  UNL     1      14.281  12.949  17.128  1.00  0.00    -0.391 OA
ATOM     22  H8  UNL     1      14.353  12.728  16.207  1.00  0.00     0.210 HD
ENDBRANCH   6  21
BRANCH   3  23
HETATM   23  C10 UNL     1      14.354  17.704  16.301  1.00  0.00     0.198 C 
BRANCH  23  24
HETATM   24  O5  UNL     1      13.672  18.560  15.448  1.00  0.00    -0.398 OA
ATOM     25  H5  UNL     1      13.820  19.450  15.749  1.00  0.00     0.209 HD
ENDBRANCH  23  24
ENDBRANCH   3  23
BRANCH   5  26
HETATM   26  C12 UNL     1      15.129  15.747  19.175  1.00  0.00     0.157 C 
BRANCH  26  27
HETATM   27  N2  UNL     1      16.442  15.149  19.239  1.00  0.00    -0.354 N 
HETATM   28  C13 UNL     1      17.541  15.725  18.580  1.00  0.00     0.251 C 
HETATM   29  O7  UNL     1      17.407  16.777  17.927  1.00  0.00    -0.268 OA
ATOM     30  H2  UNL     1      16.574  14.291  19.774  1.00  0.00     0.162 HD
BRANCH  28  31
HETATM   31  C14 UNL     1      18.850  15.102  18.649  1.00  0.00     0.032 A 
HETATM   32  C15 UNL     1      19.889  15.511  19.445  1.00  0.00     0.017 A 
HETATM   33  C16 UNL     1      21.127  14.867  19.460  1.00  0.00     0.001 A 
HETATM   34  C17 UNL     1      21.364  13.773  18.662  1.00  0.00     0.000 A 
HETATM   35  C18 UNL     1      20.328  13.351  17.857  1.00  0.00     0.001 A 
HETATM   36  C19 UNL     1      19.108  13.987  17.842  1.00  0.00     0.017 A 
ENDBRANCH  28  31
ENDBRANCH  26  27
ENDBRANCH   5  26
TORSDOF 10
ENDMDL
MODEL 3
REMARK VINA RESULT: -8.702029525      1.065      1.457
REMARK  10 active torsions:
REMARK  status: ('A' for Active; 'I' for Inactive)
REMARK    1  A    between atoms: C1_2  and  C2_3 
REMARK       I    between atoms: C1_2  and  N1_11 
REMARK    2  A    between atoms: C2_3  and  C3_4 
REMARK    3  A    between atoms: N1_11  and  C7_13 
REMARK    4  A    between atoms: C8_14  and  O4_15 
REMARK    5  A    between atoms: C9_17  and  C10_18 
REMARK    6  A    between atoms: C10_18  and  O5_19 
REMARK    7  A    between atoms: C11_22  and  C12_23 
REMARK    8  A    between atoms: C12_23  and  N2_24 
REMARK       I    between atoms: N2_24  and  C13_26 
REMARK    9  A    between atoms: C13_26  and  C14_28 
REMARK   10  A    between atoms: C20_34  and  O8_35 
ROOT
HETATM    1  C7  UNL     1      14.762  15.080  16.159  1.00  0.00     0.147 C 
HETATM    2  C8  UNL     1      13.767  15.903  15.396  1.00  0.00     0.174 C 
HETATM    3  C9  UNL     1      13.197  16.918  16.357  1.00  0.00     0.176 C 
HETATM    4  O6  UNL     1      12.709  16.444  17.514  1.00  0.00    -0.371 OA
HETATM    5  C11 UNL     1      13.293  15.427  18.179  1.00  0.00     0.170 C 
HETATM    6  C20 UNL     1      14.135  14.486  17.370  1.00  0.00     0.174 C 
ENDROOT
BRANCH   1   7
HETATM    7  N1  UNL     1      15.317  14.000  15.362  1.00  0.00    -0.351 N 
HETATM    8  C1  UNL     1      16.286  14.188  14.361  1.00  0.00     0.220 C 
HETATM    9  O1  UNL     1      16.721  15.324  14.109  1.00  0.00    -0.274 OA
ATOM     10  H1  UNL     1      14.985  13.052  15.538  1.00  0.00     0.163 HD
BRANCH   8  11
HETATM   11  C2  UNL     1      16.799  13.043  13.595  1.00  0.00     0.137 C 
BRANCH  11  12
HETATM   12  C3  UNL     1      17.976  12.382  14.322  1.00  0.00     0.154 C 
HETATM   13  C4  UNL     1      18.836  11.729  13.316  1.00  0.00     0.201 C 
HETATM   14  O2  UNL     1      20.171  12.095  13.346  1.00  0.00    -0.370 OA
HETATM   15  C5  UNL     1      20.564  12.165  14.665  1.00  0.00     0.217 C 
HETATM   16  S1  UNL     1      20.133  10.683  15.614  1.00  0.00    -0.061 SA
HETATM   17  C6  UNL     1      19.868  13.341  15.274  1.00  0.00     0.212 C 
HETATM   18  O3  UNL     1      18.525  13.299  15.141  1.00  0.00    -0.380 OA
ENDBRANCH  11  12
ENDBRANCH   8  11
ENDBRANCH   1   7
BRANCH   2  19
HETATM   19  O4  UNL     1      14.439  16.637  14.394  1.00  0.00    -0.391 OA
ATOM     20  H4  UNL     1      14.341  17.567  14.567  1.00  0.00     0.210 HD
ENDBRANCH   2  19
BRANCH   6  21
HETATM   21  O8  UNL     1      13.389  13.370  16.962  1.00  0.00    -0.391 OA
ATOM     22  H8  UNL     1      12.470  13.610  16.986  1.00  0.00     0.210 HD
ENDBRANCH   6  21
BRANCH   3  23
HETATM   23  C10 UNL     1      14.140  18.116  16.501  1.00  0.00     0.198 C 
BRANCH  23  24
HETATM   24  O5  UNL     1      13.799  19.045  15.529  1.00  0.00    -0.398 OA
ATOM     25  H5  UNL     1      14.574  19.219  15.008  1.00  0.00     0.209 HD
ENDBRANCH  23  24
ENDBRANCH   3  23
BRANCH   5  26
HETATM   26  C12 UNL     1      14.129  15.942  19.324  1.00  0.00     0.157 C 
BRANCH  26  27
HETATM   27  N2  UNL     1      15.499  15.487  19.330  1.00  0.00    -0.354 N 
HETATM   28  C13 UNL     1      16.571  16.395  19.345  1.00  0.00     0.251 C 
HETATM   29  O7  UNL     1      16.360  17.623  19.361  1.00  0.00    -0.268 OA
ATOM     30  H2  UNL     1      15.693  14.486  19.324  1.00  0.00     0.162 HD
BRANCH  28  31
HETATM   31  C14 UNL     1      17.941  15.917  19.341  1.00  0.00     0.032 A 
HETATM   32  C15 UNL     1      18.408  14.832  18.645  1.00  0.00     0.017 A 
HETATM   33  C16 UNL     1      19.741  14.423  18.688  1.00  0.00     0.001 A 
HETATM   34  C17 UNL     1      20.664  15.105  19.444  1.00  0.00     0.000 A 
HETATM   35  C18 UNL     1      20.210  16.199  20.149  1.00  0.00     0.001 A 
HETATM   36  C19 UNL     1      18.895  16.601  20.107  1.00  0.00     0.017 A 
ENDBRANCH  28  31
ENDBRANCH  26  27
ENDBRANCH   5  26
TORSDOF 10
ENDMDL
MODEL 4
REMARK VINA RESULT: -8.481152939      1.561      1.909
REMARK  10 active torsions:
REMARK  status: ('A' for Active; 'I' for Inactive)
REMARK    1  A    between atoms: C1_2  and  C2_3 
REMARK       I    between atoms: C1_2  and  N1_11 
REMARK    2  A    between atoms: C2_3  and  C3_4 
REMARK    3  A    between atoms: N1_11  and  C7_13 
REMARK    4  A    between atoms: C8_14  and  O4_15 
REMARK    5  A    between atoms: C9_17  and  C10_18 
REMARK    6  A    between atoms: C10_18  and  O5_19 
REMARK    7  A    between atoms: C11_22  and  C12_23 
REMARK    8  A    between atoms: C12_23  and  N2_24 
REMARK       I    between atoms: N2_24  and  C13_26 
REMARK    9  A    between atoms: C13_26  and  C14_28 
REMARK   10  A    between atoms: C20_34  and  O8_35 
ROOT
HETATM    1  C7  UNL     1      15.772  15.047  15.801  1.00  0.00     0.147 C 
HETATM    2  C8  UNL     1      14.624  15.179  14.843  1.00  0.00     0.174 C 
HETATM    3  C9  UNL     1      13.404  15.542  15.656  1.00  0.00     0.176 C 
HETATM    4  O6  UNL     1      13.125  14.754  16.706  1.00  0.00    -0.371 OA
HETATM    5  C11 UNL     1      14.088  14.231  17.491  1.00  0.00     0.170 C 
HETATM    6  C20 UNL     1      15.448  14.075  16.879  1.00  0.00     0.174 C 
ENDROOT
BRANCH   1   7
HETATM    7  N1  UNL     1      16.992  14.607  15.146  1.00  0.00    -0.351 N 
HETATM    8  C1  UNL     1      18.281  14.951  15.588  1.00  0.00     0.220 C 
HETATM    9  O1  UNL     1      18.435  15.669  16.590  1.00  0.00    -0.274 OA
ATOM     10  H1  UNL     1      16.907  14.015  14.320  1.00  0.00     0.163 HD
BRANCH   8  11
HETATM   11  C2  UNL     1      19.469  14.465  14.871  1.00  0.00     0.137 C 
BRANCH  11  12
HETATM   12  C3  UNL     1      19.239  13.051  14.327  1.00  0.00     0.154 C 
HETATM   13  C4  UNL     1      20.509  12.560  13.758  1.00  0.00     0.201 C 
HETATM   14  O2  UNL     1      20.951  11.343  14.249  1.00  0.00    -0.370 OA
HETATM   15  C5  UNL     1      19.861  10.506  14.357  1.00  0.00     0.217 C 
HETATM   16  S1  UNL     1      18.871  10.430  12.842  1.00  0.00    -0.061 SA
HETATM   17  C6  UNL     1      19.003  11.036  15.462  1.00  0.00     0.212 C 
HETATM   18  O3  UNL     1      18.643  12.327  15.292  1.00  0.00    -0.380 OA
ENDBRANCH  11  12
ENDBRANCH   8  11
ENDBRANCH   1   7
BRANCH   2  19
HETATM   19  O4  UNL     1      14.862  16.268  13.976  1.00  0.00    -0.391 OA
ATOM     20  H4  UNL     1      15.664  16.707  14.236  1.00  0.00     0.210 HD
ENDBRANCH   2  19
BRANCH   6  21
HETATM   21  O8  UNL     1      15.617  12.784  16.356  1.00  0.00    -0.391 OA
ATOM     22  H8  UNL     1      16.482  12.480  16.608  1.00  0.00     0.210 HD
ENDBRANCH   6  21
BRANCH   3  23
HETATM   23  C10 UNL     1      13.381  17.043  15.957  1.00  0.00     0.198 C 
BRANCH  23  24
HETATM   24  O5  UNL     1      12.058  17.461  15.932  1.00  0.00    -0.398 OA
ATOM     25  H5  UNL     1      12.030  18.314  15.513  1.00  0.00     0.209 HD
ENDBRANCH  23  24
ENDBRANCH   3  23
BRANCH   5  26
HETATM   26  C12 UNL     1      14.233  15.024  18.766  1.00  0.00     0.157 C 
BRANCH  26  27
HETATM   27  N2  UNL     1      15.582  15.123  19.271  1.00  0.00    -0.354 N 
HETATM   28  C13 UNL     1      16.295  16.333  19.218  1.00  0.00     0.251 C 
HETATM   29  O7  UNL     1      15.772  17.356  18.738  1.00  0.00    -0.268 OA
ATOM     30  H2  UNL     1      16.026  14.298  19.674  1.00  0.00     0.162 HD
BRANCH  28  31
HETATM   31  C14 UNL     1      17.654  16.408  19.722  1.00  0.00     0.032 A 
HETATM   32  C15 UNL     1      18.191  17.460  20.419  1.00  0.00     0.017 A 
HETATM   33  C16 UNL     1      19.510  17.470  20.873  1.00  0.00     0.001 A 
HETATM   34  C17 UNL     1      20.346  16.405  20.638  1.00  0.00     0.000 A 
HETATM   35  C18 UNL     1      19.820  15.340  19.938  1.00  0.00     0.001 A 
HETATM   36  C19 UNL     1      18.520  15.331  19.490  1.00  0.00     0.017 A 
ENDBRANCH  28  31
ENDBRANCH  26  27
ENDBRANCH   5  26
TORSDOF 10
ENDMDL
MODEL 5
REMARK VINA RESULT: -8.443908755      1.522      1.963
REMARK  10 active torsions:
REMARK  status: ('A' for Active; 'I' for Inactive)
REMARK    1  A    between atoms: C1_2  and  C2_3 
REMARK       I    between atoms: C1_2  and  N1_11 
REMARK    2  A    between atoms: C2_3  and  C3_4 
REMARK    3  A    between atoms: N1_11  and  C7_13 
REMARK    4  A    between atoms: C8_14  and  O4_15 
REMARK    5  A    between atoms: C9_17  and  C10_18 
REMARK    6  A    between atoms: C10_18  and  O5_19 
REMARK    7  A    between atoms: C11_22  and  C12_23 
REMARK    8  A    between atoms: C12_23  and  N2_24 
REMARK       I    between atoms: N2_24  and  C13_26 
REMARK    9  A    between atoms: C13_26  and  C14_28 
REMARK   10  A    between atoms: C20_34  and  O8_35 
ROOT
HETATM    1  C7  UNL     1      15.138  14.199  16.898  1.00  0.00     0.147 C 
HETATM    2  C8  UNL     1      14.259  14.563  15.738  1.00  0.00     0.174 C 
HETATM    3  C9  UNL     1      13.433  15.754  16.160  1.00  0.00     0.176 C 
HETATM    4  O6  UNL     1      12.758  15.639  17.314  1.00  0.00    -0.371 OA
HETATM    5  C11 UNL     1      13.270  15.004  18.388  1.00  0.00     0.170 C 
HETATM    6  C20 UNL     1      14.325  13.972  18.123  1.00  0.00     0.174 C 
ENDROOT
BRANCH   1   7
HETATM    7  N1  UNL     1      15.921  13.002  16.647  1.00  0.00    -0.351 N 
HETATM    8  C1  UNL     1      17.251  13.021  16.192  1.00  0.00     0.220 C 
HETATM    9  O1  UNL     1      17.830  14.099  15.979  1.00  0.00    -0.274 OA
ATOM     10  H1  UNL     1      15.480  12.096  16.810  1.00  0.00     0.163 HD
BRANCH   8  11
HETATM   11  C2  UNL     1      17.978  11.764  15.961  1.00  0.00     0.137 C 
BRANCH  11  12
HETATM   12  C3  UNL     1      18.902  11.883  14.743  1.00  0.00     0.154 C 
HETATM   13  C4  UNL     1      20.236  11.379  15.120  1.00  0.00     0.201 C 
HETATM   14  O2  UNL     1      20.750  10.387  14.303  1.00  0.00    -0.370 OA
HETATM   15  C5  UNL     1      20.472  10.724  12.996  1.00  0.00     0.217 C 
HETATM   16  S1  UNL     1      20.962  12.418  12.580  1.00  0.00    -0.061 SA
HETATM   17  C6  UNL     1      18.994  10.595  12.809  1.00  0.00     0.212 C 
HETATM   18  O3  UNL     1      18.274  11.324  13.691  1.00  0.00    -0.380 OA
ENDBRANCH  11  12
ENDBRANCH   8  11
ENDBRANCH   1   7
BRANCH   2  19
HETATM   19  O4  UNL     1      15.064  14.998  14.662  1.00  0.00    -0.391 OA
ATOM     20  H4  UNL     1      15.225  15.931  14.747  1.00  0.00     0.210 HD
ENDBRANCH   2  19
BRANCH   6  21
HETATM   21  O8  UNL     1      13.762  12.690  18.031  1.00  0.00    -0.391 OA
ATOM     22  H8  UNL     1      14.209  12.132  18.656  1.00  0.00     0.210 HD
ENDBRANCH   6  21
BRANCH   3  23
HETATM   23  C10 UNL     1      14.236  17.049  16.012  1.00  0.00     0.198 C 
BRANCH  23  24
HETATM   24  O5  UNL     1      13.720  17.748  14.930  1.00  0.00    -0.398 OA
ATOM     25  H5  UNL     1      12.862  18.074  15.176  1.00  0.00     0.209 HD
ENDBRANCH  23  24
ENDBRANCH   3  23
BRANCH   5  26
HETATM   26  C12 UNL     1      13.816  15.991  19.388  1.00  0.00     0.157 C 
BRANCH  26  27
HETATM   27  N2  UNL     1      15.205  15.802  19.734  1.00  0.00    -0.354 N 
HETATM   28  C13 UNL     1      16.209  16.636  19.213  1.00  0.00     0.251 C 
HETATM   29  O7  UNL     1      15.919  17.569  18.441  1.00  0.00    -0.268 OA
ATOM     30  H2  UNL     1      15.463  15.047  20.370  1.00  0.00     0.162 HD
BRANCH  28  31
HETATM   31  C14 UNL     1      17.601  16.422  19.566  1.00  0.00     0.032 A 
HETATM   32  C15 UNL     1      18.359  17.241  20.362  1.00  0.00     0.017 A 
HETATM   33  C16 UNL     1      19.696  16.977  20.659  1.00  0.00     0.001 A 
HETATM   34  C17 UNL     1      20.325  15.863  20.157  1.00  0.00     0.000 A 
HETATM   35  C18 UNL     1      19.575  15.030  19.355  1.00  0.00     0.001 A 
HETATM   36  C19 UNL     1      18.256  15.290  19.062  1.00  0.00     0.017 A 
ENDBRANCH  28  31
ENDBRANCH  26  27
ENDBRANCH   5  26
TORSDOF 10
ENDMDL
