MODEL 1
REMARK VINA RESULT: -6.714836332      0.000      0.000
REMARK  3 active torsions:
REMARK  status: ('A' for Active; 'I' for Inactive)
REMARK    1  A    between atoms: O1_1  and  C1_3 
REMARK    2  A    between atoms: C3_5  and  O2_6 
REMARK    3  A    between atoms: O2_6  and  C4_7 
ROOT
HETATM    1  C1  UNL     1      13.255  16.943   0.344  1.00  0.00     0.259 C 
HETATM    2  C2  UNL     1      11.813  16.517   0.403  1.00  0.00     0.094 C 
HETATM    3  C3  UNL     1      11.628  16.204   1.886  1.00  0.00     0.150 C 
HETATM    4  C10 UNL     1      12.892  16.733   2.475  1.00  0.00     0.203 C 
HETATM    5  O3  UNL     1      13.383  17.677   1.547  1.00  0.00    -0.359 OA
ENDROOT
BRANCH   3   6
HETATM    6  O2  UNL     1      11.451  14.854   2.007  1.00  0.00    -0.378 OA
BRANCH   6   7
HETATM    7  C4  UNL     1      10.252  14.457   2.532  1.00  0.00     0.122 C 
HETATM    8  C5  UNL     1       9.809  15.368   3.654  1.00  0.00     0.032 C 
HETATM    9  C6  UNL     1       8.406  15.048   4.094  1.00  0.00     0.002 C 
HETATM   10  C7  UNL     1       7.415  15.031   2.982  1.00  0.00     0.000 C 
HETATM   11  C8  UNL     1       7.858  14.229   1.800  1.00  0.00     0.002 C 
HETATM   12  C9  UNL     1       9.268  14.423   1.397  1.00  0.00     0.032 C 
ENDBRANCH   6   7
ENDBRANCH   3   6
BRANCH   1  13
HETATM   13  O1  UNL     1      14.075  15.818   0.435  1.00  0.00    -0.371 OA
ATOM     14  H1  UNL     1      14.927  16.073   0.767  1.00  0.00     0.212 HD
ENDBRANCH   1  13
TORSDOF 3
ENDMDL
MODEL 2
REMARK VINA RESULT: -6.660280197      0.935      1.016
REMARK  3 active torsions:
REMARK  status: ('A' for Active; 'I' for Inactive)
REMARK    1  A    between atoms: O1_1  and  C1_3 
REMARK    2  A    between atoms: C3_5  and  O2_6 
REMARK    3  A    between atoms: O2_6  and  C4_7 
ROOT
HETATM    1  C1  UNL     1      13.742  16.820   1.667  1.00  0.00     0.259 C 
HETATM    2  C2  UNL     1      12.243  16.799   1.785  1.00  0.00     0.094 C 
HETATM    3  C3  UNL     1      12.003  15.568   2.655  1.00  0.00     0.150 C 
HETATM    4  C10 UNL     1      13.385  15.231   3.103  1.00  0.00     0.203 C 
HETATM    5  O3  UNL     1      14.134  16.420   2.965  1.00  0.00    -0.359 OA
ENDROOT
BRANCH   3   6
HETATM    6  O2  UNL     1      11.397  14.621   1.878  1.00  0.00    -0.378 OA
BRANCH   6   7
HETATM    7  C4  UNL     1      10.140  14.246   2.269  1.00  0.00     0.122 C 
HETATM    8  C5  UNL     1       9.735  14.929   3.555  1.00  0.00     0.032 C 
HETATM    9  C6  UNL     1       8.287  14.670   3.876  1.00  0.00     0.002 C 
HETATM   10  C7  UNL     1       7.354  15.003   2.763  1.00  0.00     0.000 C 
HETATM   11  C8  UNL     1       7.774  14.440   1.443  1.00  0.00     0.002 C 
HETATM   12  C9  UNL     1       9.214  14.568   1.130  1.00  0.00     0.032 C 
ENDBRANCH   6   7
ENDBRANCH   3   6
BRANCH   1  13
HETATM   13  O1  UNL     1      14.150  15.834   0.768  1.00  0.00    -0.371 OA
ATOM     14  H1  UNL     1      14.325  16.229  -0.077  1.00  0.00     0.212 HD
ENDBRANCH   1  13
TORSDOF 3
ENDMDL
MODEL 3
REMARK VINA RESULT: -6.394460879      1.380      1.971
REMARK  3 active torsions:
REMARK  status: ('A' for Active; 'I' for Inactive)
REMARK    1  A    between atoms: O1_1  and  C1_3 
REMARK    2  A    between atoms: C3_5  and  O2_6 
REMARK    3  A    between atoms: O2_6  and  C4_7 
ROOT
HETATM    1  C1  UNL     1      13.983  16.896   1.783  1.00  0.00     0.259 C 
HETATM    2  C2  UNL     1      12.488  16.945   1.946  1.00  0.00     0.094 C 
HETATM    3  C3  UNL     1      12.207  15.670   2.738  1.00  0.00     0.150 C 
HETATM    4  C10 UNL     1      13.581  15.232   3.119  1.00  0.00     0.203 C 
HETATM    5  O3  UNL     1      14.389  16.388   3.039  1.00  0.00    -0.359 OA
ENDROOT
BRANCH   3   6
HETATM    6  O2  UNL     1      11.531  14.811   1.917  1.00  0.00    -0.378 OA
BRANCH   6   7
HETATM    7  C4  UNL     1      10.196  15.070   1.758  1.00  0.00     0.122 C 
HETATM    8  C5  UNL     1       9.819  15.153   0.297  1.00  0.00     0.032 C 
HETATM    9  C6  UNL     1       8.327  15.241   0.123  1.00  0.00     0.002 C 
HETATM   10  C7  UNL     1       7.575  14.159   0.820  1.00  0.00     0.000 C 
HETATM   11  C8  UNL     1       7.992  13.964   2.243  1.00  0.00     0.002 C 
HETATM   12  C9  UNL     1       9.451  13.984   2.483  1.00  0.00     0.032 C 
ENDBRANCH   6   7
ENDBRANCH   3   6
BRANCH   1  13
HETATM   13  O1  UNL     1      14.313  15.955   0.808  1.00  0.00    -0.371 OA
ATOM     14  H1  UNL     1      14.724  15.204   1.220  1.00  0.00     0.212 HD
ENDBRANCH   1  13
TORSDOF 3
ENDMDL
MODEL 4
REMARK VINA RESULT: -6.192344541      1.144      1.912
REMARK  3 active torsions:
REMARK  status: ('A' for Active; 'I' for Inactive)
REMARK    1  A    between atoms: O1_1  and  C1_3 
REMARK    2  A    between atoms: C3_5  and  O2_6 
REMARK    3  A    between atoms: O2_6  and  C4_7 
ROOT
HETATM    1  C1  UNL     1      14.032  16.775   1.873  1.00  0.00     0.259 C 
HETATM    2  C2  UNL     1      12.618  17.017   2.326  1.00  0.00     0.094 C 
HETATM    3  C3  UNL     1      12.311  15.748   3.119  1.00  0.00     0.150 C 
HETATM    4  C10 UNL     1      13.654  15.108   3.211  1.00  0.00     0.203 C 
HETATM    5  O3  UNL     1      14.590  16.146   3.010  1.00  0.00    -0.359 OA
ENDROOT
BRANCH   3   6
HETATM    6  O2  UNL     1      11.375  15.037   2.421  1.00  0.00    -0.378 OA
BRANCH   6   7
HETATM    7  C4  UNL     1      10.074  15.410   2.623  1.00  0.00     0.122 C 
HETATM    8  C5  UNL     1       9.121  14.556   1.818  1.00  0.00     0.032 C 
HETATM    9  C6  UNL     1       7.691  14.836   2.192  1.00  0.00     0.002 C 
HETATM   10  C7  UNL     1       7.417  14.730   3.653  1.00  0.00     0.000 C 
HETATM   11  C8  UNL     1       8.402  15.470   4.500  1.00  0.00     0.002 C 
HETATM   12  C9  UNL     1       9.819  15.319   4.102  1.00  0.00     0.032 C 
ENDBRANCH   6   7
ENDBRANCH   3   6
BRANCH   1  13
HETATM   13  O1  UNL     1      14.033  15.855   0.825  1.00  0.00    -0.371 OA
ATOM     14  H1  UNL     1      14.573  15.110   1.059  1.00  0.00     0.212 HD
ENDBRANCH   1  13
TORSDOF 3
ENDMDL
MODEL 5
REMARK VINA RESULT: -6.181323475      1.071      1.674
REMARK  3 active torsions:
REMARK  status: ('A' for Active; 'I' for Inactive)
REMARK    1  A    between atoms: O1_1  and  C1_3 
REMARK    2  A    between atoms: C3_5  and  O2_6 
REMARK    3  A    between atoms: O2_6  and  C4_7 
ROOT
HETATM    1  C1  UNL     1      13.189  16.909   0.373  1.00  0.00     0.259 C 
HETATM    2  C2  UNL     1      11.772  16.442   0.561  1.00  0.00     0.094 C 
HETATM    3  C3  UNL     1      11.709  16.195   2.067  1.00  0.00     0.150 C 
HETATM    4  C10 UNL     1      12.994  16.791   2.532  1.00  0.00     0.203 C 
HETATM    5  O3  UNL     1      13.381  17.704   1.527  1.00  0.00    -0.359 OA
ENDROOT
BRANCH   3   6
HETATM    6  O2  UNL     1      11.589  14.848   2.262  1.00  0.00    -0.378 OA
BRANCH   6   7
HETATM    7  C4  UNL     1      10.374  14.421   2.726  1.00  0.00     0.122 C 
HETATM    8  C5  UNL     1      10.455  13.017   3.281  1.00  0.00     0.032 C 
HETATM    9  C6  UNL     1       9.173  12.628   3.965  1.00  0.00     0.002 C 
HETATM   10  C7  UNL     1       8.723  13.600   5.001  1.00  0.00     0.000 C 
HETATM   11  C8  UNL     1       8.732  15.019   4.532  1.00  0.00     0.002 C 
HETATM   12  C9  UNL     1       9.923  15.421   3.753  1.00  0.00     0.032 C 
ENDBRANCH   6   7
ENDBRANCH   3   6
BRANCH   1  13
HETATM   13  O1  UNL     1      14.052  15.816   0.452  1.00  0.00    -0.371 OA
ATOM     14  H1  UNL     1      14.668  15.846  -0.271  1.00  0.00     0.212 HD
ENDBRANCH   1  13
TORSDOF 3
ENDMDL
