MODEL 1
REMARK VINA RESULT: -6.372034218      0.000      0.000
REMARK  13 active torsions:
REMARK  status: ('A' for Active; 'I' for Inactive)
REMARK    1  A    between atoms: C2_2  and  C3_3 
REMARK    2  A    between atoms: C3_3  and  C4_4 
REMARK    3  A    between atoms: C4_4  and  N1_5 
REMARK    4  A    between atoms: C6_8  and  C7_9 
REMARK    5  A    between atoms: C7_9  and  C8_10 
REMARK       I    between atoms: N2_12  and  C10_14 
REMARK    6  A    between atoms: C10_14  and  C11_16 
REMARK    7  A    between atoms: C11_16  and  N3_18 
REMARK       I    between atoms: N3_18  and  C13_20 
REMARK    8  A    between atoms: C13_20  and  C14_22 
REMARK    9  A    between atoms: C14_22  and  N4_24 
REMARK       I    between atoms: N4_24  and  C16_26 
REMARK   10  A    between atoms: C16_26  and  C17_28 
REMARK   11  A    between atoms: C21_32  and  O5_33 
REMARK   12  A    between atoms: N5_35  and  C22_36 
REMARK   13  A    between atoms: C22_36  and  C23_37 
ROOT
HETATM    1  C7  UNL     1      -1.300   3.700  20.822  1.00  0.00     0.032 C 
HETATM    2  N2  UNL     1      -1.672   4.526  19.893  1.00  0.00    -0.328 N 
ATOM      3  H2  UNL     1      -2.088   4.095  19.067  1.00  0.00     0.168 HD
HETATM    4  C10 UNL     1      -1.583   5.916  19.861  1.00  0.00     0.244 C 
HETATM    5  O2  UNL     1      -0.519   6.596  19.972  1.00  0.00    -0.271 OA
ENDROOT
BRANCH   1   6
HETATM    6  C6  UNL     1      -1.502   2.268  20.618  1.00  0.00     0.106 A 
HETATM    7  C5  UNL     1      -0.379   1.484  20.253  1.00  0.00     0.268 A 
HETATM    8  N1  UNL     1      -0.453   0.159  20.104  1.00  0.00    -0.265 N 
HETATM    9  O1  UNL     1       0.691   2.114  20.077  1.00  0.00    -0.267 OA
HETATM   10  C26 UNL     1      -1.618  -0.470  20.300  1.00  0.00     0.333 A 
HETATM   11  N5  UNL     1      -2.704   0.230  20.646  1.00  0.00    -0.278 N 
HETATM   12  O6  UNL     1      -1.684  -1.748  20.151  1.00  0.00    -0.246 OA
HETATM   13  C21 UNL     1      -2.643   1.589  20.803  1.00  0.00     0.164 A 
BRANCH   8  14
HETATM   14  C4  UNL     1       0.705  -0.573  19.726  1.00  0.00     0.137 C 
BRANCH  14  15
HETATM   15  C3  UNL     1       0.906  -0.853  18.288  1.00  0.00     0.020 C 
BRANCH  15  16
HETATM   16  C2  UNL     1       1.642  -2.096  17.934  1.00  0.00    -0.003 C 
HETATM   17  C1  UNL     1       3.030  -1.978  18.593  1.00  0.00     0.005 C 
ENDBRANCH  15  16
ENDBRANCH  14  15
ENDBRANCH   8  14
BRANCH  11  18
HETATM   18  C22 UNL     1      -3.944  -0.432  20.858  1.00  0.00     0.140 C 
BRANCH  18  19
HETATM   19  C23 UNL     1      -4.881  -0.530  19.713  1.00  0.00    -0.004 C 
HETATM   20  C24 UNL     1      -6.254   0.043  19.939  1.00  0.00     0.011 C 
HETATM   21  C25 UNL     1      -5.032  -1.897  19.100  1.00  0.00     0.011 C 
ENDBRANCH  18  19
ENDBRANCH  11  18
BRANCH  13  22
HETATM   22  O5  UNL     1      -3.831   2.258  21.172  1.00  0.00    -0.345 OA
ATOM     23  H5  UNL     1      -3.885   2.735  21.992  1.00  0.00     0.219 HD
ENDBRANCH  13  22
ENDBRANCH   1   6
BRANCH   1  24
HETATM   24  C8  UNL     1      -0.794   4.277  22.070  1.00  0.00     0.054 C 
HETATM   25  C9  UNL     1      -1.193   3.391  23.245  1.00  0.00     0.011 C 
ENDBRANCH   1  24
BRANCH   4  26
HETATM   26  C11 UNL     1      -2.822   6.749  19.678  1.00  0.00     0.172 C 
HETATM   27  C12 UNL     1      -2.386   8.212  19.741  1.00  0.00     0.042 C 
BRANCH  26  28
HETATM   28  N3  UNL     1      -3.816   6.505  20.705  1.00  0.00    -0.346 N 
HETATM   29  C13 UNL     1      -4.721   5.443  20.572  1.00  0.00     0.240 C 
HETATM   30  O3  UNL     1      -4.689   4.674  19.553  1.00  0.00    -0.271 OA
ATOM     31  H3  UNL     1      -3.856   7.107  21.528  1.00  0.00     0.163 HD
BRANCH  29  32
HETATM   32  C14 UNL     1      -5.751   5.169  21.594  1.00  0.00     0.172 C 
HETATM   33  C15 UNL     1      -6.847   4.277  21.020  1.00  0.00     0.042 C 
BRANCH  32  34
HETATM   34  N4  UNL     1      -5.150   4.578  22.761  1.00  0.00    -0.348 N 
HETATM   35  C16 UNL     1      -5.754   4.473  24.010  1.00  0.00     0.226 C 
HETATM   36  O4  UNL     1      -6.907   4.895  24.239  1.00  0.00    -0.273 OA
ATOM     37  H4  UNL     1      -4.204   4.207  22.664  1.00  0.00     0.163 HD
BRANCH  35  38
HETATM   38  C17 UNL     1      -5.000   3.829  25.137  1.00  0.00     0.030 C 
HETATM   39  C18 UNL     1      -4.538   2.470  24.645  1.00  0.00     0.024 C 
HETATM   40  C19 UNL     1      -3.856   4.698  25.545  1.00  0.00     0.024 C 
HETATM   41  C20 UNL     1      -5.888   3.582  26.329  1.00  0.00     0.024 C 
ENDBRANCH  35  38
ENDBRANCH  32  34
ENDBRANCH  29  32
ENDBRANCH  26  28
ENDBRANCH   4  26
TORSDOF 13
ENDMDL
MODEL 2
REMARK VINA RESULT: -6.316857205      2.354      7.880
REMARK  13 active torsions:
REMARK  status: ('A' for Active; 'I' for Inactive)
REMARK    1  A    between atoms: C2_2  and  C3_3 
REMARK    2  A    between atoms: C3_3  and  C4_4 
REMARK    3  A    between atoms: C4_4  and  N1_5 
REMARK    4  A    between atoms: C6_8  and  C7_9 
REMARK    5  A    between atoms: C7_9  and  C8_10 
REMARK       I    between atoms: N2_12  and  C10_14 
REMARK    6  A    between atoms: C10_14  and  C11_16 
REMARK    7  A    between atoms: C11_16  and  N3_18 
REMARK       I    between atoms: N3_18  and  C13_20 
REMARK    8  A    between atoms: C13_20  and  C14_22 
REMARK    9  A    between atoms: C14_22  and  N4_24 
REMARK       I    between atoms: N4_24  and  C16_26 
REMARK   10  A    between atoms: C16_26  and  C17_28 
REMARK   11  A    between atoms: C21_32  and  O5_33 
REMARK   12  A    between atoms: N5_35  and  C22_36 
REMARK   13  A    between atoms: C22_36  and  C23_37 
ROOT
HETATM    1  C7  UNL     1      -1.106   2.343  22.686  1.00  0.00     0.032 C 
HETATM    2  N2  UNL     1      -1.120   1.084  22.373  1.00  0.00    -0.328 N 
ATOM      3  H2  UNL     1      -1.775   0.825  21.635  1.00  0.00     0.168 HD
HETATM    4  C10 UNL     1      -0.369   0.035  22.901  1.00  0.00     0.244 C 
HETATM    5  O2  UNL     1      -0.337  -0.318  24.118  1.00  0.00    -0.271 OA
ENDROOT
BRANCH   1   6
HETATM    6  C6  UNL     1      -2.000   3.257  21.979  1.00  0.00     0.106 A 
HETATM    7  C5  UNL     1      -1.421   4.194  21.087  1.00  0.00     0.268 A 
HETATM    8  N1  UNL     1      -2.160   5.028  20.351  1.00  0.00    -0.265 N 
HETATM    9  O1  UNL     1      -0.168   4.193  21.032  1.00  0.00    -0.267 OA
HETATM   10  C26 UNL     1      -3.495   4.995  20.444  1.00  0.00     0.333 A 
HETATM   11  N5  UNL     1      -4.084   4.127  21.273  1.00  0.00    -0.278 N 
HETATM   12  O6  UNL     1      -4.203   5.805  19.735  1.00  0.00    -0.246 OA
HETATM   13  C21 UNL     1      -3.338   3.265  22.034  1.00  0.00     0.164 A 
BRANCH   8  14
HETATM   14  C4  UNL     1      -1.522   5.955  19.482  1.00  0.00     0.137 C 
BRANCH  14  15
HETATM   15  C3  UNL     1      -1.389   7.353  19.941  1.00  0.00     0.020 C 
BRANCH  15  16
HETATM   16  C2  UNL     1      -1.870   8.419  19.022  1.00  0.00    -0.003 C 
HETATM   17  C1  UNL     1      -3.069   9.085  19.724  1.00  0.00     0.005 C 
ENDBRANCH  15  16
ENDBRANCH  14  15
ENDBRANCH   8  14
BRANCH  11  18
HETATM   18  C22 UNL     1      -5.501   4.084  21.376  1.00  0.00     0.140 C 
BRANCH  18  19
HETATM   19  C23 UNL     1      -6.254   3.408  20.292  1.00  0.00    -0.004 C 
HETATM   20  C24 UNL     1      -7.642   3.929  20.035  1.00  0.00     0.011 C 
HETATM   21  C25 UNL     1      -6.319   1.906  20.373  1.00  0.00     0.011 C 
ENDBRANCH  18  19
ENDBRANCH  11  18
BRANCH  13  22
HETATM   22  O5  UNL     1      -4.033   2.375  22.882  1.00  0.00    -0.345 OA
ATOM     23  H5  UNL     1      -4.958   2.495  23.061  1.00  0.00     0.219 HD
ENDBRANCH  13  22
ENDBRANCH   1   6
BRANCH   1  24
HETATM   24  C8  UNL     1      -0.109   2.781  23.666  1.00  0.00     0.054 C 
HETATM   25  C9  UNL     1      -0.795   3.551  24.789  1.00  0.00     0.011 C 
ENDBRANCH   1  24
BRANCH   4  26
HETATM   26  C11 UNL     1       0.503  -0.797  22.002  1.00  0.00     0.172 C 
HETATM   27  C12 UNL     1       1.839  -0.976  22.722  1.00  0.00     0.042 C 
BRANCH  26  28
HETATM   28  N3  UNL     1       0.736  -0.172  20.714  1.00  0.00    -0.346 N 
HETATM   29  C13 UNL     1      -0.077  -0.491  19.619  1.00  0.00     0.240 C 
HETATM   30  O3  UNL     1      -1.035  -1.328  19.731  1.00  0.00    -0.271 OA
ATOM     31  H3  UNL     1       1.495   0.501  20.606  1.00  0.00     0.163 HD
BRANCH  29  32
HETATM   32  C14 UNL     1       0.135   0.121  18.291  1.00  0.00     0.172 C 
HETATM   33  C15 UNL     1       1.405   0.965  18.292  1.00  0.00     0.042 C 
BRANCH  32  34
HETATM   34  N4  UNL     1       0.181  -0.898  17.275  1.00  0.00    -0.348 N 
HETATM   35  C16 UNL     1      -0.728  -1.032  16.230  1.00  0.00     0.226 C 
HETATM   36  O4  UNL     1      -1.696  -0.258  16.075  1.00  0.00    -0.273 OA
ATOM     37  H4  UNL     1       0.942  -1.576  17.326  1.00  0.00     0.163 HD
BRANCH  35  38
HETATM   38  C17 UNL     1      -0.550  -2.148  15.243  1.00  0.00     0.030 C 
HETATM   39  C18 UNL     1      -0.209  -1.512  13.908  1.00  0.00     0.024 C 
HETATM   40  C19 UNL     1       0.519  -3.077  15.713  1.00  0.00     0.024 C 
HETATM   41  C20 UNL     1      -1.829  -2.920  15.042  1.00  0.00     0.024 C 
ENDBRANCH  35  38
ENDBRANCH  32  34
ENDBRANCH  29  32
ENDBRANCH  26  28
ENDBRANCH   4  26
TORSDOF 13
ENDMDL
MODEL 3
REMARK VINA RESULT: -6.315291186      3.332      6.704
REMARK  13 active torsions:
REMARK  status: ('A' for Active; 'I' for Inactive)
REMARK    1  A    between atoms: C2_2  and  C3_3 
REMARK    2  A    between atoms: C3_3  and  C4_4 
REMARK    3  A    between atoms: C4_4  and  N1_5 
REMARK    4  A    between atoms: C6_8  and  C7_9 
REMARK    5  A    between atoms: C7_9  and  C8_10 
REMARK       I    between atoms: N2_12  and  C10_14 
REMARK    6  A    between atoms: C10_14  and  C11_16 
REMARK    7  A    between atoms: C11_16  and  N3_18 
REMARK       I    between atoms: N3_18  and  C13_20 
REMARK    8  A    between atoms: C13_20  and  C14_22 
REMARK    9  A    between atoms: C14_22  and  N4_24 
REMARK       I    between atoms: N4_24  and  C16_26 
REMARK   10  A    between atoms: C16_26  and  C17_28 
REMARK   11  A    between atoms: C21_32  and  O5_33 
REMARK   12  A    between atoms: N5_35  and  C22_36 
REMARK   13  A    between atoms: C22_36  and  C23_37 
ROOT
HETATM    1  C7  UNL     1      -5.498   3.782  23.056  1.00  0.00     0.032 C 
HETATM    2  N2  UNL     1      -5.598   3.948  24.339  1.00  0.00    -0.328 N 
ATOM      3  H2  UNL     1      -4.804   4.411  24.782  1.00  0.00     0.168 HD
HETATM    4  C10 UNL     1      -6.633   3.585  25.198  1.00  0.00     0.244 C 
HETATM    5  O2  UNL     1      -7.084   2.412  25.364  1.00  0.00    -0.271 OA
ENDROOT
BRANCH   1   6
HETATM    6  C6  UNL     1      -4.297   4.256  22.373  1.00  0.00     0.106 A 
HETATM    7  C5  UNL     1      -3.057   3.663  22.720  1.00  0.00     0.268 A 
HETATM    8  N1  UNL     1      -1.916   3.987  22.108  1.00  0.00    -0.265 N 
HETATM    9  O1  UNL     1      -3.099   2.813  23.641  1.00  0.00    -0.267 OA
HETATM   10  C26 UNL     1      -1.920   4.902  21.131  1.00  0.00     0.333 A 
HETATM   11  N5  UNL     1      -3.067   5.487  20.770  1.00  0.00    -0.278 N 
HETATM   12  O6  UNL     1      -0.815   5.214  20.546  1.00  0.00    -0.246 OA
HETATM   13  C21 UNL     1      -4.246   5.164  21.390  1.00  0.00     0.164 A 
BRANCH   8  14
HETATM   14  C4  UNL     1      -0.701   3.366  22.507  1.00  0.00     0.137 C 
BRANCH  14  15
HETATM   15  C3  UNL     1       0.009   3.927  23.675  1.00  0.00     0.020 C 
BRANCH  15  16
HETATM   16  C2  UNL     1       0.371   2.984  24.768  1.00  0.00    -0.003 C 
HETATM   17  C1  UNL     1       0.212   1.567  24.185  1.00  0.00     0.005 C 
ENDBRANCH  15  16
ENDBRANCH  14  15
ENDBRANCH   8  14
BRANCH  11  18
HETATM   18  C22 UNL     1      -3.079   6.458  19.732  1.00  0.00     0.140 C 
BRANCH  18  19
HETATM   19  C23 UNL     1      -2.760   7.861  20.092  1.00  0.00    -0.004 C 
HETATM   20  C24 UNL     1      -3.851   8.866  19.841  1.00  0.00     0.011 C 
HETATM   21  C25 UNL     1      -1.474   8.408  19.535  1.00  0.00     0.011 C 
ENDBRANCH  18  19
ENDBRANCH  11  18
BRANCH  13  22
HETATM   22  O5  UNL     1      -5.416   5.822  20.951  1.00  0.00    -0.345 OA
ATOM     23  H5  UNL     1      -5.704   5.753  20.048  1.00  0.00     0.219 HD
ENDBRANCH  13  22
ENDBRANCH   1   6
BRANCH   1  24
HETATM   24  C8  UNL     1      -6.656   3.217  22.360  1.00  0.00     0.054 C 
HETATM   25  C9  UNL     1      -6.273   1.887  21.719  1.00  0.00     0.011 C 
ENDBRANCH   1  24
BRANCH   4  26
HETATM   26  C11 UNL     1      -7.321   4.626  26.036  1.00  0.00     0.172 C 
HETATM   27  C12 UNL     1      -8.502   5.146  25.217  1.00  0.00     0.042 C 
BRANCH  26  28
HETATM   28  N3  UNL     1      -6.451   5.737  26.373  1.00  0.00    -0.346 N 
HETATM   29  C13 UNL     1      -6.282   6.118  27.711  1.00  0.00     0.240 C 
HETATM   30  O3  UNL     1      -6.882   5.501  28.653  1.00  0.00    -0.271 OA
ATOM     31  H3  UNL     1      -5.961   6.241  25.634  1.00  0.00     0.163 HD
BRANCH  29  32
HETATM   32  C14 UNL     1      -5.409   7.248  28.090  1.00  0.00     0.172 C 
HETATM   33  C15 UNL     1      -6.136   8.182  29.053  1.00  0.00     0.042 C 
BRANCH  32  34
HETATM   34  N4  UNL     1      -4.180   6.759  28.659  1.00  0.00    -0.348 N 
HETATM   35  C16 UNL     1      -3.168   6.117  27.952  1.00  0.00     0.226 C 
HETATM   36  O4  UNL     1      -3.236   5.900  26.724  1.00  0.00    -0.273 OA
ATOM     37  H4  UNL     1      -4.041   6.894  29.660  1.00  0.00     0.163 HD
BRANCH  35  38
HETATM   38  C17 UNL     1      -1.939   5.661  28.684  1.00  0.00     0.030 C 
HETATM   39  C18 UNL     1      -1.280   4.596  27.827  1.00  0.00     0.024 C 
HETATM   40  C19 UNL     1      -1.034   6.823  28.930  1.00  0.00     0.024 C 
HETATM   41  C20 UNL     1      -2.285   5.010  29.998  1.00  0.00     0.024 C 
ENDBRANCH  35  38
ENDBRANCH  32  34
ENDBRANCH  29  32
ENDBRANCH  26  28
ENDBRANCH   4  26
TORSDOF 13
ENDMDL
MODEL 4
REMARK VINA RESULT: -6.191961807      4.040      8.080
REMARK  13 active torsions:
REMARK  status: ('A' for Active; 'I' for Inactive)
REMARK    1  A    between atoms: C2_2  and  C3_3 
REMARK    2  A    between atoms: C3_3  and  C4_4 
REMARK    3  A    between atoms: C4_4  and  N1_5 
REMARK    4  A    between atoms: C6_8  and  C7_9 
REMARK    5  A    between atoms: C7_9  and  C8_10 
REMARK       I    between atoms: N2_12  and  C10_14 
REMARK    6  A    between atoms: C10_14  and  C11_16 
REMARK    7  A    between atoms: C11_16  and  N3_18 
REMARK       I    between atoms: N3_18  and  C13_20 
REMARK    8  A    between atoms: C13_20  and  C14_22 
REMARK    9  A    between atoms: C14_22  and  N4_24 
REMARK       I    between atoms: N4_24  and  C16_26 
REMARK   10  A    between atoms: C16_26  and  C17_28 
REMARK   11  A    between atoms: C21_32  and  O5_33 
REMARK   12  A    between atoms: N5_35  and  C22_36 
REMARK   13  A    between atoms: C22_36  and  C23_37 
ROOT
HETATM    1  C7  UNL     1      -2.547   4.354  24.346  1.00  0.00     0.032 C 
HETATM    2  N2  UNL     1      -1.921   5.031  23.433  1.00  0.00    -0.328 N 
ATOM      3  H2  UNL     1      -0.990   5.357  23.693  1.00  0.00     0.168 HD
HETATM    4  C10 UNL     1      -2.338   5.376  22.148  1.00  0.00     0.244 C 
HETATM    5  O2  UNL     1      -3.378   6.039  21.858  1.00  0.00    -0.271 OA
ENDROOT
BRANCH   1   6
HETATM    6  C6  UNL     1      -1.889   4.122  25.629  1.00  0.00     0.106 A 
HETATM    7  C5  UNL     1      -2.358   4.842  26.756  1.00  0.00     0.268 A 
HETATM    8  N1  UNL     1      -1.861   4.652  27.980  1.00  0.00    -0.265 N 
HETATM    9  O1  UNL     1      -3.270   5.672  26.531  1.00  0.00    -0.267 OA
HETATM   10  C26 UNL     1      -0.885   3.756  28.173  1.00  0.00     0.333 A 
HETATM   11  N5  UNL     1      -0.412   3.053  27.138  1.00  0.00    -0.278 N 
HETATM   12  O6  UNL     1      -0.406   3.580  29.356  1.00  0.00    -0.246 OA
HETATM   13  C21 UNL     1      -0.913   3.238  25.876  1.00  0.00     0.164 A 
BRANCH   8  14
HETATM   14  C4  UNL     1      -2.364   5.413  29.071  1.00  0.00     0.137 C 
BRANCH  14  15
HETATM   15  C3  UNL     1      -2.047   6.856  29.111  1.00  0.00     0.020 C 
BRANCH  15  16
HETATM   16  C2  UNL     1      -0.705   7.243  29.624  1.00  0.00    -0.003 C 
HETATM   17  C1  UNL     1      -0.946   8.358  30.660  1.00  0.00     0.005 C 
ENDBRANCH  15  16
ENDBRANCH  14  15
ENDBRANCH   8  14
BRANCH  11  18
HETATM   18  C22 UNL     1       0.622   2.099  27.335  1.00  0.00     0.140 C 
BRANCH  18  19
HETATM   19  C23 UNL     1       0.258   0.799  27.950  1.00  0.00    -0.004 C 
HETATM   20  C24 UNL     1       1.410  -0.072  28.372  1.00  0.00     0.011 C 
HETATM   21  C25 UNL     1      -0.718  -0.046  27.177  1.00  0.00     0.011 C 
ENDBRANCH  18  19
ENDBRANCH  11  18
BRANCH  13  22
HETATM   22  O5  UNL     1      -0.365   2.456  24.835  1.00  0.00    -0.345 OA
ATOM     23  H5  UNL     1      -0.825   1.692  24.506  1.00  0.00     0.219 HD
ENDBRANCH  13  22
ENDBRANCH   1   6
BRANCH   1  24
HETATM   24  C8  UNL     1      -3.843   3.775  23.983  1.00  0.00     0.054 C 
HETATM   25  C9  UNL     1      -3.673   2.293  23.666  1.00  0.00     0.011 C 
ENDBRANCH   1  24
BRANCH   4  26
HETATM   26  C11 UNL     1      -1.527   4.959  20.952  1.00  0.00     0.172 C 
HETATM   27  C12 UNL     1      -2.018   5.795  19.771  1.00  0.00     0.042 C 
BRANCH  26  28
HETATM   28  N3  UNL     1      -1.680   3.552  20.636  1.00  0.00    -0.346 N 
HETATM   29  C13 UNL     1      -0.853   2.599  21.245  1.00  0.00     0.240 C 
HETATM   30  O3  UNL     1       0.043   2.945  22.087  1.00  0.00    -0.271 OA
ATOM     31  H3  UNL     1      -2.392   3.256  19.968  1.00  0.00     0.163 HD
BRANCH  29  32
HETATM   32  C14 UNL     1      -0.976   1.159  20.942  1.00  0.00     0.172 C 
HETATM   33  C15 UNL     1      -0.967   0.930  19.434  1.00  0.00     0.042 C 
BRANCH  32  34
HETATM   34  N4  UNL     1       0.075   0.421  21.593  1.00  0.00    -0.348 N 
HETATM   35  C16 UNL     1      -0.040  -0.233  22.816  1.00  0.00     0.226 C 
HETATM   36  O4  UNL     1      -1.099  -0.240  23.479  1.00  0.00    -0.273 OA
ATOM     37  H4  UNL     1       0.977   0.375  21.119  1.00  0.00     0.163 HD
BRANCH  35  38
HETATM   38  C17 UNL     1       1.147  -0.964  23.371  1.00  0.00     0.030 C 
HETATM   39  C18 UNL     1       0.624  -2.228  24.029  1.00  0.00     0.024 C 
HETATM   40  C19 UNL     1       2.118  -1.261  22.277  1.00  0.00     0.024 C 
HETATM   41  C20 UNL     1       1.836  -0.166  24.447  1.00  0.00     0.024 C 
ENDBRANCH  35  38
ENDBRANCH  32  34
ENDBRANCH  29  32
ENDBRANCH  26  28
ENDBRANCH   4  26
TORSDOF 13
ENDMDL
MODEL 5
REMARK VINA RESULT: -6.185459640      3.719      7.568
REMARK  13 active torsions:
REMARK  status: ('A' for Active; 'I' for Inactive)
REMARK    1  A    between atoms: C2_2  and  C3_3 
REMARK    2  A    between atoms: C3_3  and  C4_4 
REMARK    3  A    between atoms: C4_4  and  N1_5 
REMARK    4  A    between atoms: C6_8  and  C7_9 
REMARK    5  A    between atoms: C7_9  and  C8_10 
REMARK       I    between atoms: N2_12  and  C10_14 
REMARK    6  A    between atoms: C10_14  and  C11_16 
REMARK    7  A    between atoms: C11_16  and  N3_18 
REMARK       I    between atoms: N3_18  and  C13_20 
REMARK    8  A    between atoms: C13_20  and  C14_22 
REMARK    9  A    between atoms: C14_22  and  N4_24 
REMARK       I    between atoms: N4_24  and  C16_26 
REMARK   10  A    between atoms: C16_26  and  C17_28 
REMARK   11  A    between atoms: C21_32  and  O5_33 
REMARK   12  A    between atoms: N5_35  and  C22_36 
REMARK   13  A    between atoms: C22_36  and  C23_37 
ROOT
HETATM    1  C7  UNL     1      -2.316   4.001  24.031  1.00  0.00     0.032 C 
HETATM    2  N2  UNL     1      -1.862   4.884  23.196  1.00  0.00    -0.328 N 
ATOM      3  H2  UNL     1      -0.932   5.246  23.407  1.00  0.00     0.168 HD
HETATM    4  C10 UNL     1      -2.463   5.409  22.053  1.00  0.00     0.244 C 
HETATM    5  O2  UNL     1      -3.577   6.013  22.009  1.00  0.00    -0.271 OA
ENDROOT
BRANCH   1   6
HETATM    6  C6  UNL     1      -1.486   3.609  25.167  1.00  0.00     0.106 A 
HETATM    7  C5  UNL     1      -1.872   4.054  26.457  1.00  0.00     0.268 A 
HETATM    8  N1  UNL     1      -1.211   3.697  27.560  1.00  0.00    -0.265 N 
HETATM    9  O1  UNL     1      -2.873   4.807  26.496  1.00  0.00    -0.267 OA
HETATM   10  C26 UNL     1      -0.145   2.893  27.469  1.00  0.00     0.333 A 
HETATM   11  N5  UNL     1       0.254   2.449  26.273  1.00  0.00    -0.278 N 
HETATM   12  O6  UNL     1       0.491   2.555  28.538  1.00  0.00    -0.246 OA
HETATM   13  C21 UNL     1      -0.414   2.807  25.131  1.00  0.00     0.164 A 
BRANCH   8  14
HETATM   14  C4  UNL     1      -1.638   4.185  28.826  1.00  0.00     0.137 C 
BRANCH  14  15
HETATM   15  C3  UNL     1      -0.898   5.321  29.414  1.00  0.00     0.020 C 
BRANCH  15  16
HETATM   16  C2  UNL     1      -1.146   6.668  28.833  1.00  0.00    -0.003 C 
HETATM   17  C1  UNL     1      -0.758   7.685  29.923  1.00  0.00     0.005 C 
ENDBRANCH  15  16
ENDBRANCH  14  15
ENDBRANCH   8  14
BRANCH  11  18
HETATM   18  C22 UNL     1       1.384   1.593  26.168  1.00  0.00     0.140 C 
BRANCH  18  19
HETATM   19  C23 UNL     1       1.140   0.147  25.943  1.00  0.00    -0.004 C 
HETATM   20  C24 UNL     1       0.227  -0.524  26.933  1.00  0.00     0.011 C 
HETATM   21  C25 UNL     1       2.365  -0.709  25.771  1.00  0.00     0.011 C 
ENDBRANCH  18  19
ENDBRANCH  11  18
BRANCH  13  22
HETATM   22  O5  UNL     1       0.066   2.294  23.906  1.00  0.00    -0.345 OA
ATOM     23  H5  UNL     1      -0.283   1.487  23.546  1.00  0.00     0.219 HD
ENDBRANCH  13  22
ENDBRANCH   1   6
BRANCH   1  24
HETATM   24  C8  UNL     1      -3.603   3.375  23.713  1.00  0.00     0.054 C 
HETATM   25  C9  UNL     1      -3.367   2.007  23.085  1.00  0.00     0.011 C 
ENDBRANCH   1  24
BRANCH   4  26
HETATM   26  C11 UNL     1      -1.782   5.288  20.718  1.00  0.00     0.172 C 
HETATM   27  C12 UNL     1      -2.503   6.241  19.765  1.00  0.00     0.042 C 
BRANCH  26  28
HETATM   28  N3  UNL     1      -1.842   3.943  20.180  1.00  0.00    -0.346 N 
HETATM   29  C13 UNL     1      -0.873   2.997  20.540  1.00  0.00     0.240 C 
HETATM   30  O3  UNL     1       0.073   3.296  21.344  1.00  0.00    -0.271 OA
ATOM     31  H3  UNL     1      -2.592   3.684  19.538  1.00  0.00     0.163 HD
BRANCH  29  32
HETATM   32  C14 UNL     1      -0.898   1.620  20.007  1.00  0.00     0.172 C 
HETATM   33  C15 UNL     1       0.042   1.495  18.812  1.00  0.00     0.042 C 
BRANCH  32  34
HETATM   34  N4  UNL     1      -0.561   0.678  21.042  1.00  0.00    -0.348 N 
HETATM   35  C16 UNL     1      -1.135  -0.579  21.204  1.00  0.00     0.226 C 
HETATM   36  O4  UNL     1      -2.023  -1.017  20.442  1.00  0.00    -0.273 OA
ATOM     37  H4  UNL     1       0.158   0.956  21.711  1.00  0.00     0.163 HD
BRANCH  35  38
HETATM   38  C17 UNL     1      -0.680  -1.453  22.335  1.00  0.00     0.030 C 
HETATM   39  C18 UNL     1       0.820  -1.264  22.468  1.00  0.00     0.024 C 
HETATM   40  C19 UNL     1      -1.405  -1.084  23.587  1.00  0.00     0.024 C 
HETATM   41  C20 UNL     1      -0.910  -2.912  22.036  1.00  0.00     0.024 C 
ENDBRANCH  35  38
ENDBRANCH  32  34
ENDBRANCH  29  32
ENDBRANCH  26  28
ENDBRANCH   4  26
TORSDOF 13
ENDMDL
