MODEL 1
REMARK VINA RESULT: -7.208064909      0.000      0.000
REMARK  8 active torsions:
REMARK  status: ('A' for Active; 'I' for Inactive)
REMARK    1  A    between atoms: C5_9  and  C6_10 
REMARK    2  A    between atoms: C6_10  and  C7_11 
REMARK    3  A    between atoms: C7_11  and  C8_12 
REMARK    4  A    between atoms: C8_12  and  C9_13 
REMARK    5  A    between atoms: C9_13  and  C10_14 
REMARK    6  A    between atoms: C11_15  and  C12_16 
REMARK    7  A    between atoms: C13_17  and  C14_18 
REMARK    8  A    between atoms: C14_18  and  N3_19 
ROOT
HETATM    1  C7  UNL     1      19.087   2.995  16.103  1.00  0.00     0.001 C 
ENDROOT
BRANCH   1   2
HETATM    2  C6  UNL     1      18.138   3.526  15.021  1.00  0.00     0.007 C 
BRANCH   2   3
HETATM    3  C5  UNL     1      16.745   3.359  15.481  1.00  0.00     0.022 A 
HETATM    4  C3  UNL     1      15.373   3.824  15.409  1.00  0.00     0.114 A 
HETATM    5  N2  UNL     1      14.049   3.910  15.642  1.00  0.00    -0.330 N 
HETATM    6  C4  UNL     1      15.848   2.740  16.204  1.00  0.00     0.067 A 
HETATM    7  N1  UNL     1      13.697   2.983  16.495  1.00  0.00    -0.309 N 
ATOM      8  H2  UNL     1      13.419   4.592  15.220  1.00  0.00     0.180 HD
HETATM    9  C2  UNL     1      14.746   2.231  16.880  1.00  0.00     0.022 A 
ATOM     10  H1  UNL     1      12.743   2.846  16.829  1.00  0.00     0.186 HD
HETATM   11  C1  UNL     1      14.720   1.222  17.728  1.00  0.00     0.040 C 
ENDBRANCH   2   3
ENDBRANCH   1   2
BRANCH   1  12
HETATM   12  C8  UNL     1      20.294   3.892  16.088  1.00  0.00     0.012 C 
BRANCH  12  13
HETATM   13  C9  UNL     1      20.347   4.788  14.883  1.00  0.00     0.095 C 
BRANCH  13  14
HETATM   14  C10 UNL     1      20.677   6.141  15.373  1.00  0.00    -0.092 C 
HETATM   15  C11 UNL     1      20.947   7.243  15.790  1.00  0.00    -0.015 C 
BRANCH  15  16
HETATM   16  C12 UNL     1      21.276   8.527  16.289  1.00  0.00    -0.013 C 
HETATM   17  C13 UNL     1      21.573   9.616  16.726  1.00  0.00    -0.065 C 
BRANCH  17  18
HETATM   18  C14 UNL     1      21.951  10.929  17.260  1.00  0.00     0.324 C 
BRANCH  18  19
HETATM   19  N3  UNL     1      23.168  10.773  18.052  1.00  0.00    -0.069 N 
ATOM     20  H33 UNL     1      23.120   9.980  18.692  1.00  0.00     0.275 HD
ATOM     21  H32 UNL     1      23.961  10.454  17.494  1.00  0.00     0.275 HD
ATOM     22  H31 UNL     1      23.357  11.653  18.533  1.00  0.00     0.275 HD
ENDBRANCH  18  19
ENDBRANCH  17  18
ENDBRANCH  15  16
ENDBRANCH  13  14
ENDBRANCH  12  13
ENDBRANCH   1  12
TORSDOF 8
ENDMDL
MODEL 2
REMARK VINA RESULT: -7.130775452      3.737      5.376
REMARK  8 active torsions:
REMARK  status: ('A' for Active; 'I' for Inactive)
REMARK    1  A    between atoms: C5_9  and  C6_10 
REMARK    2  A    between atoms: C6_10  and  C7_11 
REMARK    3  A    between atoms: C7_11  and  C8_12 
REMARK    4  A    between atoms: C8_12  and  C9_13 
REMARK    5  A    between atoms: C9_13  and  C10_14 
REMARK    6  A    between atoms: C11_15  and  C12_16 
REMARK    7  A    between atoms: C13_17  and  C14_18 
REMARK    8  A    between atoms: C14_18  and  N3_19 
ROOT
HETATM    1  C7  UNL     1      14.775   2.883  15.784  1.00  0.00     0.001 C 
ENDROOT
BRANCH   1   2
HETATM    2  C6  UNL     1      15.204   4.277  15.313  1.00  0.00     0.007 C 
BRANCH   2   3
HETATM    3  C5  UNL     1      16.366   4.144  14.412  1.00  0.00     0.022 A 
HETATM    4  C3  UNL     1      16.877   3.661  13.143  1.00  0.00     0.114 A 
HETATM    5  N2  UNL     1      17.735   3.397  12.139  1.00  0.00    -0.330 N 
HETATM    6  C4  UNL     1      17.630   4.344  14.143  1.00  0.00     0.067 A 
HETATM    7  N1  UNL     1      18.919   3.858  12.448  1.00  0.00    -0.309 N 
ATOM      8  H2  UNL     1      17.499   2.913  11.273  1.00  0.00     0.180 HD
HETATM    9  C2  UNL     1      18.928   4.450  13.658  1.00  0.00     0.022 A 
ATOM     10  H1  UNL     1      19.738   3.780  11.845  1.00  0.00     0.186 HD
HETATM   11  C1  UNL     1      19.964   5.010  14.251  1.00  0.00     0.040 C 
ENDBRANCH   2   3
ENDBRANCH   1   2
BRANCH   1  12
HETATM   12  C8  UNL     1      15.412   2.673  17.130  1.00  0.00     0.012 C 
BRANCH  12  13
HETATM   13  C9  UNL     1      16.365   1.512  17.155  1.00  0.00     0.095 C 
BRANCH  13  14
HETATM   14  C10 UNL     1      17.727   2.080  17.211  1.00  0.00    -0.092 C 
HETATM   15  C11 UNL     1      18.834   2.562  17.261  1.00  0.00    -0.015 C 
BRANCH  15  16
HETATM   16  C12 UNL     1      20.129   3.132  17.336  1.00  0.00    -0.013 C 
HETATM   17  C13 UNL     1      21.230   3.627  17.418  1.00  0.00    -0.065 C 
BRANCH  17  18
HETATM   18  C14 UNL     1      22.563   4.228  17.538  1.00  0.00     0.324 C 
BRANCH  18  19
HETATM   19  N3  UNL     1      23.561   3.204  17.244  1.00  0.00    -0.069 N 
ATOM     20  H33 UNL     1      23.190   2.449  16.666  1.00  0.00     0.275 HD
ATOM     21  H32 UNL     1      24.281   3.532  16.599  1.00  0.00     0.275 HD
ATOM     22  H31 UNL     1      23.949   2.867  18.125  1.00  0.00     0.275 HD
ENDBRANCH  18  19
ENDBRANCH  17  18
ENDBRANCH  15  16
ENDBRANCH  13  14
ENDBRANCH  12  13
ENDBRANCH   1  12
TORSDOF 8
ENDMDL
MODEL 3
REMARK VINA RESULT: -7.118454817      4.019      5.404
REMARK  8 active torsions:
REMARK  status: ('A' for Active; 'I' for Inactive)
REMARK    1  A    between atoms: C5_9  and  C6_10 
REMARK    2  A    between atoms: C6_10  and  C7_11 
REMARK    3  A    between atoms: C7_11  and  C8_12 
REMARK    4  A    between atoms: C8_12  and  C9_13 
REMARK    5  A    between atoms: C9_13  and  C10_14 
REMARK    6  A    between atoms: C11_15  and  C12_16 
REMARK    7  A    between atoms: C13_17  and  C14_18 
REMARK    8  A    between atoms: C14_18  and  N3_19 
ROOT
HETATM    1  C7  UNL     1      19.431   2.306  16.675  1.00  0.00     0.001 C 
ENDROOT
BRANCH   1   2
HETATM    2  C6  UNL     1      18.508   2.008  17.863  1.00  0.00     0.007 C 
BRANCH   2   3
HETATM    3  C5  UNL     1      17.106   2.048  17.403  1.00  0.00     0.022 A 
HETATM    4  C3  UNL     1      15.813   1.391  17.374  1.00  0.00     0.114 A 
HETATM    5  N2  UNL     1      14.515   1.159  17.101  1.00  0.00    -0.330 N 
HETATM    6  C4  UNL     1      16.131   2.640  16.763  1.00  0.00     0.067 A 
HETATM    7  N1  UNL     1      14.036   2.147  16.390  1.00  0.00    -0.309 N 
ATOM      8  H2  UNL     1      13.986   0.340  17.401  1.00  0.00     0.180 HD
HETATM    9  C2  UNL     1      14.969   3.088  16.147  1.00  0.00     0.022 A 
ATOM     10  H1  UNL     1      13.073   2.199  16.060  1.00  0.00     0.186 HD
HETATM   11  C1  UNL     1      14.801   4.201  15.462  1.00  0.00     0.040 C 
ENDBRANCH   2   3
ENDBRANCH   1   2
BRANCH   1  12
HETATM   12  C8  UNL     1      20.291   3.471  17.085  1.00  0.00     0.012 C 
BRANCH  12  13
HETATM   13  C9  UNL     1      20.520   4.453  15.973  1.00  0.00     0.095 C 
BRANCH  13  14
HETATM   14  C10 UNL     1      19.467   4.210  14.966  1.00  0.00    -0.092 C 
HETATM   15  C11 UNL     1      18.610   3.995  14.142  1.00  0.00    -0.015 C 
BRANCH  15  16
HETATM   16  C12 UNL     1      17.600   3.728  13.185  1.00  0.00    -0.013 C 
HETATM   17  C13 UNL     1      16.745   3.514  12.356  1.00  0.00    -0.065 C 
BRANCH  17  18
HETATM   18  C14 UNL     1      15.721   3.262  11.336  1.00  0.00     0.324 C 
BRANCH  18  19
HETATM   19  N3  UNL     1      16.018   4.089  10.169  1.00  0.00    -0.069 N 
ATOM     20  H33 UNL     1      16.716   4.807  10.365  1.00  0.00     0.275 HD
ATOM     21  H32 UNL     1      16.536   3.582   9.451  1.00  0.00     0.275 HD
ATOM     22  H31 UNL     1      15.143   4.479   9.817  1.00  0.00     0.275 HD
ENDBRANCH  18  19
ENDBRANCH  17  18
ENDBRANCH  15  16
ENDBRANCH  13  14
ENDBRANCH  12  13
ENDBRANCH   1  12
TORSDOF 8
ENDMDL
MODEL 4
REMARK VINA RESULT: -7.087505754      3.726      6.044
REMARK  8 active torsions:
REMARK  status: ('A' for Active; 'I' for Inactive)
REMARK    1  A    between atoms: C5_9  and  C6_10 
REMARK    2  A    between atoms: C6_10  and  C7_11 
REMARK    3  A    between atoms: C7_11  and  C8_12 
REMARK    4  A    between atoms: C8_12  and  C9_13 
REMARK    5  A    between atoms: C9_13  and  C10_14 
REMARK    6  A    between atoms: C11_15  and  C12_16 
REMARK    7  A    between atoms: C13_17  and  C14_18 
REMARK    8  A    between atoms: C14_18  and  N3_19 
ROOT
HETATM    1  C7  UNL     1      20.775   4.914  14.635  1.00  0.00     0.001 C 
ENDROOT
BRANCH   1   2
HETATM    2  C6  UNL     1      19.501   5.707  14.318  1.00  0.00     0.007 C 
BRANCH   2   3
HETATM    3  C5  UNL     1      18.377   4.764  14.153  1.00  0.00     0.022 A 
HETATM    4  C3  UNL     1      17.881   3.555  13.524  1.00  0.00     0.114 A 
HETATM    5  N2  UNL     1      17.050   2.551  13.186  1.00  0.00    -0.330 N 
HETATM    6  C4  UNL     1      17.155   4.387  14.427  1.00  0.00     0.067 A 
HETATM    7  N1  UNL     1      15.906   2.708  13.800  1.00  0.00    -0.309 N 
ATOM      8  H2  UNL     1      17.276   1.787  12.549  1.00  0.00     0.180 HD
HETATM    9  C2  UNL     1      15.900   3.809  14.576  1.00  0.00     0.022 A 
ATOM     10  H1  UNL     1      15.114   2.073  13.704  1.00  0.00     0.186 HD
HETATM   11  C1  UNL     1      14.901   4.240  15.319  1.00  0.00     0.040 C 
ENDBRANCH   2   3
ENDBRANCH   1   2
BRANCH   1  12
HETATM   12  C8  UNL     1      20.900   4.890  16.134  1.00  0.00     0.012 C 
BRANCH  12  13
HETATM   13  C9  UNL     1      21.090   3.506  16.686  1.00  0.00     0.095 C 
BRANCH  13  14
HETATM   14  C10 UNL     1      19.742   2.952  16.920  1.00  0.00    -0.092 C 
HETATM   15  C11 UNL     1      18.633   2.513  17.121  1.00  0.00    -0.015 C 
BRANCH  15  16
HETATM   16  C12 UNL     1      17.328   2.014  17.351  1.00  0.00    -0.013 C 
HETATM   17  C13 UNL     1      16.206   1.599  17.532  1.00  0.00    -0.065 C 
BRANCH  17  18
HETATM   18  C14 UNL     1      14.840   1.103  17.733  1.00  0.00     0.324 C 
BRANCH  18  19
HETATM   19  N3  UNL     1      14.175   1.039  16.434  1.00  0.00    -0.069 N 
ATOM     20  H33 UNL     1      14.754   1.406  15.679  1.00  0.00     0.275 HD
ATOM     21  H32 UNL     1      14.083   0.083  16.088  1.00  0.00     0.275 HD
ATOM     22  H31 UNL     1      13.276   1.516  16.507  1.00  0.00     0.275 HD
ENDBRANCH  18  19
ENDBRANCH  17  18
ENDBRANCH  15  16
ENDBRANCH  13  14
ENDBRANCH  12  13
ENDBRANCH   1  12
TORSDOF 8
ENDMDL
MODEL 5
REMARK VINA RESULT: -7.062804927      3.688      6.108
REMARK  8 active torsions:
REMARK  status: ('A' for Active; 'I' for Inactive)
REMARK    1  A    between atoms: C5_9  and  C6_10 
REMARK    2  A    between atoms: C6_10  and  C7_11 
REMARK    3  A    between atoms: C7_11  and  C8_12 
REMARK    4  A    between atoms: C8_12  and  C9_13 
REMARK    5  A    between atoms: C9_13  and  C10_14 
REMARK    6  A    between atoms: C11_15  and  C12_16 
REMARK    7  A    between atoms: C13_17  and  C14_18 
REMARK    8  A    between atoms: C14_18  and  N3_19 
ROOT
HETATM    1  C7  UNL     1      20.211   4.642  14.438  1.00  0.00     0.001 C 
ENDROOT
BRANCH   1   2
HETATM    2  C6  UNL     1      18.982   5.556  14.362  1.00  0.00     0.007 C 
BRANCH   2   3
HETATM    3  C5  UNL     1      17.784   4.730  14.111  1.00  0.00     0.022 A 
HETATM    4  C3  UNL     1      16.481   4.297  14.579  1.00  0.00     0.114 A 
HETATM    5  N2  UNL     1      15.296   3.659  14.618  1.00  0.00    -0.330 N 
HETATM    6  C4  UNL     1      17.114   3.888  13.368  1.00  0.00     0.067 A 
HETATM    7  N1  UNL     1      15.166   2.916  13.550  1.00  0.00    -0.309 N 
ATOM      8  H2  UNL     1      14.606   3.742  15.365  1.00  0.00     0.180 HD
HETATM    9  C2  UNL     1      16.239   3.008  12.741  1.00  0.00     0.022 A 
ATOM     10  H1  UNL     1      14.350   2.336  13.352  1.00  0.00     0.186 HD
HETATM   11  C1  UNL     1      16.414   2.384  11.593  1.00  0.00     0.040 C 
ENDBRANCH   2   3
ENDBRANCH   1   2
BRANCH   1  12
HETATM   12  C8  UNL     1      20.792   4.825  15.813  1.00  0.00     0.012 C 
BRANCH  12  13
HETATM   13  C9  UNL     1      21.001   3.527  16.541  1.00  0.00     0.095 C 
BRANCH  13  14
HETATM   14  C10 UNL     1      19.660   2.973  16.816  1.00  0.00    -0.092 C 
HETATM   15  C11 UNL     1      18.557   2.536  17.046  1.00  0.00    -0.015 C 
BRANCH  15  16
HETATM   16  C12 UNL     1      17.257   2.036  17.305  1.00  0.00    -0.013 C 
HETATM   17  C13 UNL     1      16.139   1.620  17.510  1.00  0.00    -0.065 C 
BRANCH  17  18
HETATM   18  C14 UNL     1      14.779   1.123  17.741  1.00  0.00     0.324 C 
BRANCH  18  19
HETATM   19  N3  UNL     1      14.081   1.070  16.459  1.00  0.00    -0.069 N 
ATOM     20  H33 UNL     1      14.722   1.016  15.667  1.00  0.00     0.275 HD
ATOM     21  H32 UNL     1      13.600   0.183  16.311  1.00  0.00     0.275 HD
ATOM     22  H31 UNL     1      13.452   1.872  16.400  1.00  0.00     0.275 HD
ENDBRANCH  18  19
ENDBRANCH  17  18
ENDBRANCH  15  16
ENDBRANCH  13  14
ENDBRANCH  12  13
ENDBRANCH   1  12
TORSDOF 8
ENDMDL
