MODEL 1
REMARK VINA RESULT: -6.399937648      0.000      0.000
REMARK  6 active torsions:
REMARK  status: ('A' for Active; 'I' for Inactive)
REMARK    1  A    between atoms: C1_4  and  C2_5 
REMARK    2  A    between atoms: C1_4  and  N4_13 
REMARK    3  A    between atoms: C2_5  and  N2_6 
REMARK    4  A    between atoms: N4_13  and  C7_15 
REMARK    5  A    between atoms: C7_15  and  C8_16 
REMARK    6  A    between atoms: C8_16  and  O1_17 
ROOT
HETATM    1  N1  UNL     1      44.641  23.363  39.975  1.00  0.00    -0.388 N 
ATOM      2  H11 UNL     1      43.711  23.051  39.696  1.00  0.00     0.157 HD
ATOM      3  H12 UNL     1      45.322  22.727  40.388  1.00  0.00     0.157 HD
HETATM    4  C1  UNL     1      44.969  24.595  39.817  1.00  0.00     0.090 C 
ENDROOT
BRANCH   4   5
HETATM    5  C2  UNL     1      46.307  25.045  40.218  1.00  0.00     0.223 C 
BRANCH   5   6
HETATM    6  N2  UNL     1      46.363  25.613  41.548  1.00  0.00    -0.297 N 
HETATM    7  C3  UNL     1      45.500  26.550  41.983  1.00  0.00     0.110 A 
HETATM    8  C4  UNL     1      45.548  27.093  43.246  1.00  0.00     0.020 A 
HETATM    9  C5  UNL     1      46.537  26.662  44.133  1.00  0.00     0.020 A 
HETATM   10  C6  UNL     1      47.400  25.703  43.652  1.00  0.00     0.107 A 
HETATM   11  N3  UNL     1      47.294  25.217  42.407  1.00  0.00    -0.310 N 
ATOM     12  H3  UNL     1      47.962  24.508  42.105  1.00  0.00     0.186 HD
ENDBRANCH   5   6
ENDBRANCH   4   5
BRANCH   4  13
HETATM   13  N4  UNL     1      44.022  25.480  39.244  1.00  0.00    -0.377 N 
ATOM     14  H4  UNL     1      43.093  25.512  39.664  1.00  0.00     0.160 HD
BRANCH  13  15
HETATM   15  C7  UNL     1      44.270  26.340  38.113  1.00  0.00     0.147 C 
BRANCH  15  16
HETATM   16  C8  UNL     1      44.352  27.772  38.549  1.00  0.00     0.183 C 
BRANCH  16  17
HETATM   17  O1  UNL     1      43.582  28.651  37.837  1.00  0.00    -0.399 OA
ATOM     18  H1  UNL     1      43.726  28.656  36.898  1.00  0.00     0.209 HD
ENDBRANCH  16  17
ENDBRANCH  15  16
ENDBRANCH  13  15
ENDBRANCH   4  13
TORSDOF 6
ENDMDL
MODEL 2
REMARK VINA RESULT: -6.049496380      0.560      1.293
REMARK  6 active torsions:
REMARK  status: ('A' for Active; 'I' for Inactive)
REMARK    1  A    between atoms: C1_4  and  C2_5 
REMARK    2  A    between atoms: C1_4  and  N4_13 
REMARK    3  A    between atoms: C2_5  and  N2_6 
REMARK    4  A    between atoms: N4_13  and  C7_15 
REMARK    5  A    between atoms: C7_15  and  C8_16 
REMARK    6  A    between atoms: C8_16  and  O1_17 
ROOT
HETATM    1  N1  UNL     1      44.642  23.399  39.970  1.00  0.00    -0.388 N 
ATOM      2  H11 UNL     1      43.727  23.061  39.673  1.00  0.00     0.157 HD
ATOM      3  H12 UNL     1      45.331  22.783  40.401  1.00  0.00     0.157 HD
HETATM    4  C1  UNL     1      44.942  24.638  39.810  1.00  0.00     0.090 C 
ENDROOT
BRANCH   4   5
HETATM    5  C2  UNL     1      46.258  25.125  40.236  1.00  0.00     0.223 C 
BRANCH   5   6
HETATM    6  N2  UNL     1      46.271  25.705  41.563  1.00  0.00    -0.297 N 
HETATM    7  C3  UNL     1      47.158  25.349  42.511  1.00  0.00     0.110 A 
HETATM    8  C4  UNL     1      47.176  25.897  43.772  1.00  0.00     0.020 A 
HETATM    9  C5  UNL     1      46.231  26.872  44.103  1.00  0.00     0.020 A 
HETATM   10  C6  UNL     1      45.342  27.209  43.107  1.00  0.00     0.107 A 
HETATM   11  N3  UNL     1      45.383  26.634  41.897  1.00  0.00    -0.310 N 
ATOM     12  H3  UNL     1      44.699  26.923  41.199  1.00  0.00     0.186 HD
ENDBRANCH   5   6
ENDBRANCH   4   5
BRANCH   4  13
HETATM   13  N4  UNL     1      43.985  25.495  39.212  1.00  0.00    -0.377 N 
ATOM     14  H4  UNL     1      43.046  25.503  39.610  1.00  0.00     0.160 HD
BRANCH  13  15
HETATM   15  C7  UNL     1      44.235  26.357  38.083  1.00  0.00     0.147 C 
BRANCH  15  16
HETATM   16  C8  UNL     1      44.373  27.781  38.529  1.00  0.00     0.183 C 
BRANCH  16  17
HETATM   17  O1  UNL     1      43.562  28.681  37.892  1.00  0.00    -0.399 OA
ATOM     18  H1  UNL     1      43.143  29.324  38.452  1.00  0.00     0.209 HD
ENDBRANCH  16  17
ENDBRANCH  15  16
ENDBRANCH  13  15
ENDBRANCH   4  13
TORSDOF 6
ENDMDL
MODEL 3
REMARK VINA RESULT: -5.970703503      2.147      2.941
REMARK  6 active torsions:
REMARK  status: ('A' for Active; 'I' for Inactive)
REMARK    1  A    between atoms: C1_4  and  C2_5 
REMARK    2  A    between atoms: C1_4  and  N4_13 
REMARK    3  A    between atoms: C2_5  and  N2_6 
REMARK    4  A    between atoms: N4_13  and  C7_15 
REMARK    5  A    between atoms: C7_15  and  C8_16 
REMARK    6  A    between atoms: C8_16  and  O1_17 
ROOT
HETATM    1  N1  UNL     1      43.444  29.340  41.315  1.00  0.00    -0.388 N 
ATOM      2  H11 UNL     1      43.553  30.146  40.700  1.00  0.00     0.157 HD
ATOM      3  H12 UNL     1      42.898  29.389  42.175  1.00  0.00     0.157 HD
HETATM    4  C1  UNL     1      44.015  28.230  41.013  1.00  0.00     0.090 C 
ENDROOT
BRANCH   4   5
HETATM    5  C2  UNL     1      43.858  27.071  41.898  1.00  0.00     0.223 C 
BRANCH   5   6
HETATM    6  N2  UNL     1      45.100  26.587  42.462  1.00  0.00    -0.297 N 
HETATM    7  C3  UNL     1      45.847  25.629  41.881  1.00  0.00     0.110 A 
HETATM    8  C4  UNL     1      47.028  25.167  42.411  1.00  0.00     0.020 A 
HETATM    9  C5  UNL     1      47.489  25.706  43.615  1.00  0.00     0.020 A 
HETATM   10  C6  UNL     1      46.699  26.683  44.178  1.00  0.00     0.107 A 
HETATM   11  N3  UNL     1      45.557  27.087  43.604  1.00  0.00    -0.310 N 
ATOM     12  H3  UNL     1      45.013  27.814  44.067  1.00  0.00     0.186 HD
ENDBRANCH   5   6
ENDBRANCH   4   5
BRANCH   4  13
HETATM   13  N4  UNL     1      44.775  28.163  39.818  1.00  0.00    -0.377 N 
ATOM     14  H4  UNL     1      45.744  28.477  39.859  1.00  0.00     0.160 HD
BRANCH  13  15
HETATM   15  C7  UNL     1      44.283  27.684  38.550  1.00  0.00     0.147 C 
BRANCH  15  16
HETATM   16  C8  UNL     1      44.500  26.206  38.426  1.00  0.00     0.183 C 
BRANCH  16  17
HETATM   17  O1  UNL     1      43.565  25.531  37.689  1.00  0.00    -0.399 OA
ATOM     18  H1  UNL     1      43.903  25.037  36.952  1.00  0.00     0.209 HD
ENDBRANCH  16  17
ENDBRANCH  15  16
ENDBRANCH  13  15
ENDBRANCH   4  13
TORSDOF 6
ENDMDL
MODEL 4
REMARK VINA RESULT: -5.941313782      2.033      2.888
REMARK  6 active torsions:
REMARK  status: ('A' for Active; 'I' for Inactive)
REMARK    1  A    between atoms: C1_4  and  C2_5 
REMARK    2  A    between atoms: C1_4  and  N4_13 
REMARK    3  A    between atoms: C2_5  and  N2_6 
REMARK    4  A    between atoms: N4_13  and  C7_15 
REMARK    5  A    between atoms: C7_15  and  C8_16 
REMARK    6  A    between atoms: C8_16  and  O1_17 
ROOT
HETATM    1  N1  UNL     1      43.452  29.380  41.295  1.00  0.00    -0.388 N 
ATOM      2  H11 UNL     1      43.570  30.162  40.651  1.00  0.00     0.157 HD
ATOM      3  H12 UNL     1      42.896  29.462  42.146  1.00  0.00     0.157 HD
HETATM    4  C1  UNL     1      44.024  28.259  41.041  1.00  0.00     0.090 C 
ENDROOT
BRANCH   4   5
HETATM    5  C2  UNL     1      43.854  27.134  41.967  1.00  0.00     0.223 C 
BRANCH   5   6
HETATM    6  N2  UNL     1      45.098  26.595  42.475  1.00  0.00    -0.297 N 
HETATM    7  C3  UNL     1      45.691  27.048  43.595  1.00  0.00     0.110 A 
HETATM    8  C4  UNL     1      46.872  26.540  44.083  1.00  0.00     0.020 A 
HETATM    9  C5  UNL     1      47.502  25.502  43.392  1.00  0.00     0.020 A 
HETATM   10  C6  UNL     1      46.865  25.066  42.251  1.00  0.00     0.107 A 
HETATM   11  N3  UNL     1      45.712  25.608  41.834  1.00  0.00    -0.310 N 
ATOM     12  H3  UNL     1      45.286  25.244  40.982  1.00  0.00     0.186 HD
ENDBRANCH   5   6
ENDBRANCH   4   5
BRANCH   4  13
HETATM   13  N4  UNL     1      44.797  28.145  39.859  1.00  0.00    -0.377 N 
ATOM     14  H4  UNL     1      45.780  28.414  39.912  1.00  0.00     0.160 HD
BRANCH  13  15
HETATM   15  C7  UNL     1      44.303  27.679  38.587  1.00  0.00     0.147 C 
BRANCH  15  16
HETATM   16  C8  UNL     1      44.504  26.199  38.455  1.00  0.00     0.183 C 
BRANCH  16  17
HETATM   17  O1  UNL     1      43.572  25.541  37.699  1.00  0.00    -0.399 OA
ATOM     18  H1  UNL     1      43.733  24.615  37.565  1.00  0.00     0.209 HD
ENDBRANCH  16  17
ENDBRANCH  15  16
ENDBRANCH  13  15
ENDBRANCH   4  13
TORSDOF 6
ENDMDL
MODEL 5
REMARK VINA RESULT: -5.851345765      1.924      4.191
REMARK  6 active torsions:
REMARK  status: ('A' for Active; 'I' for Inactive)
REMARK    1  A    between atoms: C1_4  and  C2_5 
REMARK    2  A    between atoms: C1_4  and  N4_13 
REMARK    3  A    between atoms: C2_5  and  N2_6 
REMARK    4  A    between atoms: N4_13  and  C7_15 
REMARK    5  A    between atoms: C7_15  and  C8_16 
REMARK    6  A    between atoms: C8_16  and  O1_17 
ROOT
HETATM    1  N1  UNL     1      48.209  25.551  42.923  1.00  0.00    -0.388 N 
ATOM      2  H11 UNL     1      48.604  26.200  43.604  1.00  0.00     0.157 HD
ATOM      3  H12 UNL     1      48.789  24.882  42.416  1.00  0.00     0.157 HD
HETATM    4  C1  UNL     1      46.948  25.576  42.682  1.00  0.00     0.090 C 
ENDROOT
BRANCH   4   5
HETATM    5  C2  UNL     1      46.379  24.644  41.703  1.00  0.00     0.223 C 
BRANCH   5   6
HETATM    6  N2  UNL     1      45.784  25.288  40.551  1.00  0.00    -0.297 N 
HETATM    7  C3  UNL     1      44.525  25.043  40.142  1.00  0.00     0.110 A 
HETATM    8  C4  UNL     1      43.954  25.652  39.050  1.00  0.00     0.020 A 
HETATM    9  C5  UNL     1      44.707  26.572  38.315  1.00  0.00     0.020 A 
HETATM   10  C6  UNL     1      45.989  26.795  38.764  1.00  0.00     0.107 A 
HETATM   11  N3  UNL     1      46.481  26.165  39.839  1.00  0.00    -0.310 N 
ATOM     12  H3  UNL     1      47.438  26.370  40.126  1.00  0.00     0.186 HD
ENDBRANCH   5   6
ENDBRANCH   4   5
BRANCH   4  13
HETATM   13  N4  UNL     1      46.142  26.507  43.385  1.00  0.00    -0.377 N 
ATOM     14  H4  UNL     1      46.501  26.865  44.270  1.00  0.00     0.160 HD
BRANCH  13  15
HETATM   15  C7  UNL     1      44.855  26.986  42.946  1.00  0.00     0.147 C 
BRANCH  15  16
HETATM   16  C8  UNL     1      45.009  28.226  42.118  1.00  0.00     0.183 C 
BRANCH  16  17
HETATM   17  O1  UNL     1      46.298  28.623  41.885  1.00  0.00    -0.399 OA
ATOM     18  H1  UNL     1      46.548  28.690  40.971  1.00  0.00     0.209 HD
ENDBRANCH  16  17
ENDBRANCH  15  16
ENDBRANCH  13  15
ENDBRANCH   4  13
TORSDOF 6
ENDMDL
