MODEL 1
REMARK VINA RESULT: -6.224024320      0.000      0.000
REMARK  4 active torsions:
REMARK  status: ('A' for Active; 'I' for Inactive)
REMARK       I    between atoms: C2_4  and  N2_5 
REMARK       I    between atoms: C2_4  and  N3_15 
REMARK    1  A    between atoms: N2_5  and  C3_7 
REMARK    2  A    between atoms: C4_8  and  C5_9 
REMARK    3  A    between atoms: N3_15  and  C11_17 
REMARK    4  A    between atoms: C11_17  and  C12_18 
REMARK       I    between atoms: C12_18  and  N4_20 
ROOT
HETATM    1  C1  UNL     1      15.653  -6.266  30.880  1.00  0.00     0.165 C 
HETATM    2  N1  UNL     1      15.446  -5.953  29.487  1.00  0.00    -0.230 N 
ATOM      3  H1  UNL     1      15.765  -6.610  28.776  1.00  0.00     0.177 HD
HETATM    4  C2  UNL     1      14.871  -4.872  29.125  1.00  0.00     0.681 C 
HETATM    5  N2  UNL     1      14.422  -3.956  30.066  1.00  0.00    -0.149 N 
ATOM      6  H2  UNL     1      13.583  -4.166  30.606  1.00  0.00     0.195 HD
HETATM    7  N3  UNL     1      14.691  -4.615  27.746  1.00  0.00    -0.217 N 
ATOM      8  H3  UNL     1      13.738  -4.504  27.399  1.00  0.00     0.178 HD
ENDROOT
BRANCH   5   9
HETATM    9  C3  UNL     1      15.103  -2.740  30.291  1.00  0.00     0.031 C 
HETATM   10  C4  UNL     1      15.673  -1.690  30.499  1.00  0.00    -0.048 C 
BRANCH  10  11
HETATM   11  C5  UNL     1      16.333  -0.430  30.760  1.00  0.00    -0.007 C 
HETATM   12  C6  UNL     1      17.089  -0.250  31.820  1.00  0.00    -0.011 C 
HETATM   13  C7  UNL     1      17.792   1.003  32.154  1.00  0.00     0.028 C 
HETATM   14  C8  UNL     1      17.370   2.171  31.307  1.00  0.00     0.004 C 
HETATM   15  C9  UNL     1      17.290   1.669  29.881  1.00  0.00     0.006 C 
HETATM   16  C10 UNL     1      16.146   0.680  29.805  1.00  0.00     0.048 C 
ENDBRANCH  10  11
ENDBRANCH   5   9
BRANCH   7  17
HETATM   17  C11 UNL     1      15.767  -4.502  26.808  1.00  0.00     0.240 C 
BRANCH  17  18
HETATM   18  C12 UNL     1      16.059  -5.691  26.009  1.00  0.00     0.235 C 
HETATM   19  O1  UNL     1      16.639  -6.653  26.630  1.00  0.00    -0.272 OA
HETATM   20  N4  UNL     1      15.765  -5.856  24.660  1.00  0.00    -0.364 N 
HETATM   21  C13 UNL     1      16.115  -7.106  23.977  1.00  0.00     0.149 C 
ATOM     22  H4  UNL     1      15.305  -5.106  24.144  1.00  0.00     0.161 HD
ENDBRANCH  17  18
ENDBRANCH   7  17
TORSDOF 4
ENDMDL
MODEL 2
REMARK VINA RESULT: -6.222174226      0.273      1.170
REMARK  4 active torsions:
REMARK  status: ('A' for Active; 'I' for Inactive)
REMARK       I    between atoms: C2_4  and  N2_5 
REMARK       I    between atoms: C2_4  and  N3_15 
REMARK    1  A    between atoms: N2_5  and  C3_7 
REMARK    2  A    between atoms: C4_8  and  C5_9 
REMARK    3  A    between atoms: N3_15  and  C11_17 
REMARK    4  A    between atoms: C11_17  and  C12_18 
REMARK       I    between atoms: C12_18  and  N4_20 
ROOT
HETATM    1  C1  UNL     1      15.679  -6.353  30.835  1.00  0.00     0.165 C 
HETATM    2  N1  UNL     1      15.457  -6.018  29.450  1.00  0.00    -0.230 N 
ATOM      3  H1  UNL     1      15.755  -6.671  28.725  1.00  0.00     0.177 HD
HETATM    4  C2  UNL     1      14.898  -4.922  29.110  1.00  0.00     0.681 C 
HETATM    5  N2  UNL     1      14.479  -4.010  30.069  1.00  0.00    -0.149 N 
ATOM      6  H2  UNL     1      13.644  -4.212  30.619  1.00  0.00     0.195 HD
HETATM    7  N3  UNL     1      14.704  -4.643  27.737  1.00  0.00    -0.217 N 
ATOM      8  H3  UNL     1      13.748  -4.509  27.405  1.00  0.00     0.178 HD
ENDROOT
BRANCH   5   9
HETATM    9  C3  UNL     1      15.185  -2.810  30.301  1.00  0.00     0.031 C 
HETATM   10  C4  UNL     1      15.779  -1.775  30.517  1.00  0.00    -0.048 C 
BRANCH  10  11
HETATM   11  C5  UNL     1      16.468  -0.533  30.788  1.00  0.00    -0.007 C 
HETATM   12  C6  UNL     1      16.395   0.492  29.969  1.00  0.00    -0.011 C 
HETATM   13  C7  UNL     1      17.068   1.789  30.176  1.00  0.00     0.028 C 
HETATM   14  C8  UNL     1      18.074   1.771  31.292  1.00  0.00     0.004 C 
HETATM   15  C9  UNL     1      17.435   1.023  32.443  1.00  0.00     0.006 C 
HETATM   16  C10 UNL     1      17.273  -0.421  32.020  1.00  0.00     0.048 C 
ENDBRANCH  10  11
ENDBRANCH   5   9
BRANCH   7  17
HETATM   17  C11 UNL     1      15.768  -4.536  26.786  1.00  0.00     0.240 C 
BRANCH  17  18
HETATM   18  C12 UNL     1      16.049  -5.730  25.989  1.00  0.00     0.235 C 
HETATM   19  O1  UNL     1      16.628  -6.692  26.610  1.00  0.00    -0.272 OA
HETATM   20  N4  UNL     1      15.743  -5.899  24.644  1.00  0.00    -0.364 N 
HETATM   21  C13 UNL     1      16.082  -7.154  23.964  1.00  0.00     0.149 C 
ATOM     22  H4  UNL     1      15.283  -5.150  24.128  1.00  0.00     0.161 HD
ENDBRANCH  17  18
ENDBRANCH   7  17
TORSDOF 4
ENDMDL
MODEL 3
REMARK VINA RESULT: -6.037058346      3.047      7.178
REMARK  4 active torsions:
REMARK  status: ('A' for Active; 'I' for Inactive)
REMARK       I    between atoms: C2_4  and  N2_5 
REMARK       I    between atoms: C2_4  and  N3_15 
REMARK    1  A    between atoms: N2_5  and  C3_7 
REMARK    2  A    between atoms: C4_8  and  C5_9 
REMARK    3  A    between atoms: N3_15  and  C11_17 
REMARK    4  A    between atoms: C11_17  and  C12_18 
REMARK       I    between atoms: C12_18  and  N4_20 
ROOT
HETATM    1  C1  UNL     1      19.353  -7.054  31.053  1.00  0.00     0.165 C 
HETATM    2  N1  UNL     1      18.653  -5.812  31.273  1.00  0.00    -0.230 N 
ATOM      3  H1  UNL     1      18.218  -5.638  32.178  1.00  0.00     0.177 HD
HETATM    4  C2  UNL     1      18.567  -4.925  30.359  1.00  0.00     0.681 C 
HETATM    5  N2  UNL     1      19.148  -5.127  29.115  1.00  0.00    -0.149 N 
ATOM      6  H2  UNL     1      20.161  -5.058  29.020  1.00  0.00     0.195 HD
HETATM    7  N3  UNL     1      17.870  -3.723  30.627  1.00  0.00    -0.217 N 
ATOM      8  H3  UNL     1      18.385  -2.845  30.562  1.00  0.00     0.178 HD
ENDROOT
BRANCH   5   9
HETATM    9  C3  UNL     1      18.366  -5.426  27.978  1.00  0.00     0.031 C 
HETATM   10  C4  UNL     1      17.683  -5.695  27.013  1.00  0.00    -0.048 C 
BRANCH  10  11
HETATM   11  C5  UNL     1      16.860  -6.038  25.874  1.00  0.00    -0.007 C 
HETATM   12  C6  UNL     1      17.025  -7.162  25.215  1.00  0.00    -0.011 C 
HETATM   13  C7  UNL     1      16.228  -7.582  24.046  1.00  0.00     0.028 C 
HETATM   14  C8  UNL     1      15.357  -6.489  23.491  1.00  0.00     0.004 C 
HETATM   15  C9  UNL     1      14.715  -5.799  24.676  1.00  0.00     0.006 C 
HETATM   16  C10 UNL     1      15.810  -5.093  25.446  1.00  0.00     0.048 C 
ENDBRANCH  10  11
ENDBRANCH   5   9
BRANCH   7  17
HETATM   17  C11 UNL     1      16.485  -3.666  30.984  1.00  0.00     0.240 C 
BRANCH  17  18
HETATM   18  C12 UNL     1      15.712  -2.563  30.416  1.00  0.00     0.235 C 
HETATM   19  O1  UNL     1      14.602  -2.886  29.860  1.00  0.00    -0.272 OA
HETATM   20  N4  UNL     1      16.079  -1.222  30.430  1.00  0.00    -0.364 N 
HETATM   21  C13 UNL     1      15.207  -0.213  29.820  1.00  0.00     0.149 C 
ATOM     22  H4  UNL     1      16.957  -0.939  30.865  1.00  0.00     0.161 HD
ENDBRANCH  17  18
ENDBRANCH   7  17
TORSDOF 4
ENDMDL
MODEL 4
REMARK VINA RESULT: -6.031508457      0.861      1.177
REMARK  4 active torsions:
REMARK  status: ('A' for Active; 'I' for Inactive)
REMARK       I    between atoms: C2_4  and  N2_5 
REMARK       I    between atoms: C2_4  and  N3_15 
REMARK    1  A    between atoms: N2_5  and  C3_7 
REMARK    2  A    between atoms: C4_8  and  C5_9 
REMARK    3  A    between atoms: N3_15  and  C11_17 
REMARK    4  A    between atoms: C11_17  and  C12_18 
REMARK       I    between atoms: C12_18  and  N4_20 
ROOT
HETATM    1  C1  UNL     1      16.621  -5.987  30.992  1.00  0.00     0.165 C 
HETATM    2  N1  UNL     1      16.091  -5.821  29.661  1.00  0.00    -0.230 N 
ATOM      3  H1  UNL     1      16.435  -6.419  28.909  1.00  0.00     0.177 HD
HETATM    4  C2  UNL     1      15.201  -4.944  29.402  1.00  0.00     0.681 C 
HETATM    5  N2  UNL     1      14.710  -4.114  30.400  1.00  0.00    -0.149 N 
ATOM      6  H2  UNL     1      14.065  -4.495  31.093  1.00  0.00     0.195 HD
HETATM    7  N3  UNL     1      14.714  -4.823  28.080  1.00  0.00    -0.217 N 
ATOM      8  H3  UNL     1      13.719  -4.976  27.919  1.00  0.00     0.178 HD
ENDROOT
BRANCH   5   9
HETATM    9  C3  UNL     1      15.082  -2.755  30.477  1.00  0.00     0.031 C 
HETATM   10  C4  UNL     1      15.389  -1.585  30.559  1.00  0.00    -0.048 C 
BRANCH  10  11
HETATM   11  C5  UNL     1      15.732  -0.184  30.670  1.00  0.00    -0.007 C 
HETATM   12  C6  UNL     1      16.708   0.346  29.967  1.00  0.00    -0.011 C 
HETATM   13  C7  UNL     1      17.117   1.763  30.025  1.00  0.00     0.028 C 
HETATM   14  C8  UNL     1      16.490   2.523  31.160  1.00  0.00     0.004 C 
HETATM   15  C9  UNL     1      15.030   2.123  31.198  1.00  0.00     0.006 C 
HETATM   16  C10 UNL     1      14.963   0.665  31.600  1.00  0.00     0.048 C 
ENDBRANCH  10  11
ENDBRANCH   5   9
BRANCH   7  17
HETATM   17  C11 UNL     1      15.536  -4.500  26.952  1.00  0.00     0.240 C 
BRANCH  17  18
HETATM   18  C12 UNL     1      15.896  -5.611  26.072  1.00  0.00     0.235 C 
HETATM   19  O1  UNL     1      16.595  -6.544  26.608  1.00  0.00    -0.272 OA
HETATM   20  N4  UNL     1      15.550  -5.730  24.731  1.00  0.00    -0.364 N 
HETATM   21  C13 UNL     1      15.979  -6.902  23.961  1.00  0.00     0.149 C 
ATOM     22  H4  UNL     1      14.995  -5.002  24.282  1.00  0.00     0.161 HD
ENDBRANCH  17  18
ENDBRANCH   7  17
TORSDOF 4
ENDMDL
MODEL 5
REMARK VINA RESULT: -5.944195031      3.676      7.422
REMARK  4 active torsions:
REMARK  status: ('A' for Active; 'I' for Inactive)
REMARK       I    between atoms: C2_4  and  N2_5 
REMARK       I    between atoms: C2_4  and  N3_15 
REMARK    1  A    between atoms: N2_5  and  C3_7 
REMARK    2  A    between atoms: C4_8  and  C5_9 
REMARK    3  A    between atoms: N3_15  and  C11_17 
REMARK    4  A    between atoms: C11_17  and  C12_18 
REMARK       I    between atoms: C12_18  and  N4_20 
ROOT
HETATM    1  C1  UNL     1      17.983  -3.810  31.280  1.00  0.00     0.165 C 
HETATM    2  N1  UNL     1      16.555  -3.951  31.429  1.00  0.00    -0.230 N 
ATOM      3  H1  UNL     1      16.176  -4.278  32.318  1.00  0.00     0.177 HD
HETATM    4  C2  UNL     1      15.755  -3.677  30.473  1.00  0.00     0.681 C 
HETATM    5  N2  UNL     1      16.234  -3.231  29.250  1.00  0.00    -0.149 N 
ATOM      6  H2  UNL     1      16.583  -2.275  29.169  1.00  0.00     0.195 HD
HETATM    7  N3  UNL     1      14.363  -3.832  30.672  1.00  0.00    -0.217 N 
ATOM      8  H3  UNL     1      13.770  -3.008  30.575  1.00  0.00     0.178 HD
ENDROOT
BRANCH   5   9
HETATM    9  C3  UNL     1      16.251  -4.070  28.115  1.00  0.00     0.031 C 
HETATM   10  C4  UNL     1      16.252  -4.804  27.150  1.00  0.00    -0.048 C 
BRANCH  10  11
HETATM   11  C5  UNL     1      16.243  -5.698  26.013  1.00  0.00    -0.007 C 
HETATM   12  C6  UNL     1      15.422  -5.524  25.002  1.00  0.00    -0.011 C 
HETATM   13  C7  UNL     1      15.354  -6.391  23.810  1.00  0.00     0.028 C 
HETATM   14  C8  UNL     1      16.135  -7.668  23.951  1.00  0.00     0.004 C 
HETATM   15  C9  UNL     1      17.461  -7.299  24.583  1.00  0.00     0.006 C 
HETATM   16  C10 UNL     1      17.184  -6.834  25.996  1.00  0.00     0.048 C 
ENDBRANCH  10  11
ENDBRANCH   5   9
BRANCH   7  17
HETATM   17  C11 UNL     1      13.737  -5.077  31.003  1.00  0.00     0.240 C 
BRANCH  17  18
HETATM   18  C12 UNL     1      12.558  -5.002  31.865  1.00  0.00     0.235 C 
HETATM   19  O1  UNL     1      11.455  -5.393  31.337  1.00  0.00    -0.272 OA
HETATM   20  N4  UNL     1      12.540  -4.552  33.180  1.00  0.00    -0.364 N 
HETATM   21  C13 UNL     1      11.282  -4.529  33.934  1.00  0.00     0.149 C 
ATOM     22  H4  UNL     1      13.403  -4.236  33.622  1.00  0.00     0.161 HD
ENDBRANCH  17  18
ENDBRANCH   7  17
TORSDOF 4
ENDMDL
