MODEL 1
REMARK VINA RESULT: -6.623592734      0.000      0.000
REMARK  18 active torsions:
REMARK  status: ('A' for Active; 'I' for Inactive)
REMARK    1  A    between atoms: O1_2  and  C2_3 
REMARK    2  A    between atoms: C2_3  and  C3_4 
REMARK    3  A    between atoms: C3_4  and  O2_5 
REMARK    4  A    between atoms: O2_5  and  C4_6 
REMARK    5  A    between atoms: C4_6  and  C5_7 
REMARK    6  A    between atoms: C5_7  and  O3_8 
REMARK    7  A    between atoms: O3_8  and  C6_9 
REMARK    8  A    between atoms: C6_9  and  C7_10 
REMARK    9  A    between atoms: C7_10  and  O4_11 
REMARK   10  A    between atoms: O4_11  and  C8_12 
REMARK   11  A    between atoms: C8_12  and  C9_13 
REMARK   12  A    between atoms: C9_13  and  O5_14 
REMARK   13  A    between atoms: O5_14  and  C10_15 
REMARK   14  A    between atoms: C10_15  and  C11_16 
REMARK   15  A    between atoms: C11_16  and  O6_17 
REMARK   16  A    between atoms: O6_17  and  C12_18 
REMARK   17  A    between atoms: C12_18  and  C13_19 
REMARK   18  A    between atoms: C13_19  and  N1_20 
ROOT
HETATM    1  C11 UNL     1      42.371  21.912   3.683  1.00  0.00     0.193 C 
ENDROOT
BRANCH   1   2
HETATM    2  C10 UNL     1      43.655  21.163   3.837  1.00  0.00     0.193 C 
BRANCH   2   3
HETATM    3  O5  UNL     1      44.729  22.115   3.800  1.00  0.00    -0.387 OA
BRANCH   3   4
HETATM    4  C9  UNL     1      45.540  21.677   2.726  1.00  0.00     0.193 C 
BRANCH   4   5
HETATM    5  C8  UNL     1      45.466  22.672   1.583  1.00  0.00     0.193 C 
BRANCH   5   6
HETATM    6  O4  UNL     1      45.899  22.165   0.400  1.00  0.00    -0.387 OA
BRANCH   6   7
HETATM    7  C7  UNL     1      45.128  21.315  -0.300  1.00  0.00     0.193 C 
BRANCH   7   8
HETATM    8  C6  UNL     1      43.670  21.726  -0.494  1.00  0.00     0.193 C 
BRANCH   8   9
HETATM    9  O3  UNL     1      42.864  20.785   0.053  1.00  0.00    -0.387 OA
BRANCH   9  10
HETATM   10  C5  UNL     1      43.362  19.625   0.522  1.00  0.00     0.193 C 
BRANCH  10  11
HETATM   11  C4  UNL     1      42.743  18.368   0.033  1.00  0.00     0.193 C 
BRANCH  11  12
HETATM   12  O2  UNL     1      42.186  17.631   1.037  1.00  0.00    -0.387 OA
BRANCH  12  13
HETATM   13  C3  UNL     1      40.921  18.059   1.407  1.00  0.00     0.193 C 
BRANCH  13  14
HETATM   14  C2  UNL     1      39.917  17.903   0.283  1.00  0.00     0.193 C 
BRANCH  14  15
HETATM   15  O1  UNL     1      39.065  16.836   0.525  1.00  0.00    -0.394 OA
HETATM   16  C1  UNL     1      37.882  17.017  -0.181  1.00  0.00     0.201 C 
ENDBRANCH  14  15
ENDBRANCH  13  14
ENDBRANCH  12  13
ENDBRANCH  11  12
ENDBRANCH  10  11
ENDBRANCH   9  10
ENDBRANCH   8   9
ENDBRANCH   7   8
ENDBRANCH   6   7
ENDBRANCH   5   6
ENDBRANCH   4   5
ENDBRANCH   3   4
ENDBRANCH   2   3
ENDBRANCH   1   2
BRANCH   1  17
HETATM   17  O6  UNL     1      41.445  21.911   4.602  1.00  0.00    -0.387 OA
BRANCH  17  18
HETATM   18  C12 UNL     1      40.395  22.657   4.823  1.00  0.00     0.198 C 
BRANCH  18  19
HETATM   19  C13 UNL     1      40.270  23.888   3.994  1.00  0.00     0.299 C 
BRANCH  19  20
HETATM   20  N1  UNL     1      39.199  23.717   2.973  1.00  0.00     0.098 N 
HETATM   21  C14 UNL     1      38.646  25.024   2.769  1.00  0.00     0.312 C 
HETATM   22  C15 UNL     1      37.727  25.100   1.604  1.00  0.00    -0.018 A 
HETATM   23  C16 UNL     1      36.737  26.071   1.549  1.00  0.00     0.010 A 
HETATM   24  C24 UNL     1      37.856  24.215   0.569  1.00  0.00    -0.010 A 
HETATM   25  C17 UNL     1      35.898  26.134   0.460  1.00  0.00     0.002 A 
HETATM   26  C18 UNL     1      36.040  25.235  -0.576  1.00  0.00     0.012 A 
HETATM   27  C19 UNL     1      37.019  24.253  -0.552  1.00  0.00    -0.025 A 
HETATM   28  C20 UNL     1      37.136  23.369  -1.599  1.00  0.00     0.012 A 
HETATM   29  C21 UNL     1      38.109  22.410  -1.547  1.00  0.00     0.002 A 
HETATM   30  C22 UNL     1      38.942  22.353  -0.455  1.00  0.00     0.010 A 
HETATM   31  C23 UNL     1      38.830  23.251   0.617  1.00  0.00    -0.018 A 
HETATM   32  C25 UNL     1      39.737  23.150   1.766  1.00  0.00     0.312 C 
ENDBRANCH  19  20
ENDBRANCH  18  19
ENDBRANCH  17  18
ENDBRANCH   1  17
TORSDOF 18
ENDMDL
MODEL 2
REMARK VINA RESULT: -6.596289650      1.428      4.236
REMARK  18 active torsions:
REMARK  status: ('A' for Active; 'I' for Inactive)
REMARK    1  A    between atoms: O1_2  and  C2_3 
REMARK    2  A    between atoms: C2_3  and  C3_4 
REMARK    3  A    between atoms: C3_4  and  O2_5 
REMARK    4  A    between atoms: O2_5  and  C4_6 
REMARK    5  A    between atoms: C4_6  and  C5_7 
REMARK    6  A    between atoms: C5_7  and  O3_8 
REMARK    7  A    between atoms: O3_8  and  C6_9 
REMARK    8  A    between atoms: C6_9  and  C7_10 
REMARK    9  A    between atoms: C7_10  and  O4_11 
REMARK   10  A    between atoms: O4_11  and  C8_12 
REMARK   11  A    between atoms: C8_12  and  C9_13 
REMARK   12  A    between atoms: C9_13  and  O5_14 
REMARK   13  A    between atoms: O5_14  and  C10_15 
REMARK   14  A    between atoms: C10_15  and  C11_16 
REMARK   15  A    between atoms: C11_16  and  O6_17 
REMARK   16  A    between atoms: O6_17  and  C12_18 
REMARK   17  A    between atoms: C12_18  and  C13_19 
REMARK   18  A    between atoms: C13_19  and  N1_20 
ROOT
HETATM    1  C11 UNL     1      40.024  22.920   5.473  1.00  0.00     0.193 C 
ENDROOT
BRANCH   1   2
HETATM    2  C10 UNL     1      41.511  22.999   5.353  1.00  0.00     0.193 C 
BRANCH   2   3
HETATM    3  O5  UNL     1      41.960  21.838   4.638  1.00  0.00    -0.387 OA
BRANCH   3   4
HETATM    4  C9  UNL     1      41.745  22.167   3.278  1.00  0.00     0.193 C 
BRANCH   4   5
HETATM    5  C8  UNL     1      41.046  21.020   2.573  1.00  0.00     0.193 C 
BRANCH   5   6
HETATM    6  O4  UNL     1      41.115  19.848   3.254  1.00  0.00    -0.387 OA
BRANCH   6   7
HETATM    7  C7  UNL     1      41.785  18.800   2.743  1.00  0.00     0.193 C 
BRANCH   7   8
HETATM    8  C6  UNL     1      41.136  18.098   1.552  1.00  0.00     0.193 C 
BRANCH   8   9
HETATM    9  O3  UNL     1      42.104  17.665   0.708  1.00  0.00    -0.387 OA
BRANCH   9  10
HETATM   10  C5  UNL     1      42.328  18.276  -0.471  1.00  0.00     0.193 C 
BRANCH  10  11
HETATM   11  C4  UNL     1      43.588  19.045  -0.614  1.00  0.00     0.193 C 
BRANCH  11  12
HETATM   12  O2  UNL     1      43.440  20.362  -0.291  1.00  0.00    -0.387 OA
BRANCH  12  13
HETATM   13  C3  UNL     1      44.286  20.786   0.721  1.00  0.00     0.193 C 
BRANCH  13  14
HETATM   14  C2  UNL     1      45.436  21.618   0.189  1.00  0.00     0.193 C 
BRANCH  14  15
HETATM   15  O1  UNL     1      45.874  22.523   1.143  1.00  0.00    -0.394 OA
HETATM   16  C1  UNL     1      45.569  22.047   2.411  1.00  0.00     0.201 C 
ENDBRANCH  14  15
ENDBRANCH  13  14
ENDBRANCH  12  13
ENDBRANCH  11  12
ENDBRANCH  10  11
ENDBRANCH   9  10
ENDBRANCH   8   9
ENDBRANCH   7   8
ENDBRANCH   6   7
ENDBRANCH   5   6
ENDBRANCH   4   5
ENDBRANCH   3   4
ENDBRANCH   2   3
ENDBRANCH   1   2
BRANCH   1  17
HETATM   17  O6  UNL     1      39.240  23.905   5.134  1.00  0.00    -0.387 OA
BRANCH  17  18
HETATM   18  C12 UNL     1      38.679  24.264   4.009  1.00  0.00     0.198 C 
BRANCH  18  19
HETATM   19  C13 UNL     1      39.394  25.299   3.212  1.00  0.00     0.299 C 
BRANCH  19  20
HETATM   20  N1  UNL     1      38.956  25.249   1.789  1.00  0.00     0.098 N 
HETATM   21  C14 UNL     1      38.985  23.862   1.424  1.00  0.00     0.312 C 
HETATM   22  C15 UNL     1      38.345  23.584   0.113  1.00  0.00    -0.018 A 
HETATM   23  C16 UNL     1      38.709  22.468  -0.628  1.00  0.00     0.010 A 
HETATM   24  C24 UNL     1      37.382  24.425  -0.373  1.00  0.00    -0.010 A 
HETATM   25  C17 UNL     1      38.102  22.219  -1.837  1.00  0.00     0.002 A 
HETATM   26  C18 UNL     1      37.132  23.077  -2.314  1.00  0.00     0.012 A 
HETATM   27  C19 UNL     1      36.745  24.200  -1.599  1.00  0.00    -0.025 A 
HETATM   28  C20 UNL     1      35.776  25.038  -2.099  1.00  0.00     0.012 A 
HETATM   29  C21 UNL     1      35.416  26.139  -1.374  1.00  0.00     0.002 A 
HETATM   30  C22 UNL     1      36.029  26.381  -0.168  1.00  0.00     0.010 A 
HETATM   31  C23 UNL     1      37.018  25.531   0.351  1.00  0.00    -0.018 A 
HETATM   32  C25 UNL     1      37.650  25.831   1.642  1.00  0.00     0.312 C 
ENDBRANCH  19  20
ENDBRANCH  18  19
ENDBRANCH  17  18
ENDBRANCH   1  17
TORSDOF 18
ENDMDL
MODEL 3
REMARK VINA RESULT: -6.485109407      1.902      5.003
REMARK  18 active torsions:
REMARK  status: ('A' for Active; 'I' for Inactive)
REMARK    1  A    between atoms: O1_2  and  C2_3 
REMARK    2  A    between atoms: C2_3  and  C3_4 
REMARK    3  A    between atoms: C3_4  and  O2_5 
REMARK    4  A    between atoms: O2_5  and  C4_6 
REMARK    5  A    between atoms: C4_6  and  C5_7 
REMARK    6  A    between atoms: C5_7  and  O3_8 
REMARK    7  A    between atoms: O3_8  and  C6_9 
REMARK    8  A    between atoms: C6_9  and  C7_10 
REMARK    9  A    between atoms: C7_10  and  O4_11 
REMARK   10  A    between atoms: O4_11  and  C8_12 
REMARK   11  A    between atoms: C8_12  and  C9_13 
REMARK   12  A    between atoms: C9_13  and  O5_14 
REMARK   13  A    between atoms: O5_14  and  C10_15 
REMARK   14  A    between atoms: C10_15  and  C11_16 
REMARK   15  A    between atoms: C11_16  and  O6_17 
REMARK   16  A    between atoms: O6_17  and  C12_18 
REMARK   17  A    between atoms: C12_18  and  C13_19 
REMARK   18  A    between atoms: C13_19  and  N1_20 
ROOT
HETATM    1  C11 UNL     1      40.785  17.653   0.127  1.00  0.00     0.193 C 
ENDROOT
BRANCH   1   2
HETATM    2  C10 UNL     1      42.262  17.880   0.116  1.00  0.00     0.193 C 
BRANCH   2   3
HETATM    3  O5  UNL     1      42.694  18.047   1.476  1.00  0.00    -0.387 OA
BRANCH   3   4
HETATM    4  C9  UNL     1      42.872  19.444   1.611  1.00  0.00     0.193 C 
BRANCH   4   5
HETATM    5  C8  UNL     1      42.599  19.864   3.043  1.00  0.00     0.193 C 
BRANCH   5   6
HETATM    6  O4  UNL     1      43.454  20.817   3.496  1.00  0.00    -0.387 OA
BRANCH   6   7
HETATM    7  C7  UNL     1      43.959  21.735   2.655  1.00  0.00     0.193 C 
BRANCH   7   8
HETATM    8  C6  UNL     1      45.479  21.876   2.639  1.00  0.00     0.193 C 
BRANCH   8   9
HETATM    9  O3  UNL     1      45.960  21.389   1.469  1.00  0.00    -0.387 OA
BRANCH   9  10
HETATM   10  C5  UNL     1      45.477  21.809   0.285  1.00  0.00     0.193 C 
BRANCH  10  11
HETATM   11  C4  UNL     1      45.835  21.021  -0.919  1.00  0.00     0.193 C 
BRANCH  11  12
HETATM   12  O2  UNL     1      45.858  21.776  -2.055  1.00  0.00    -0.387 OA
BRANCH  12  13
HETATM   13  C3  UNL     1      45.070  21.271  -3.076  1.00  0.00     0.193 C 
BRANCH  13  14
HETATM   14  C2  UNL     1      43.652  21.804  -3.017  1.00  0.00     0.193 C 
BRANCH  14  15
HETATM   15  O1  UNL     1      43.545  23.003  -3.705  1.00  0.00    -0.394 OA
HETATM   16  C1  UNL     1      44.087  22.860  -4.976  1.00  0.00     0.201 C 
ENDBRANCH  14  15
ENDBRANCH  13  14
ENDBRANCH  12  13
ENDBRANCH  11  12
ENDBRANCH  10  11
ENDBRANCH   9  10
ENDBRANCH   8   9
ENDBRANCH   7   8
ENDBRANCH   6   7
ENDBRANCH   5   6
ENDBRANCH   4   5
ENDBRANCH   3   4
ENDBRANCH   2   3
ENDBRANCH   1   2
BRANCH   1  17
HETATM   17  O6  UNL     1      39.930  18.588  -0.185  1.00  0.00    -0.387 OA
BRANCH  17  18
HETATM   18  C12 UNL     1      39.766  19.344  -1.238  1.00  0.00     0.198 C 
BRANCH  18  19
HETATM   19  C13 UNL     1      40.261  20.745  -1.132  1.00  0.00     0.299 C 
BRANCH  19  20
HETATM   20  N1  UNL     1      39.426  21.515  -0.168  1.00  0.00     0.098 N 
HETATM   21  C14 UNL     1      40.284  21.800   0.945  1.00  0.00     0.312 C 
HETATM   22  C15 UNL     1      39.702  22.774   1.904  1.00  0.00    -0.018 A 
HETATM   23  C16 UNL     1      40.106  22.785   3.232  1.00  0.00     0.010 A 
HETATM   24  C24 UNL     1      38.764  23.676   1.482  1.00  0.00    -0.010 A 
HETATM   25  C17 UNL     1      39.564  23.698   4.107  1.00  0.00     0.002 A 
HETATM   26  C18 UNL     1      38.619  24.602   3.666  1.00  0.00     0.012 A 
HETATM   27  C19 UNL     1      38.193  24.617   2.347  1.00  0.00    -0.025 A 
HETATM   28  C20 UNL     1      37.249  25.529   1.936  1.00  0.00     0.012 A 
HETATM   29  C21 UNL     1      36.846  25.519   0.630  1.00  0.00     0.002 A 
HETATM   30  C22 UNL     1      37.392  24.603  -0.237  1.00  0.00     0.010 A 
HETATM   31  C23 UNL     1      38.357  23.670   0.173  1.00  0.00    -0.018 A 
HETATM   32  C25 UNL     1      38.909  22.706  -0.786  1.00  0.00     0.312 C 
ENDBRANCH  19  20
ENDBRANCH  18  19
ENDBRANCH  17  18
ENDBRANCH   1  17
TORSDOF 18
ENDMDL
MODEL 4
REMARK VINA RESULT: -6.430484063      1.661      3.807
REMARK  18 active torsions:
REMARK  status: ('A' for Active; 'I' for Inactive)
REMARK    1  A    between atoms: O1_2  and  C2_3 
REMARK    2  A    between atoms: C2_3  and  C3_4 
REMARK    3  A    between atoms: C3_4  and  O2_5 
REMARK    4  A    between atoms: O2_5  and  C4_6 
REMARK    5  A    between atoms: C4_6  and  C5_7 
REMARK    6  A    between atoms: C5_7  and  O3_8 
REMARK    7  A    between atoms: O3_8  and  C6_9 
REMARK    8  A    between atoms: C6_9  and  C7_10 
REMARK    9  A    between atoms: C7_10  and  O4_11 
REMARK   10  A    between atoms: O4_11  and  C8_12 
REMARK   11  A    between atoms: C8_12  and  C9_13 
REMARK   12  A    between atoms: C9_13  and  O5_14 
REMARK   13  A    between atoms: O5_14  and  C10_15 
REMARK   14  A    between atoms: C10_15  and  C11_16 
REMARK   15  A    between atoms: C11_16  and  O6_17 
REMARK   16  A    between atoms: O6_17  and  C12_18 
REMARK   17  A    between atoms: C12_18  and  C13_19 
REMARK   18  A    between atoms: C13_19  and  N1_20 
ROOT
HETATM    1  C11 UNL     1      43.850  21.637  -0.483  1.00  0.00     0.193 C 
ENDROOT
BRANCH   1   2
HETATM    2  C10 UNL     1      43.912  22.113   0.932  1.00  0.00     0.193 C 
BRANCH   2   3
HETATM    3  O5  UNL     1      44.973  21.406   1.591  1.00  0.00    -0.387 OA
BRANCH   3   4
HETATM    4  C9  UNL     1      44.724  21.618   2.968  1.00  0.00     0.193 C 
BRANCH   4   5
HETATM    5  C8  UNL     1      43.277  21.294   3.288  1.00  0.00     0.193 C 
BRANCH   5   6
HETATM    6  O4  UNL     1      43.087  20.004   3.671  1.00  0.00    -0.387 OA
BRANCH   6   7
HETATM    7  C7  UNL     1      42.193  19.229   3.033  1.00  0.00     0.193 C 
BRANCH   7   8
HETATM    8  C6  UNL     1      42.595  18.733   1.646  1.00  0.00     0.193 C 
BRANCH   8   9
HETATM    9  O3  UNL     1      41.700  17.805   1.228  1.00  0.00    -0.387 OA
BRANCH   9  10
HETATM   10  C5  UNL     1      41.445  17.619  -0.081  1.00  0.00     0.193 C 
BRANCH  10  11
HETATM   11  C4  UNL     1      40.281  16.772  -0.438  1.00  0.00     0.193 C 
BRANCH  11  12
HETATM   12  O2  UNL     1      39.189  17.025   0.338  1.00  0.00    -0.387 OA
BRANCH  12  13
HETATM   13  C3  UNL     1      38.002  17.090  -0.374  1.00  0.00     0.193 C 
BRANCH  13  14
HETATM   14  C2  UNL     1      37.985  18.253  -1.346  1.00  0.00     0.193 C 
BRANCH  14  15
HETATM   15  O1  UNL     1      36.710  18.459  -1.850  1.00  0.00    -0.394 OA
HETATM   16  C1  UNL     1      36.505  19.817  -2.055  1.00  0.00     0.201 C 
ENDBRANCH  14  15
ENDBRANCH  13  14
ENDBRANCH  12  13
ENDBRANCH  11  12
ENDBRANCH  10  11
ENDBRANCH   9  10
ENDBRANCH   8   9
ENDBRANCH   7   8
ENDBRANCH   6   7
ENDBRANCH   5   6
ENDBRANCH   4   5
ENDBRANCH   3   4
ENDBRANCH   2   3
ENDBRANCH   1   2
BRANCH   1  17
HETATM   17  O6  UNL     1      42.868  20.907  -0.934  1.00  0.00    -0.387 OA
BRANCH  17  18
HETATM   18  C12 UNL     1      41.848  21.151  -1.715  1.00  0.00     0.198 C 
BRANCH  18  19
HETATM   19  C13 UNL     1      40.497  21.017  -1.103  1.00  0.00     0.299 C 
BRANCH  19  20
HETATM   20  N1  UNL     1      40.223  22.169  -0.198  1.00  0.00     0.098 N 
HETATM   21  C14 UNL     1      38.970  22.713  -0.634  1.00  0.00     0.312 C 
HETATM   22  C15 UNL     1      38.407  23.720   0.302  1.00  0.00    -0.018 A 
HETATM   23  C16 UNL     1      37.530  24.694  -0.155  1.00  0.00     0.010 A 
HETATM   24  C24 UNL     1      38.745  23.690   1.627  1.00  0.00    -0.010 A 
HETATM   25  C17 UNL     1      37.011  25.616   0.726  1.00  0.00     0.002 A 
HETATM   26  C18 UNL     1      37.361  25.572   2.060  1.00  0.00     0.012 A 
HETATM   27  C19 UNL     1      38.234  24.612   2.547  1.00  0.00    -0.025 A 
HETATM   28  C20 UNL     1      38.566  24.594   3.882  1.00  0.00     0.012 A 
HETATM   29  C21 UNL     1      39.431  23.637   4.334  1.00  0.00     0.002 A 
HETATM   30  C22 UNL     1      39.946  22.722   3.448  1.00  0.00     0.010 A 
HETATM   31  C23 UNL     1      39.613  22.732   2.085  1.00  0.00    -0.018 A 
HETATM   32  C25 UNL     1      40.191  21.738   1.173  1.00  0.00     0.312 C 
ENDBRANCH  19  20
ENDBRANCH  18  19
ENDBRANCH  17  18
ENDBRANCH   1  17
TORSDOF 18
ENDMDL
MODEL 5
REMARK VINA RESULT: -6.335729467      1.752      3.104
REMARK  18 active torsions:
REMARK  status: ('A' for Active; 'I' for Inactive)
REMARK    1  A    between atoms: O1_2  and  C2_3 
REMARK    2  A    between atoms: C2_3  and  C3_4 
REMARK    3  A    between atoms: C3_4  and  O2_5 
REMARK    4  A    between atoms: O2_5  and  C4_6 
REMARK    5  A    between atoms: C4_6  and  C5_7 
REMARK    6  A    between atoms: C5_7  and  O3_8 
REMARK    7  A    between atoms: O3_8  and  C6_9 
REMARK    8  A    between atoms: C6_9  and  C7_10 
REMARK    9  A    between atoms: C7_10  and  O4_11 
REMARK   10  A    between atoms: O4_11  and  C8_12 
REMARK   11  A    between atoms: C8_12  and  C9_13 
REMARK   12  A    between atoms: C9_13  and  O5_14 
REMARK   13  A    between atoms: O5_14  and  C10_15 
REMARK   14  A    between atoms: C10_15  and  C11_16 
REMARK   15  A    between atoms: C11_16  and  O6_17 
REMARK   16  A    between atoms: O6_17  and  C12_18 
REMARK   17  A    between atoms: C12_18  and  C13_19 
REMARK   18  A    between atoms: C13_19  and  N1_20 
ROOT
HETATM    1  C11 UNL     1      44.986  21.959   2.012  1.00  0.00     0.193 C 
ENDROOT
BRANCH   1   2
HETATM    2  C10 UNL     1      44.674  21.767   0.563  1.00  0.00     0.193 C 
BRANCH   2   3
HETATM    3  O5  UNL     1      45.890  21.945  -0.179  1.00  0.00    -0.387 OA
BRANCH   3   4
HETATM    4  C9  UNL     1      45.847  20.924  -1.158  1.00  0.00     0.193 C 
BRANCH   4   5
HETATM    5  C8  UNL     1      46.164  21.503  -2.524  1.00  0.00     0.193 C 
BRANCH   5   6
HETATM    6  O4  UNL     1      45.175  22.295  -3.014  1.00  0.00    -0.387 OA
BRANCH   6   7
HETATM    7  C7  UNL     1      44.048  21.752  -3.506  1.00  0.00     0.193 C 
BRANCH   7   8
HETATM    8  C6  UNL     1      42.741  22.204  -2.860  1.00  0.00     0.193 C 
BRANCH   8   9
HETATM    9  O3  UNL     1      42.313  21.247  -2.001  1.00  0.00    -0.387 OA
BRANCH   9  10
HETATM   10  C5  UNL     1      42.323  19.945  -2.343  1.00  0.00     0.193 C 
BRANCH  10  11
HETATM   11  C4  UNL     1      42.684  18.963  -1.291  1.00  0.00     0.193 C 
BRANCH  11  12
HETATM   12  O2  UNL     1      41.744  17.987  -1.138  1.00  0.00    -0.387 OA
BRANCH  12  13
HETATM   13  C3  UNL     1      41.521  17.631   0.182  1.00  0.00     0.193 C 
BRANCH  13  14
HETATM   14  C2  UNL     1      40.049  17.673   0.541  1.00  0.00     0.193 C 
BRANCH  14  15
HETATM   15  O1  UNL     1      39.343  18.461  -0.355  1.00  0.00    -0.394 OA
HETATM   16  C1  UNL     1      38.201  17.786  -0.768  1.00  0.00     0.201 C 
ENDBRANCH  14  15
ENDBRANCH  13  14
ENDBRANCH  12  13
ENDBRANCH  11  12
ENDBRANCH  10  11
ENDBRANCH   9  10
ENDBRANCH   8   9
ENDBRANCH   7   8
ENDBRANCH   6   7
ENDBRANCH   5   6
ENDBRANCH   4   5
ENDBRANCH   3   4
ENDBRANCH   2   3
ENDBRANCH   1   2
BRANCH   1  17
HETATM   17  O6  UNL     1      44.571  21.134   2.933  1.00  0.00    -0.387 OA
BRANCH  17  18
HETATM   18  C12 UNL     1      43.447  21.007   3.588  1.00  0.00     0.198 C 
BRANCH  18  19
HETATM   19  C13 UNL     1      42.441  20.078   3.004  1.00  0.00     0.299 C 
BRANCH  19  20
HETATM   20  N1  UNL     1      41.169  20.802   2.726  1.00  0.00     0.098 N 
HETATM   21  C14 UNL     1      41.192  21.961   3.570  1.00  0.00     0.312 C 
HETATM   22  C15 UNL     1      40.118  22.940   3.257  1.00  0.00    -0.018 A 
HETATM   23  C16 UNL     1      39.660  23.819   4.228  1.00  0.00     0.010 A 
HETATM   24  C24 UNL     1      39.578  22.987   2.001  1.00  0.00    -0.010 A 
HETATM   25  C17 UNL     1      38.671  24.725   3.921  1.00  0.00     0.002 A 
HETATM   26  C18 UNL     1      38.136  24.761   2.650  1.00  0.00     0.012 A 
HETATM   27  C19 UNL     1      38.571  23.897   1.657  1.00  0.00    -0.025 A 
HETATM   28  C20 UNL     1      38.018  23.955   0.399  1.00  0.00     0.012 A 
HETATM   29  C21 UNL     1      38.466  23.089  -0.559  1.00  0.00     0.002 A 
HETATM   30  C22 UNL     1      39.453  22.186  -0.244  1.00  0.00     0.010 A 
HETATM   31  C23 UNL     1      40.023  22.121   1.037  1.00  0.00    -0.018 A 
HETATM   32  C25 UNL     1      41.072  21.137   1.331  1.00  0.00     0.312 C 
ENDBRANCH  19  20
ENDBRANCH  18  19
ENDBRANCH  17  18
ENDBRANCH   1  17
TORSDOF 18
ENDMDL
