MODEL 1
REMARK VINA RESULT: -7.997259066      0.000      0.000
REMARK  12 active torsions:
REMARK  status: ('A' for Active; 'I' for Inactive)
REMARK    1  A    between atoms: C2_2  and  O1_4 
REMARK    2  A    between atoms: C2_2  and  C4_6 
REMARK    3  A    between atoms: C4_6  and  C5_8 
REMARK    4  A    between atoms: C5_8  and  N3_19 
REMARK    5  A    between atoms: N1_9  and  O3_11 
REMARK    6  A    between atoms: O3_11  and  C6_12 
REMARK    7  A    between atoms: C6_12  and  C7_14 
REMARK    8  A    between atoms: C7_14  and  N2_15 
REMARK    9  A    between atoms: N3_19  and  N4_21 
REMARK   10  A    between atoms: N4_21  and  C8_23 
REMARK   11  A    between atoms: C11_26  and  N5_27 
REMARK   12  A    between atoms: C13_31  and  N6_32 
ROOT
HETATM    1  C5  UNL     1      36.583  41.184  39.458  1.00  0.00     0.190 C 
HETATM    2  N1  UNL     1      37.844  41.303  39.218  1.00  0.00    -0.237 N 
ATOM      3  H1  UNL     1      38.512  40.868  39.854  1.00  0.00     0.197 HD
ENDROOT
BRANCH   1   4
HETATM    4  C4  UNL     1      36.052  40.459  40.592  1.00  0.00     0.229 C 
HETATM    5  O2  UNL     1      35.381  41.057  41.464  1.00  0.00    -0.286 OA
BRANCH   4   6
HETATM    6  C2  UNL     1      36.274  39.014  40.761  1.00  0.00     0.118 C 
HETATM    7  C1  UNL     1      35.848  38.272  39.500  1.00  0.00     0.054 C 
HETATM    8  C3  UNL     1      35.416  38.547  41.918  1.00  0.00     0.054 C 
BRANCH   6   9
HETATM    9  O1  UNL     1      37.605  38.736  40.961  1.00  0.00    -0.382 OA
ATOM     10  H1  UNL     1      38.098  39.303  40.380  1.00  0.00     0.211 HD
ENDBRANCH   6   9
ENDBRANCH   4   6
ENDBRANCH   1   4
BRANCH   1  11
HETATM   11  N3  UNL     1      35.674  41.803  38.557  1.00  0.00    -0.281 N 
ATOM     12  H3  UNL     1      35.411  41.305  37.706  1.00  0.00     0.188 HD
BRANCH  11  13
HETATM   13  N4  UNL     1      35.121  43.076  38.794  1.00  0.00    -0.297 N 
ATOM     14  H4  UNL     1      35.721  43.844  39.092  1.00  0.00     0.187 HD
BRANCH  13  15
HETATM   15  C8  UNL     1      33.730  43.290  38.617  1.00  0.00     0.081 A 
HETATM   16  C9  UNL     1      33.133  42.747  37.474  1.00  0.00     0.036 A 
HETATM   17  C10 UNL     1      31.800  42.894  37.184  1.00  0.00     0.038 A 
HETATM   18  C11 UNL     1      31.023  43.613  38.067  1.00  0.00     0.105 A 
HETATM   19  C12 UNL     1      31.596  44.150  39.190  1.00  0.00     0.074 A 
HETATM   20  C13 UNL     1      32.960  44.006  39.500  1.00  0.00     0.133 A 
BRANCH  18  21
HETATM   21  N5  UNL     1      29.620  43.795  37.805  1.00  0.00    -0.116 N 
HETATM   22  O5  UNL     1      28.926  44.375  38.661  1.00  0.00    -0.532 OA
HETATM   23  O6  UNL     1      29.068  43.335  36.633  1.00  0.00    -0.532 OA
ENDBRANCH  18  21
BRANCH  20  24
HETATM   24  N6  UNL     1      33.474  44.595  40.681  1.00  0.00    -0.113 N 
HETATM   25  O7  UNL     1      33.505  45.804  40.903  1.00  0.00    -0.532 OA
HETATM   26  O8  UNL     1      34.022  43.787  41.672  1.00  0.00    -0.532 OA
ENDBRANCH  20  24
ENDBRANCH  13  15
ENDBRANCH  11  13
ENDBRANCH   1  11
BRANCH   2  27
HETATM   27  O3  UNL     1      38.313  41.995  38.139  1.00  0.00    -0.196 OA
BRANCH  27  28
HETATM   28  C6  UNL     1      39.347  41.509  37.361  1.00  0.00     0.306 C 
HETATM   29  O4  UNL     1      39.350  40.337  36.916  1.00  0.00    -0.261 OA
BRANCH  28  30
HETATM   30  C7  UNL     1      40.497  42.401  37.039  1.00  0.00     0.342 C 
BRANCH  30  31
HETATM   31  N2  UNL     1      41.458  42.461  38.096  1.00  0.00    -0.070 N 
ATOM     32  H23 UNL     1      41.882  43.387  38.152  1.00  0.00     0.274 HD
ATOM     33  H22 UNL     1      41.002  42.432  39.008  1.00  0.00     0.274 HD
ATOM     34  H21 UNL     1      42.171  41.735  38.019  1.00  0.00     0.274 HD
ENDBRANCH  30  31
ENDBRANCH  28  30
ENDBRANCH  27  28
ENDBRANCH   2  27
TORSDOF 12
ENDMDL
MODEL 2
REMARK VINA RESULT: -7.818662342      1.937      4.076
REMARK  12 active torsions:
REMARK  status: ('A' for Active; 'I' for Inactive)
REMARK    1  A    between atoms: C2_2  and  O1_4 
REMARK    2  A    between atoms: C2_2  and  C4_6 
REMARK    3  A    between atoms: C4_6  and  C5_8 
REMARK    4  A    between atoms: C5_8  and  N3_19 
REMARK    5  A    between atoms: N1_9  and  O3_11 
REMARK    6  A    between atoms: O3_11  and  C6_12 
REMARK    7  A    between atoms: C6_12  and  C7_14 
REMARK    8  A    between atoms: C7_14  and  N2_15 
REMARK    9  A    between atoms: N3_19  and  N4_21 
REMARK   10  A    between atoms: N4_21  and  C8_23 
REMARK   11  A    between atoms: C11_26  and  N5_27 
REMARK   12  A    between atoms: C13_31  and  N6_32 
ROOT
HETATM    1  C5  UNL     1      36.207  41.543  40.574  1.00  0.00     0.190 C 
HETATM    2  N1  UNL     1      35.827  40.888  41.618  1.00  0.00    -0.237 N 
ATOM      3  H1  UNL     1      36.072  39.901  41.699  1.00  0.00     0.197 HD
ENDROOT
BRANCH   1   4
HETATM    4  C4  UNL     1      36.971  40.952  39.497  1.00  0.00     0.229 C 
HETATM    5  O2  UNL     1      37.426  41.673  38.578  1.00  0.00    -0.286 OA
BRANCH   4   6
HETATM    6  C2  UNL     1      37.242  39.508  39.439  1.00  0.00     0.118 C 
HETATM    7  C1  UNL     1      38.317  39.222  38.397  1.00  0.00     0.054 C 
HETATM    8  C3  UNL     1      35.962  38.813  39.026  1.00  0.00     0.054 C 
BRANCH   6   9
HETATM    9  O1  UNL     1      37.715  39.043  40.643  1.00  0.00    -0.382 OA
ATOM     10  H1  UNL     1      37.786  38.098  40.568  1.00  0.00     0.211 HD
ENDBRANCH   6   9
ENDBRANCH   4   6
ENDBRANCH   1   4
BRANCH   1  11
HETATM   11  N3  UNL     1      35.850  42.916  40.485  1.00  0.00    -0.281 N 
ATOM     12  H3  UNL     1      35.887  43.488  41.329  1.00  0.00     0.188 HD
BRANCH  11  13
HETATM   13  N4  UNL     1      35.449  43.517  39.277  1.00  0.00    -0.297 N 
ATOM     14  H4  UNL     1      36.147  43.915  38.648  1.00  0.00     0.187 HD
BRANCH  13  15
HETATM   15  C8  UNL     1      34.074  43.571  38.933  1.00  0.00     0.081 A 
HETATM   16  C9  UNL     1      33.672  42.903  37.771  1.00  0.00     0.036 A 
HETATM   17  C10 UNL     1      32.374  42.890  37.326  1.00  0.00     0.038 A 
HETATM   18  C11 UNL     1      31.431  43.570  38.066  1.00  0.00     0.105 A 
HETATM   19  C12 UNL     1      31.811  44.228  39.206  1.00  0.00     0.074 A 
HETATM   20  C13 UNL     1      33.138  44.249  39.674  1.00  0.00     0.133 A 
BRANCH  18  21
HETATM   21  N5  UNL     1      30.057  43.586  37.638  1.00  0.00    -0.116 N 
HETATM   22  O5  UNL     1      29.791  43.205  36.483  1.00  0.00    -0.532 OA
HETATM   23  O6  UNL     1      29.069  44.015  38.492  1.00  0.00    -0.532 OA
ENDBRANCH  18  21
BRANCH  20  24
HETATM   24  N6  UNL     1      33.449  44.957  40.861  1.00  0.00    -0.113 N 
HETATM   25  O7  UNL     1      33.288  46.166  41.018  1.00  0.00    -0.532 OA
HETATM   26  O8  UNL     1      34.007  44.280  41.941  1.00  0.00    -0.532 OA
ENDBRANCH  20  24
ENDBRANCH  13  15
ENDBRANCH  11  13
ENDBRANCH   1  11
BRANCH   2  27
HETATM   27  O3  UNL     1      35.106  41.475  42.617  1.00  0.00    -0.196 OA
BRANCH  27  28
HETATM   28  C6  UNL     1      34.123  40.785  43.302  1.00  0.00     0.306 C 
HETATM   29  O4  UNL     1      32.910  40.879  42.996  1.00  0.00    -0.261 OA
BRANCH  28  30
HETATM   30  C7  UNL     1      34.509  39.904  44.439  1.00  0.00     0.342 C 
BRANCH  30  31
HETATM   31  N2  UNL     1      34.239  40.498  45.711  1.00  0.00    -0.070 N 
ATOM     32  H23 UNL     1      34.482  41.488  45.711  1.00  0.00     0.274 HD
ATOM     33  H22 UNL     1      33.235  40.575  45.874  1.00  0.00     0.274 HD
ATOM     34  H21 UNL     1      34.699  40.007  46.478  1.00  0.00     0.274 HD
ENDBRANCH  30  31
ENDBRANCH  28  30
ENDBRANCH  27  28
ENDBRANCH   2  27
TORSDOF 12
ENDMDL
MODEL 3
REMARK VINA RESULT: -7.458834734      1.161      1.663
REMARK  12 active torsions:
REMARK  status: ('A' for Active; 'I' for Inactive)
REMARK    1  A    between atoms: C2_2  and  O1_4 
REMARK    2  A    between atoms: C2_2  and  C4_6 
REMARK    3  A    between atoms: C4_6  and  C5_8 
REMARK    4  A    between atoms: C5_8  and  N3_19 
REMARK    5  A    between atoms: N1_9  and  O3_11 
REMARK    6  A    between atoms: O3_11  and  C6_12 
REMARK    7  A    between atoms: C6_12  and  C7_14 
REMARK    8  A    between atoms: C7_14  and  N2_15 
REMARK    9  A    between atoms: N3_19  and  N4_21 
REMARK   10  A    between atoms: N4_21  and  C8_23 
REMARK   11  A    between atoms: C11_26  and  N5_27 
REMARK   12  A    between atoms: C13_31  and  N6_32 
ROOT
HETATM    1  C5  UNL     1      36.530  41.972  39.572  1.00  0.00     0.190 C 
HETATM    2  N1  UNL     1      37.725  41.682  39.184  1.00  0.00    -0.237 N 
ATOM      3  H1  UNL     1      38.429  41.450  39.885  1.00  0.00     0.197 HD
ENDROOT
BRANCH   1   4
HETATM    4  C4  UNL     1      36.124  41.989  40.960  1.00  0.00     0.229 C 
HETATM    5  O2  UNL     1      36.699  42.747  41.776  1.00  0.00    -0.286 OA
BRANCH   4   6
HETATM    6  C2  UNL     1      35.037  41.134  41.460  1.00  0.00     0.118 C 
HETATM    7  C1  UNL     1      35.143  40.991  42.974  1.00  0.00     0.054 C 
HETATM    8  C3  UNL     1      35.193  39.767  40.827  1.00  0.00     0.054 C 
BRANCH   6   9
HETATM    9  O1  UNL     1      33.806  41.687  41.195  1.00  0.00    -0.382 OA
ATOM     10  H1  UNL     1      33.618  42.297  41.898  1.00  0.00     0.211 HD
ENDBRANCH   6   9
ENDBRANCH   4   6
ENDBRANCH   1   4
BRANCH   1  11
HETATM   11  N3  UNL     1      35.568  42.294  38.575  1.00  0.00    -0.281 N 
ATOM     12  H3  UNL     1      35.349  41.598  37.863  1.00  0.00     0.188 HD
BRANCH  11  13
HETATM   13  N4  UNL     1      34.907  43.536  38.534  1.00  0.00    -0.297 N 
ATOM     14  H4  UNL     1      35.444  44.402  38.594  1.00  0.00     0.187 HD
BRANCH  13  15
HETATM   15  C8  UNL     1      33.495  43.585  38.408  1.00  0.00     0.081 A 
HETATM   16  C9  UNL     1      32.918  42.904  37.331  1.00  0.00     0.036 A 
HETATM   17  C10 UNL     1      31.567  42.884  37.095  1.00  0.00     0.038 A 
HETATM   18  C11 UNL     1      30.750  43.573  37.965  1.00  0.00     0.105 A 
HETATM   19  C12 UNL     1      31.302  44.244  39.024  1.00  0.00     0.074 A 
HETATM   20  C13 UNL     1      32.685  44.271  39.279  1.00  0.00     0.133 A 
BRANCH  18  21
HETATM   21  N5  UNL     1      29.326  43.583  37.757  1.00  0.00    -0.116 N 
HETATM   22  O5  UNL     1      28.626  44.320  38.476  1.00  0.00    -0.532 OA
HETATM   23  O6  UNL     1      28.761  42.791  36.785  1.00  0.00    -0.532 OA
ENDBRANCH  18  21
BRANCH  20  24
HETATM   24  N6  UNL     1      33.176  44.993  40.394  1.00  0.00    -0.113 N 
HETATM   25  O7  UNL     1      34.138  44.652  41.080  1.00  0.00    -0.532 OA
HETATM   26  O8  UNL     1      32.534  46.160  40.797  1.00  0.00    -0.532 OA
ENDBRANCH  20  24
ENDBRANCH  13  15
ENDBRANCH  11  13
ENDBRANCH   1  11
BRANCH   2  27
HETATM   27  O3  UNL     1      38.077  41.675  37.866  1.00  0.00    -0.196 OA
BRANCH  27  28
HETATM   28  C6  UNL     1      39.208  41.016  37.422  1.00  0.00     0.306 C 
HETATM   29  O4  UNL     1      39.294  39.765  37.429  1.00  0.00    -0.261 OA
BRANCH  28  30
HETATM   30  C7  UNL     1      40.364  41.811  36.919  1.00  0.00     0.342 C 
BRANCH  30  31
HETATM   31  N2  UNL     1      41.135  42.388  37.975  1.00  0.00    -0.070 N 
ATOM     32  H23 UNL     1      41.115  43.406  37.929  1.00  0.00     0.274 HD
ATOM     33  H22 UNL     1      40.678  42.254  38.877  1.00  0.00     0.274 HD
ATOM     34  H21 UNL     1      42.094  42.040  37.995  1.00  0.00     0.274 HD
ENDBRANCH  30  31
ENDBRANCH  28  30
ENDBRANCH  27  28
ENDBRANCH   2  27
TORSDOF 12
ENDMDL
MODEL 4
REMARK VINA RESULT: -7.444554902      3.063      6.797
REMARK  12 active torsions:
REMARK  status: ('A' for Active; 'I' for Inactive)
REMARK    1  A    between atoms: C2_2  and  O1_4 
REMARK    2  A    between atoms: C2_2  and  C4_6 
REMARK    3  A    between atoms: C4_6  and  C5_8 
REMARK    4  A    between atoms: C5_8  and  N3_19 
REMARK    5  A    between atoms: N1_9  and  O3_11 
REMARK    6  A    between atoms: O3_11  and  C6_12 
REMARK    7  A    between atoms: C6_12  and  C7_14 
REMARK    8  A    between atoms: C7_14  and  N2_15 
REMARK    9  A    between atoms: N3_19  and  N4_21 
REMARK   10  A    between atoms: N4_21  and  C8_23 
REMARK   11  A    between atoms: C11_26  and  N5_27 
REMARK   12  A    between atoms: C13_31  and  N6_32 
ROOT
HETATM    1  C5  UNL     1      33.866  42.903  37.881  1.00  0.00     0.190 C 
HETATM    2  N1  UNL     1      34.220  44.089  38.242  1.00  0.00    -0.237 N 
ATOM      3  H1  UNL     1      33.632  44.881  37.982  1.00  0.00     0.197 HD
ENDROOT
BRANCH   1   4
HETATM    4  C4  UNL     1      32.668  42.625  37.119  1.00  0.00     0.229 C 
HETATM    5  O2  UNL     1      32.538  41.528  36.527  1.00  0.00    -0.286 OA
BRANCH   4   6
HETATM    6  C2  UNL     1      31.573  43.600  37.013  1.00  0.00     0.118 C 
HETATM    7  C1  UNL     1      30.833  43.697  38.342  1.00  0.00     0.054 C 
HETATM    8  C3  UNL     1      30.613  43.105  35.952  1.00  0.00     0.054 C 
BRANCH   6   9
HETATM    9  O1  UNL     1      32.053  44.857  36.728  1.00  0.00    -0.382 OA
ATOM     10  H1  UNL     1      32.936  44.749  36.398  1.00  0.00     0.211 HD
ENDBRANCH   6   9
ENDBRANCH   4   6
ENDBRANCH   1   4
BRANCH   1  11
HETATM   11  N3  UNL     1      34.705  41.817  38.254  1.00  0.00    -0.281 N 
ATOM     12  H3  UNL     1      34.989  41.148  37.538  1.00  0.00     0.188 HD
BRANCH  11  13
HETATM   13  N4  UNL     1      35.159  41.629  39.574  1.00  0.00    -0.297 N 
ATOM     14  H4  UNL     1      35.390  42.436  40.153  1.00  0.00     0.187 HD
BRANCH  13  15
HETATM   15  C8  UNL     1      35.294  40.318  40.098  1.00  0.00     0.081 A 
HETATM   16  C9  UNL     1      35.706  39.310  39.219  1.00  0.00     0.036 A 
HETATM   17  C10 UNL     1      35.863  38.002  39.601  1.00  0.00     0.038 A 
HETATM   18  C11 UNL     1      35.600  37.677  40.915  1.00  0.00     0.105 A 
HETATM   19  C12 UNL     1      35.196  38.654  41.786  1.00  0.00     0.074 A 
HETATM   20  C13 UNL     1      35.032  39.999  41.408  1.00  0.00     0.133 A 
BRANCH  18  21
HETATM   21  N5  UNL     1      35.749  36.317  41.362  1.00  0.00    -0.116 N 
HETATM   22  O5  UNL     1      34.997  35.903  42.263  1.00  0.00    -0.532 OA
HETATM   23  O6  UNL     1      36.705  35.504  40.801  1.00  0.00    -0.532 OA
ENDBRANCH  18  21
BRANCH  20  24
HETATM   24  N6  UNL     1      34.607  40.949  42.369  1.00  0.00    -0.113 N 
HETATM   25  O7  UNL     1      35.282  41.900  42.758  1.00  0.00    -0.532 OA
HETATM   26  O8  UNL     1      33.357  40.815  42.964  1.00  0.00    -0.532 OA
ENDBRANCH  20  24
ENDBRANCH  13  15
ENDBRANCH  11  13
ENDBRANCH   1  11
BRANCH   2  27
HETATM   27  O3  UNL     1      35.358  44.318  38.960  1.00  0.00    -0.196 OA
BRANCH  27  28
HETATM   28  C6  UNL     1      35.320  44.544  40.323  1.00  0.00     0.306 C 
HETATM   29  O4  UNL     1      36.337  44.419  41.047  1.00  0.00    -0.261 OA
BRANCH  28  30
HETATM   30  C7  UNL     1      34.034  44.947  40.959  1.00  0.00     0.342 C 
BRANCH  30  31
HETATM   31  N2  UNL     1      33.398  43.867  41.647  1.00  0.00    -0.070 N 
ATOM     32  H23 UNL     1      32.514  44.165  42.058  1.00  0.00     0.274 HD
ATOM     33  H22 UNL     1      33.048  43.170  40.989  1.00  0.00     0.274 HD
ATOM     34  H21 UNL     1      34.003  43.439  42.347  1.00  0.00     0.274 HD
ENDBRANCH  30  31
ENDBRANCH  28  30
ENDBRANCH  27  28
ENDBRANCH   2  27
TORSDOF 12
ENDMDL
MODEL 5
REMARK VINA RESULT: -7.314708942      1.899      3.789
REMARK  12 active torsions:
REMARK  status: ('A' for Active; 'I' for Inactive)
REMARK    1  A    between atoms: C2_2  and  O1_4 
REMARK    2  A    between atoms: C2_2  and  C4_6 
REMARK    3  A    between atoms: C4_6  and  C5_8 
REMARK    4  A    between atoms: C5_8  and  N3_19 
REMARK    5  A    between atoms: N1_9  and  O3_11 
REMARK    6  A    between atoms: O3_11  and  C6_12 
REMARK    7  A    between atoms: C6_12  and  C7_14 
REMARK    8  A    between atoms: C7_14  and  N2_15 
REMARK    9  A    between atoms: N3_19  and  N4_21 
REMARK   10  A    between atoms: N4_21  and  C8_23 
REMARK   11  A    between atoms: C11_26  and  N5_27 
REMARK   12  A    between atoms: C13_31  and  N6_32 
ROOT
HETATM    1  C5  UNL     1      36.485  40.956  39.568  1.00  0.00     0.190 C 
HETATM    2  N1  UNL     1      36.476  41.398  40.779  1.00  0.00    -0.237 N 
ATOM      3  H1  UNL     1      37.219  41.110  41.417  1.00  0.00     0.197 HD
ENDROOT
BRANCH   1   4
HETATM    4  C4  UNL     1      37.500  40.063  39.052  1.00  0.00     0.229 C 
HETATM    5  O2  UNL     1      38.596  40.519  38.652  1.00  0.00    -0.286 OA
BRANCH   4   6
HETATM    6  C2  UNL     1      37.289  38.610  38.980  1.00  0.00     0.118 C 
HETATM    7  C1  UNL     1      37.494  37.986  40.356  1.00  0.00     0.054 C 
HETATM    8  C3  UNL     1      38.317  38.039  38.026  1.00  0.00     0.054 C 
BRANCH   6   9
HETATM    9  O1  UNL     1      36.004  38.312  38.592  1.00  0.00    -0.382 OA
ATOM     10  H1  UNL     1      35.745  37.530  39.065  1.00  0.00     0.211 HD
ENDBRANCH   6   9
ENDBRANCH   4   6
ENDBRANCH   1   4
BRANCH   1  11
HETATM   11  N3  UNL     1      35.437  41.372  38.702  1.00  0.00    -0.281 N 
ATOM     12  H3  UNL     1      34.935  40.665  38.165  1.00  0.00     0.188 HD
BRANCH  11  13
HETATM   13  N4  UNL     1      35.067  42.722  38.555  1.00  0.00    -0.297 N 
ATOM     14  H4  UNL     1      35.781  43.451  38.559  1.00  0.00     0.187 HD
BRANCH  13  15
HETATM   15  C8  UNL     1      33.701  43.071  38.403  1.00  0.00     0.081 A 
HETATM   16  C9  UNL     1      32.941  42.326  37.494  1.00  0.00     0.036 A 
HETATM   17  C10 UNL     1      31.614  42.572  37.249  1.00  0.00     0.038 A 
HETATM   18  C11 UNL     1      31.011  43.604  37.935  1.00  0.00     0.105 A 
HETATM   19  C12 UNL     1      31.743  44.341  38.828  1.00  0.00     0.074 A 
HETATM   20  C13 UNL     1      33.104  44.100  39.090  1.00  0.00     0.133 A 
BRANCH  18  21
HETATM   21  N5  UNL     1      29.621  43.900  37.710  1.00  0.00    -0.116 N 
HETATM   22  O5  UNL     1      29.129  43.631  36.598  1.00  0.00    -0.532 OA
HETATM   23  O6  UNL     1      28.863  44.469  38.706  1.00  0.00    -0.532 OA
ENDBRANCH  18  21
BRANCH  20  24
HETATM   24  N6  UNL     1      33.790  44.911  40.026  1.00  0.00    -0.113 N 
HETATM   25  O7  UNL     1      35.009  45.072  40.052  1.00  0.00    -0.532 OA
HETATM   26  O8  UNL     1      33.076  45.566  41.025  1.00  0.00    -0.532 OA
ENDBRANCH  20  24
ENDBRANCH  13  15
ENDBRANCH  11  13
ENDBRANCH   1  11
BRANCH   2  27
HETATM   27  O3  UNL     1      35.504  42.240  41.236  1.00  0.00    -0.196 OA
BRANCH  27  28
HETATM   28  C6  UNL     1      34.484  41.792  42.054  1.00  0.00     0.306 C 
HETATM   29  O4  UNL     1      33.386  42.393  42.138  1.00  0.00    -0.261 OA
BRANCH  28  30
HETATM   30  C7  UNL     1      34.689  40.558  42.864  1.00  0.00     0.342 C 
BRANCH  30  31
HETATM   31  N2  UNL     1      33.652  40.354  43.826  1.00  0.00    -0.070 N 
ATOM     32  H23 UNL     1      33.395  41.231  44.279  1.00  0.00     0.274 HD
ATOM     33  H22 UNL     1      32.766  40.139  43.369  1.00  0.00     0.274 HD
ATOM     34  H21 UNL     1      33.892  39.642  44.516  1.00  0.00     0.274 HD
ENDBRANCH  30  31
ENDBRANCH  28  30
ENDBRANCH  27  28
ENDBRANCH   2  27
TORSDOF 12
ENDMDL
