MODEL 1
REMARK VINA RESULT: -5.182848049      0.000      0.000
REMARK  5 active torsions:
REMARK  status: ('A' for Active; 'I' for Inactive)
REMARK       I    between atoms: C2_2  and  N1_4 
REMARK    1  A    between atoms: N1_4  and  C3_6 
REMARK    2  A    between atoms: C7_13  and  N5_14 
REMARK    3  A    between atoms: N5_14  and  O2_16 
REMARK    4  A    between atoms: C8_18  and  N6_19 
REMARK    5  A    between atoms: N6_19  and  O3_21 
ROOT
HETATM    1  C3  UNL     1       0.432 -12.573  73.718  1.00  0.00     0.092 A 
HETATM    2  C4  UNL     1      -0.880 -12.433  74.103  1.00  0.00     0.101 A 
HETATM    3  N2  UNL     1      -1.709 -13.576  74.115  1.00  0.00    -0.098 NA
HETATM    4  C5  UNL     1      -1.420 -11.225  74.477  1.00  0.00     0.099 A 
HETATM    5  N3  UNL     1      -2.776 -11.060  74.878  1.00  0.00    -0.098 NA
HETATM    6  C6  UNL     1      -0.638 -10.062  74.480  1.00  0.00     0.103 A 
HETATM    7  N4  UNL     1      -1.155  -8.800  74.858  1.00  0.00    -0.098 NA
HETATM    8  C7  UNL     1       0.684 -10.207  74.091  1.00  0.00     0.111 A 
HETATM    9  C8  UNL     1       1.230 -11.420  73.715  1.00  0.00     0.113 A 
ENDROOT
BRANCH   1  10
HETATM   10  N1  UNL     1       1.002 -13.815  73.329  1.00  0.00    -0.324 N 
HETATM   11  C2  UNL     1       1.230 -14.142  71.954  1.00  0.00     0.218 C 
HETATM   12  C1  UNL     1       1.821 -15.425  71.539  1.00  0.00     0.117 C 
HETATM   13  O1  UNL     1       0.927 -13.325  71.029  1.00  0.00    -0.274 OA
ATOM     14  H1  UNL     1       1.256 -14.492  74.048  1.00  0.00     0.169 HD
ENDBRANCH   1  10
BRANCH   9  15
HETATM   15  N6  UNL     1       2.598 -11.453  73.334  1.00  0.00    -0.265 N 
ATOM     16  H6  UNL     1       3.323 -11.668  74.019  1.00  0.00     0.194 HD
BRANCH  15  17
HETATM   17  O3  UNL     1       2.897 -11.214  72.139  1.00  0.00    -0.289 OA
ATOM     18  H3  UNL     1       3.700 -11.579  71.787  1.00  0.00     0.244 HD
ENDBRANCH  15  17
ENDBRANCH   9  15
BRANCH   8  19
HETATM   19  N5  UNL     1       1.493  -9.061  74.084  1.00  0.00    -0.265 N 
ATOM     20  H5  UNL     1       1.262  -8.248  73.513  1.00  0.00     0.194 HD
BRANCH  19  21
HETATM   21  O2  UNL     1       2.521  -9.081  74.819  1.00  0.00    -0.289 OA
ATOM     22  H2  UNL     1       2.505  -8.539  75.599  1.00  0.00     0.244 HD
ENDBRANCH  19  21
ENDBRANCH   8  19
TORSDOF 5
ENDMDL
MODEL 2
REMARK VINA RESULT: -5.139767812      1.995      4.381
REMARK  5 active torsions:
REMARK  status: ('A' for Active; 'I' for Inactive)
REMARK       I    between atoms: C2_2  and  N1_4 
REMARK    1  A    between atoms: N1_4  and  C3_6 
REMARK    2  A    between atoms: C7_13  and  N5_14 
REMARK    3  A    between atoms: N5_14  and  O2_16 
REMARK    4  A    between atoms: C8_18  and  N6_19 
REMARK    5  A    between atoms: N6_19  and  O3_21 
ROOT
HETATM    1  C3  UNL     1       0.870 -10.876  73.940  1.00  0.00     0.092 A 
HETATM    2  C4  UNL     1       0.571 -12.148  73.513  1.00  0.00     0.101 A 
HETATM    3  N2  UNL     1      -0.732 -12.648  73.733  1.00  0.00    -0.098 NA
HETATM    4  C5  UNL     1       1.488 -12.955  72.882  1.00  0.00     0.099 A 
HETATM    5  N3  UNL     1       1.197 -14.274  72.434  1.00  0.00    -0.098 NA
HETATM    6  C6  UNL     1       2.792 -12.503  72.643  1.00  0.00     0.103 A 
HETATM    7  N4  UNL     1       3.766 -13.302  71.996  1.00  0.00    -0.098 NA
HETATM    8  C7  UNL     1       3.090 -11.221  73.074  1.00  0.00     0.111 A 
HETATM    9  C8  UNL     1       2.170 -10.407  73.709  1.00  0.00     0.113 A 
ENDROOT
BRANCH   1  10
HETATM   10  N1  UNL     1      -0.068 -10.032  74.594  1.00  0.00    -0.324 N 
HETATM   11  C2  UNL     1      -0.999  -9.229  73.860  1.00  0.00     0.218 C 
HETATM   12  C1  UNL     1      -1.976  -8.351  74.526  1.00  0.00     0.117 C 
HETATM   13  O1  UNL     1      -1.017  -9.245  72.589  1.00  0.00    -0.274 OA
ATOM     14  H1  UNL     1      -0.079  -9.997  75.613  1.00  0.00     0.169 HD
ENDBRANCH   1  10
BRANCH   9  15
HETATM   15  N6  UNL     1       2.584  -9.108  74.109  1.00  0.00    -0.265 N 
ATOM     16  H6  UNL     1       2.088  -8.280  73.779  1.00  0.00     0.194 HD
BRANCH  15  17
HETATM   17  O3  UNL     1       3.571  -9.000  74.876  1.00  0.00    -0.289 OA
ATOM     18  H3  UNL     1       4.307  -8.466  74.601  1.00  0.00     0.244 HD
ENDBRANCH  15  17
ENDBRANCH   9  15
BRANCH   8  19
HETATM   19  N5  UNL     1       4.389 -10.740  72.848  1.00  0.00    -0.265 N 
ATOM     20  H5  UNL     1       5.208 -11.217  73.225  1.00  0.00     0.194 HD
BRANCH  19  21
HETATM   21  O2  UNL     1       4.498  -9.688  72.157  1.00  0.00    -0.289 OA
ATOM     22  H2  UNL     1       5.376  -9.427  71.904  1.00  0.00     0.244 HD
ENDBRANCH  19  21
ENDBRANCH   8  19
TORSDOF 5
ENDMDL
MODEL 3
REMARK VINA RESULT: -5.031464280      2.408      4.754
REMARK  5 active torsions:
REMARK  status: ('A' for Active; 'I' for Inactive)
REMARK       I    between atoms: C2_2  and  N1_4 
REMARK    1  A    between atoms: N1_4  and  C3_6 
REMARK    2  A    between atoms: C7_13  and  N5_14 
REMARK    3  A    between atoms: N5_14  and  O2_16 
REMARK    4  A    between atoms: C8_18  and  N6_19 
REMARK    5  A    between atoms: N6_19  and  O3_21 
ROOT
HETATM    1  C3  UNL     1      -0.728  -9.753  72.762  1.00  0.00     0.092 A 
HETATM    2  C4  UNL     1      -1.407 -10.562  71.883  1.00  0.00     0.101 A 
HETATM    3  N2  UNL     1      -2.698 -10.173  71.463  1.00  0.00    -0.098 NA
HETATM    4  C5  UNL     1      -0.881 -11.735  71.396  1.00  0.00     0.099 A 
HETATM    5  N3  UNL     1      -1.569 -12.587  70.485  1.00  0.00    -0.098 NA
HETATM    6  C6  UNL     1       0.395 -12.163  71.784  1.00  0.00     0.103 A 
HETATM    7  N4  UNL     1       0.972 -13.364  71.305  1.00  0.00    -0.098 NA
HETATM    8  C7  UNL     1       1.077 -11.345  72.670  1.00  0.00     0.111 A 
HETATM    9  C8  UNL     1       0.551 -10.164  73.162  1.00  0.00     0.113 A 
ENDROOT
BRANCH   1  10
HETATM   10  N1  UNL     1      -1.259  -8.538  73.274  1.00  0.00    -0.324 N 
HETATM   11  C2  UNL     1      -2.012  -8.498  74.491  1.00  0.00     0.218 C 
HETATM   12  C1  UNL     1      -2.567  -7.245  75.031  1.00  0.00     0.117 C 
HETATM   13  O1  UNL     1      -2.232  -9.557  75.158  1.00  0.00    -0.274 OA
ATOM     14  H1  UNL     1      -1.100  -7.671  72.761  1.00  0.00     0.169 HD
ENDBRANCH   1  10
BRANCH   9  15
HETATM   15  N6  UNL     1       1.338  -9.403  74.067  1.00  0.00    -0.265 N 
ATOM     16  H6  UNL     1       0.987  -9.176  74.998  1.00  0.00     0.194 HD
BRANCH  15  17
HETATM   17  O3  UNL     1       2.474  -9.016  73.701  1.00  0.00    -0.289 OA
ATOM     18  H3  UNL     1       2.795  -8.179  74.016  1.00  0.00     0.244 HD
ENDBRANCH  15  17
ENDBRANCH   9  15
BRANCH   8  19
HETATM   19  N5  UNL     1       2.358 -11.746  73.078  1.00  0.00    -0.265 N 
ATOM     20  H5  UNL     1       2.498 -12.315  73.913  1.00  0.00     0.194 HD
BRANCH  19  21
HETATM   21  O2  UNL     1       3.330 -11.370  72.365  1.00  0.00    -0.289 OA
ATOM     22  H2  UNL     1       4.010 -12.010  72.188  1.00  0.00     0.244 HD
ENDBRANCH  19  21
ENDBRANCH   8  19
TORSDOF 5
ENDMDL
MODEL 4
REMARK VINA RESULT: -5.022869760      1.680      2.507
REMARK  5 active torsions:
REMARK  status: ('A' for Active; 'I' for Inactive)
REMARK       I    between atoms: C2_2  and  N1_4 
REMARK    1  A    between atoms: N1_4  and  C3_6 
REMARK    2  A    between atoms: C7_13  and  N5_14 
REMARK    3  A    between atoms: N5_14  and  O2_16 
REMARK    4  A    between atoms: C8_18  and  N6_19 
REMARK    5  A    between atoms: N6_19  and  O3_21 
ROOT
HETATM    1  C3  UNL     1       0.026 -11.399  74.073  1.00  0.00     0.092 A 
HETATM    2  C4  UNL     1      -1.100 -12.174  74.220  1.00  0.00     0.101 A 
HETATM    3  N2  UNL     1      -0.951 -13.577  74.293  1.00  0.00    -0.098 NA
HETATM    4  C5  UNL     1      -2.365 -11.641  74.296  1.00  0.00     0.099 A 
HETATM    5  N3  UNL     1      -3.542 -12.427  74.447  1.00  0.00    -0.098 NA
HETATM    6  C6  UNL     1      -2.562 -10.256  74.227  1.00  0.00     0.103 A 
HETATM    7  N4  UNL     1      -3.847  -9.667  74.302  1.00  0.00    -0.098 NA
HETATM    8  C7  UNL     1      -1.426  -9.477  74.079  1.00  0.00     0.111 A 
HETATM    9  C8  UNL     1      -0.152 -10.011  74.002  1.00  0.00     0.113 A 
ENDROOT
BRANCH   1  10
HETATM   10  N1  UNL     1       1.339 -11.937  73.992  1.00  0.00    -0.324 N 
HETATM   11  C2  UNL     1       2.068 -11.963  72.761  1.00  0.00     0.218 C 
HETATM   12  C1  UNL     1       3.429 -12.517  72.665  1.00  0.00     0.117 C 
HETATM   13  O1  UNL     1       1.561 -11.502  71.691  1.00  0.00    -0.274 OA
ATOM     14  H1  UNL     1       1.773 -12.315  74.834  1.00  0.00     0.169 HD
ENDBRANCH   1  10
BRANCH   9  15
HETATM   15  N6  UNL     1       0.943  -9.118  73.851  1.00  0.00    -0.265 N 
ATOM     16  H6  UNL     1       1.249  -8.823  72.924  1.00  0.00     0.194 HD
BRANCH  15  17
HETATM   17  O3  UNL     1       1.526  -8.700  74.880  1.00  0.00    -0.289 OA
ATOM     18  H3  UNL     1       2.313  -9.145  75.172  1.00  0.00     0.244 HD
ENDBRANCH  15  17
ENDBRANCH   9  15
BRANCH   8  19
HETATM   19  N5  UNL     1      -1.590  -8.086  74.007  1.00  0.00    -0.265 N 
ATOM     20  H5  UNL     1      -1.837  -7.623  73.133  1.00  0.00     0.194 HD
BRANCH  19  21
HETATM   21  O2  UNL     1      -1.418  -7.432  75.075  1.00  0.00    -0.289 OA
ATOM     22  H2  UNL     1      -1.010  -6.578  74.997  1.00  0.00     0.244 HD
ENDBRANCH  19  21
ENDBRANCH   8  19
TORSDOF 5
ENDMDL
MODEL 5
REMARK VINA RESULT: -4.892555565      1.741      4.259
REMARK  5 active torsions:
REMARK  status: ('A' for Active; 'I' for Inactive)
REMARK       I    between atoms: C2_2  and  N1_4 
REMARK    1  A    between atoms: N1_4  and  C3_6 
REMARK    2  A    between atoms: C7_13  and  N5_14 
REMARK    3  A    between atoms: N5_14  and  O2_16 
REMARK    4  A    between atoms: C8_18  and  N6_19 
REMARK    5  A    between atoms: N6_19  and  O3_21 
ROOT
HETATM    1  C3  UNL     1       0.053 -11.524  73.743  1.00  0.00     0.092 A 
HETATM    2  C4  UNL     1      -0.460 -12.641  73.128  1.00  0.00     0.101 A 
HETATM    3  N2  UNL     1      -1.848 -12.886  73.217  1.00  0.00    -0.098 NA
HETATM    4  C5  UNL     1       0.322 -13.531  72.431  1.00  0.00     0.099 A 
HETATM    5  N3  UNL     1      -0.191 -14.694  71.789  1.00  0.00    -0.098 NA
HETATM    6  C6  UNL     1       1.704 -13.332  72.316  1.00  0.00     0.103 A 
HETATM    7  N4  UNL     1       2.544 -14.223  71.607  1.00  0.00    -0.098 NA
HETATM    8  C7  UNL     1       2.218 -12.205  72.937  1.00  0.00     0.111 A 
HETATM    9  C8  UNL     1       1.434 -11.307  73.639  1.00  0.00     0.113 A 
ENDROOT
BRANCH   1  10
HETATM   10  N1  UNL     1      -0.744 -10.597  74.467  1.00  0.00    -0.324 N 
HETATM   11  C2  UNL     1      -1.273  -9.417  73.853  1.00  0.00     0.218 C 
HETATM   12  C1  UNL     1      -2.101  -8.449  74.592  1.00  0.00     0.117 C 
HETATM   13  O1  UNL     1      -1.045  -9.159  72.629  1.00  0.00    -0.274 OA
ATOM     14  H1  UNL     1      -0.945 -10.776  75.451  1.00  0.00     0.169 HD
ENDBRANCH   1  10
BRANCH   9  15
HETATM   15  N6  UNL     1       2.067 -10.185  74.237  1.00  0.00    -0.265 N 
ATOM     16  H6  UNL     1       2.493 -10.260  75.160  1.00  0.00     0.194 HD
BRANCH  15  17
HETATM   17  O3  UNL     1       2.091  -9.100  73.607  1.00  0.00    -0.289 OA
ATOM     18  H3  UNL     1       1.269  -8.665  73.414  1.00  0.00     0.244 HD
ENDBRANCH  15  17
ENDBRANCH   9  15
BRANCH   8  19
HETATM   19  N5  UNL     1       3.599 -11.976  72.840  1.00  0.00    -0.265 N 
ATOM     20  H5  UNL     1       4.277 -12.641  73.213  1.00  0.00     0.194 HD
BRANCH  19  21
HETATM   21  O2  UNL     1       3.965 -10.910  72.269  1.00  0.00    -0.289 OA
ATOM     22  H2  UNL     1       4.116 -10.154  72.824  1.00  0.00     0.244 HD
ENDBRANCH  19  21
ENDBRANCH   8  19
TORSDOF 5
ENDMDL
