MODEL 1
REMARK VINA RESULT: -5.100715883      0.000      0.000
REMARK  3 active torsions:
REMARK  status: ('A' for Active; 'I' for Inactive)
REMARK    1  A    between atoms: N1_1  and  N2_4 
REMARK    2  A    between atoms: N2_4  and  N3_6 
REMARK    3  A    between atoms: N4_8  and  N5_10 
ROOT
HETATM    1  N3  UNL     1      23.885  39.751  45.522  1.00  0.00    -0.214 N 
ATOM      2  H3  UNL     1      24.598  40.380  45.891  1.00  0.00     0.211 HD
HETATM    3  N4  UNL     1      24.104  38.506  45.595  1.00  0.00    -0.225 N 
ATOM      4  H4  UNL     1      23.394  37.873  45.226  1.00  0.00     0.210 HD
ENDROOT
BRANCH   1   5
HETATM    5  N2  UNL     1      22.756  40.313  44.980  1.00  0.00    -0.234 N 
ATOM      6  H2  UNL     1      22.138  39.772  44.375  1.00  0.00     0.209 HD
BRANCH   5   7
HETATM    7  N1  UNL     1      22.500  41.543  45.258  1.00  0.00    -0.330 N 
ATOM      8  H12 UNL     1      21.693  41.778  45.835  1.00  0.00     0.178 HD
ATOM      9  H11 UNL     1      23.124  42.259  44.884  1.00  0.00     0.178 HD
ENDBRANCH   5   7
ENDBRANCH   1   5
BRANCH   3  10
HETATM   10  N5  UNL     1      25.243  37.953  46.141  1.00  0.00    -0.266 N 
HETATM   11  C1  UNL     1      26.359  38.578  46.200  1.00  0.00     0.159 A 
HETATM   12  C2  UNL     1      27.733  38.749  46.517  1.00  0.00     0.262 A 
HETATM   13  O1  UNL     1      27.030  39.855  45.867  1.00  0.00    -0.328 OA
ATOM     14  H5  UNL     1      25.195  37.004  46.513  1.00  0.00     0.190 HD
ENDBRANCH   3  10
TORSDOF 3
ENDMDL
MODEL 2
REMARK VINA RESULT: -5.029683318      1.152      1.152
REMARK  3 active torsions:
REMARK  status: ('A' for Active; 'I' for Inactive)
REMARK    1  A    between atoms: N1_1  and  N2_4 
REMARK    2  A    between atoms: N2_4  and  N3_6 
REMARK    3  A    between atoms: N4_8  and  N5_10 
ROOT
HETATM    1  N3  UNL     1      23.987  39.824  45.881  1.00  0.00    -0.214 N 
ATOM      2  H3  UNL     1      24.021  40.212  46.824  1.00  0.00     0.211 HD
HETATM    3  N4  UNL     1      24.873  38.977  45.560  1.00  0.00    -0.225 N 
ATOM      4  H4  UNL     1      24.842  38.587  44.618  1.00  0.00     0.210 HD
ENDROOT
BRANCH   1   5
HETATM    5  N2  UNL     1      22.984  40.257  45.049  1.00  0.00    -0.234 N 
ATOM      6  H2  UNL     1      22.623  39.658  44.307  1.00  0.00     0.209 HD
BRANCH   5   7
HETATM    7  N1  UNL     1      22.515  41.440  45.233  1.00  0.00    -0.330 N 
ATOM      8  H12 UNL     1      22.702  42.175  44.552  1.00  0.00     0.178 HD
ATOM      9  H11 UNL     1      21.958  41.611  46.071  1.00  0.00     0.178 HD
ENDBRANCH   5   7
ENDBRANCH   1   5
BRANCH   3  10
HETATM   10  N5  UNL     1      25.875  38.551  46.404  1.00  0.00    -0.266 N 
HETATM   11  C1  UNL     1      26.990  38.087  45.979  1.00  0.00     0.159 A 
HETATM   12  C2  UNL     1      28.295  37.539  46.098  1.00  0.00     0.262 A 
HETATM   13  O1  UNL     1      27.763  37.771  44.756  1.00  0.00    -0.328 OA
ATOM     14  H5  UNL     1      25.722  38.607  47.411  1.00  0.00     0.190 HD
ENDBRANCH   3  10
TORSDOF 3
ENDMDL
MODEL 3
REMARK VINA RESULT: -4.679051740      3.132      4.644
REMARK  3 active torsions:
REMARK  status: ('A' for Active; 'I' for Inactive)
REMARK    1  A    between atoms: N1_1  and  N2_4 
REMARK    2  A    between atoms: N2_4  and  N3_6 
REMARK    3  A    between atoms: N4_8  and  N5_10 
ROOT
HETATM    1  N3  UNL     1      27.304  37.628  44.987  1.00  0.00    -0.214 N 
ATOM      2  H3  UNL     1      26.405  37.687  44.510  1.00  0.00     0.211 HD
HETATM    3  N4  UNL     1      27.572  38.515  45.851  1.00  0.00    -0.225 N 
ATOM      4  H4  UNL     1      28.470  38.460  46.331  1.00  0.00     0.210 HD
ENDROOT
BRANCH   1   5
HETATM    5  N2  UNL     1      28.140  36.593  44.649  1.00  0.00    -0.234 N 
ATOM      6  H2  UNL     1      27.981  36.043  43.805  1.00  0.00     0.209 HD
BRANCH   5   7
HETATM    7  N1  UNL     1      29.131  36.336  45.429  1.00  0.00    -0.330 N 
ATOM      8  H12 UNL     1      29.933  36.964  45.459  1.00  0.00     0.178 HD
ATOM      9  H11 UNL     1      29.082  35.495  46.005  1.00  0.00     0.178 HD
ENDBRANCH   5   7
ENDBRANCH   1   5
BRANCH   3  10
HETATM   10  N5  UNL     1      26.724  39.551  46.182  1.00  0.00    -0.266 N 
HETATM   11  C1  UNL     1      25.450  39.461  46.090  1.00  0.00     0.159 A 
HETATM   12  C2  UNL     1      24.109  39.918  46.190  1.00  0.00     0.262 A 
HETATM   13  O1  UNL     1      24.342  38.555  45.713  1.00  0.00    -0.328 OA
ATOM     14  H5  UNL     1      27.129  40.426  46.514  1.00  0.00     0.190 HD
ENDBRANCH   3  10
TORSDOF 3
ENDMDL
MODEL 4
REMARK VINA RESULT: -4.665881927      1.254      1.409
REMARK  3 active torsions:
REMARK  status: ('A' for Active; 'I' for Inactive)
REMARK    1  A    between atoms: N1_1  and  N2_4 
REMARK    2  A    between atoms: N2_4  and  N3_6 
REMARK    3  A    between atoms: N4_8  and  N5_10 
ROOT
HETATM    1  N3  UNL     1      24.324  39.264  45.771  1.00  0.00    -0.214 N 
ATOM      2  H3  UNL     1      23.846  38.384  45.966  1.00  0.00     0.211 HD
HETATM    3  N4  UNL     1      25.574  39.223  45.571  1.00  0.00    -0.225 N 
ATOM      4  H4  UNL     1      26.056  40.100  45.376  1.00  0.00     0.210 HD
ENDROOT
BRANCH   1   5
HETATM    5  N2  UNL     1      23.568  40.409  45.745  1.00  0.00    -0.234 N 
ATOM      6  H2  UNL     1      23.713  41.150  46.432  1.00  0.00     0.209 HD
BRANCH   5   7
HETATM    7  N1  UNL     1      22.671  40.521  44.831  1.00  0.00    -0.330 N 
ATOM      8  H12 UNL     1      21.767  40.063  44.944  1.00  0.00     0.178 HD
ATOM      9  H11 UNL     1      22.896  41.075  44.004  1.00  0.00     0.178 HD
ENDBRANCH   5   7
ENDBRANCH   1   5
BRANCH   3  10
HETATM   10  N5  UNL     1      26.323  38.066  45.600  1.00  0.00    -0.266 N 
HETATM   11  C1  UNL     1      27.477  37.999  46.152  1.00  0.00     0.159 A 
HETATM   12  C2  UNL     1      28.682  37.370  46.563  1.00  0.00     0.262 A 
HETATM   13  O1  UNL     1      28.495  38.783  46.887  1.00  0.00    -0.328 OA
ATOM     14  H5  UNL     1      25.942  37.227  45.163  1.00  0.00     0.190 HD
ENDBRANCH   3  10
TORSDOF 3
ENDMDL
MODEL 5
REMARK VINA RESULT: -4.302281062      2.329      3.029
REMARK  3 active torsions:
REMARK  status: ('A' for Active; 'I' for Inactive)
REMARK    1  A    between atoms: N1_1  and  N2_4 
REMARK    2  A    between atoms: N2_4  and  N3_6 
REMARK    3  A    between atoms: N4_8  and  N5_10 
ROOT
HETATM    1  N3  UNL     1      22.393  39.818  43.627  1.00  0.00    -0.214 N 
ATOM      2  H3  UNL     1      23.174  39.169  43.530  1.00  0.00     0.211 HD
HETATM    3  N4  UNL     1      22.405  40.609  44.616  1.00  0.00    -0.225 N 
ATOM      4  H4  UNL     1      21.626  41.260  44.718  1.00  0.00     0.210 HD
ENDROOT
BRANCH   1   5
HETATM    5  N2  UNL     1      21.403  39.772  42.678  1.00  0.00    -0.234 N 
ATOM      6  H2  UNL     1      20.494  39.359  42.887  1.00  0.00     0.209 HD
BRANCH   5   7
HETATM    7  N1  UNL     1      21.654  40.265  41.517  1.00  0.00    -0.330 N 
ATOM      8  H12 UNL     1      20.894  40.434  40.859  1.00  0.00     0.178 HD
ATOM      9  H11 UNL     1      22.626  40.474  41.285  1.00  0.00     0.178 HD
ENDBRANCH   5   7
ENDBRANCH   1   5
BRANCH   3  10
HETATM   10  N5  UNL     1      23.406  40.646  45.564  1.00  0.00    -0.266 N 
HETATM   11  C1  UNL     1      24.063  39.606  45.920  1.00  0.00     0.159 A 
HETATM   12  C2  UNL     1      25.038  38.877  46.652  1.00  0.00     0.262 A 
HETATM   13  O1  UNL     1      24.207  38.150  45.693  1.00  0.00    -0.328 OA
ATOM     14  H5  UNL     1      23.633  41.539  46.000  1.00  0.00     0.190 HD
ENDBRANCH   3  10
TORSDOF 3
ENDMDL
