MODEL 1
REMARK VINA RESULT: -3.813400927      0.000      0.000
REMARK  2 active torsions:
REMARK  status: ('A' for Active; 'I' for Inactive)
REMARK    1  A    between atoms: N1_1  and  N2_4 
REMARK    2  A    between atoms: N3_6  and  O1_7 
ROOT
HETATM    1  N2  UNL     1      27.801  39.716  46.107  1.00  0.00    -0.251 N 
HETATM    2  C1  UNL     1      28.849  39.036  46.491  1.00  0.00     0.240 A 
HETATM    3  N3  UNL     1      28.970  37.638  46.263  1.00  0.00    -0.214 N 
HETATM    4  C2  UNL     1      28.029  36.993  45.658  1.00  0.00     0.215 A 
HETATM    5  N4  UNL     1      26.869  37.720  45.226  1.00  0.00    -0.345 N 
ATOM      6  H4  UNL     1      26.116  37.228  44.746  1.00  0.00     0.167 HD
HETATM    7  C3  UNL     1      26.768  39.001  45.441  1.00  0.00     0.208 A 
ENDROOT
BRANCH   1   8
HETATM    8  N1  UNL     1      27.692  41.085  46.334  1.00  0.00    -0.337 N 
ATOM      9  H12 UNL     1      26.805  41.569  46.203  1.00  0.00     0.177 HD
ATOM     10  H11 UNL     1      28.490  41.644  46.637  1.00  0.00     0.177 HD
ENDBRANCH   1   8
BRANCH   3  11
HETATM   11  O1  UNL     1      30.075  36.924  46.669  1.00  0.00    -0.281 OA
ATOM     12  H1  UNL     1      30.161  36.587  47.553  1.00  0.00     0.245 HD
ENDBRANCH   3  11
TORSDOF 2
ENDMDL
MODEL 2
REMARK VINA RESULT: -3.772837578      1.756      2.937
REMARK  2 active torsions:
REMARK  status: ('A' for Active; 'I' for Inactive)
REMARK    1  A    between atoms: N1_1  and  N2_4 
REMARK    2  A    between atoms: N3_6  and  O1_7 
ROOT
HETATM    1  N2  UNL     1      29.011  37.624  46.399  1.00  0.00    -0.251 N 
HETATM    2  C1  UNL     1      28.967  38.916  46.595  1.00  0.00     0.240 A 
HETATM    3  N3  UNL     1      27.882  39.715  46.143  1.00  0.00    -0.214 N 
HETATM    4  C2  UNL     1      26.893  39.174  45.514  1.00  0.00     0.215 A 
HETATM    5  N4  UNL     1      26.919  37.757  45.287  1.00  0.00    -0.345 N 
ATOM      6  H4  UNL     1      26.146  37.311  44.793  1.00  0.00     0.167 HD
HETATM    7  C3  UNL     1      27.918  37.034  45.705  1.00  0.00     0.208 A 
ENDROOT
BRANCH   1   8
HETATM    8  N1  UNL     1      30.077  36.850  46.846  1.00  0.00    -0.337 N 
ATOM      9  H12 UNL     1      30.630  37.136  47.654  1.00  0.00     0.177 HD
ATOM     10  H11 UNL     1      30.340  35.980  46.383  1.00  0.00     0.177 HD
ENDBRANCH   1   8
BRANCH   3  11
HETATM   11  O1  UNL     1      27.839  41.075  46.352  1.00  0.00    -0.281 OA
ATOM     12  H1  UNL     1      28.611  41.623  46.271  1.00  0.00     0.245 HD
ENDBRANCH   3  11
TORSDOF 2
ENDMDL
MODEL 3
REMARK VINA RESULT: -3.736872897      2.943      3.397
REMARK  2 active torsions:
REMARK  status: ('A' for Active; 'I' for Inactive)
REMARK    1  A    between atoms: N1_1  and  N2_4 
REMARK    2  A    between atoms: N3_6  and  O1_7 
ROOT
HETATM    1  N2  UNL     1      24.125  39.905  45.615  1.00  0.00    -0.251 N 
HETATM    2  C1  UNL     1      25.347  40.332  45.789  1.00  0.00     0.240 A 
HETATM    3  N3  UNL     1      26.437  39.445  46.004  1.00  0.00    -0.214 N 
HETATM    4  C2  UNL     1      26.242  38.169  46.033  1.00  0.00     0.215 A 
HETATM    5  N4  UNL     1      24.907  37.677  45.844  1.00  0.00    -0.345 N 
ATOM      6  H4  UNL     1      24.733  36.672  45.863  1.00  0.00     0.167 HD
HETATM    7  C3  UNL     1      23.915  38.498  45.648  1.00  0.00     0.208 A 
ENDROOT
BRANCH   1   8
HETATM    8  N1  UNL     1      23.065  40.782  45.405  1.00  0.00    -0.337 N 
ATOM      9  H12 UNL     1      22.442  40.670  44.606  1.00  0.00     0.177 HD
ATOM     10  H11 UNL     1      22.878  41.559  46.039  1.00  0.00     0.177 HD
ENDBRANCH   1   8
BRANCH   3  11
HETATM   11  O1  UNL     1      27.724  39.898  46.187  1.00  0.00    -0.281 OA
ATOM     12  H1  UNL     1      28.267  39.599  46.907  1.00  0.00     0.245 HD
ENDBRANCH   3  11
TORSDOF 2
ENDMDL
MODEL 4
REMARK VINA RESULT: -3.626562888      1.567      2.178
REMARK  2 active torsions:
REMARK  status: ('A' for Active; 'I' for Inactive)
REMARK    1  A    between atoms: N1_1  and  N2_4 
REMARK    2  A    between atoms: N3_6  and  O1_7 
ROOT
HETATM    1  N2  UNL     1      27.988  38.992  46.260  1.00  0.00    -0.251 N 
HETATM    2  C1  UNL     1      27.743  38.040  45.399  1.00  0.00     0.240 A 
HETATM    3  N3  UNL     1      28.324  36.747  45.513  1.00  0.00    -0.214 N 
HETATM    4  C2  UNL     1      29.125  36.477  46.490  1.00  0.00     0.215 A 
HETATM    5  N4  UNL     1      29.408  37.507  47.448  1.00  0.00    -0.345 N 
ATOM      6  H4  UNL     1      30.037  37.312  48.227  1.00  0.00     0.167 HD
HETATM    7  C3  UNL     1      28.871  38.688  47.334  1.00  0.00     0.208 A 
ENDROOT
BRANCH   1   8
HETATM    8  N1  UNL     1      27.414  40.254  46.140  1.00  0.00    -0.337 N 
ATOM      9  H12 UNL     1      27.108  40.771  46.964  1.00  0.00     0.177 HD
ATOM     10  H11 UNL     1      27.281  40.699  45.232  1.00  0.00     0.177 HD
ENDBRANCH   1   8
BRANCH   3  11
HETATM   11  O1  UNL     1      28.065  35.746  44.604  1.00  0.00    -0.281 OA
ATOM     12  H1  UNL     1      28.683  35.044  44.436  1.00  0.00     0.245 HD
ENDBRANCH   3  11
TORSDOF 2
ENDMDL
MODEL 5
REMARK VINA RESULT: -3.614323407      1.696      1.959
REMARK  2 active torsions:
REMARK  status: ('A' for Active; 'I' for Inactive)
REMARK    1  A    between atoms: N1_1  and  N2_4 
REMARK    2  A    between atoms: N3_6  and  O1_7 
ROOT
HETATM    1  N2  UNL     1      29.072  38.940  46.774  1.00  0.00    -0.251 N 
HETATM    2  C1  UNL     1      29.145  37.731  46.283  1.00  0.00     0.240 A 
HETATM    3  N3  UNL     1      28.124  37.185  45.458  1.00  0.00    -0.214 N 
HETATM    4  C2  UNL     1      27.077  37.885  45.168  1.00  0.00     0.215 A 
HETATM    5  N4  UNL     1      26.976  39.215  45.696  1.00  0.00    -0.345 N 
ATOM      6  H4  UNL     1      26.157  39.783  45.477  1.00  0.00     0.167 HD
HETATM    7  C3  UNL     1      27.917  39.706  46.451  1.00  0.00     0.208 A 
ENDROOT
BRANCH   1   8
HETATM    8  N1  UNL     1      30.077  39.465  47.579  1.00  0.00    -0.337 N 
ATOM      9  H12 UNL     1      30.490  38.913  48.331  1.00  0.00     0.177 HD
ATOM     10  H11 UNL     1      30.432  40.412  47.447  1.00  0.00     0.177 HD
ENDBRANCH   1   8
BRANCH   3  11
HETATM   11  O1  UNL     1      28.203  35.911  44.942  1.00  0.00    -0.281 OA
ATOM     12  H1  UNL     1      28.074  35.139  45.481  1.00  0.00     0.245 HD
ENDBRANCH   3  11
TORSDOF 2
ENDMDL
