MODEL 1
REMARK VINA RESULT: -7.939726215      0.000      0.000
REMARK  2 active torsions:
REMARK  status: ('A' for Active; 'I' for Inactive)
REMARK    1  A    between atoms: C2_2  and  C3_3 
REMARK    2  A    between atoms: N1_10  and  O1_11 
ROOT
HETATM    1  C3  UNL     1       6.755  37.771 -15.033  1.00  0.00     0.097 C 
HETATM    2  C4  UNL     1       7.009  36.821 -16.141  1.00  0.00    -0.019 A 
HETATM    3  C5  UNL     1       7.871  35.779 -16.014  1.00  0.00     0.010 A 
HETATM    4  C6  UNL     1       8.041  34.925 -17.091  1.00  0.00     0.001 A 
HETATM    5  C7  UNL     1       7.362  35.106 -18.280  1.00  0.00     0.002 A 
HETATM    6  C8  UNL     1       6.487  36.165 -18.410  1.00  0.00     0.032 A 
HETATM    7  C9  UNL     1       6.327  37.015 -17.319  1.00  0.00     0.066 A 
HETATM    8  N1  UNL     1       5.444  38.110 -17.420  1.00  0.00    -0.231 N 
HETATM    9  C10 UNL     1       5.790  39.355 -16.769  1.00  0.00     0.209 C 
HETATM   10  C11 UNL     1       4.496  40.140 -16.643  1.00  0.00     0.064 C 
HETATM   11  C12 UNL     1       6.693  40.114 -17.673  1.00  0.00     0.099 C 
HETATM   12  N2  UNL     1       7.396  40.683 -18.381  1.00  0.00    -0.194 NA
HETATM   13  C13 UNL     1       6.482  39.154 -15.482  1.00  0.00     0.291 C 
HETATM   14  F1  UNL     1       7.700  39.850 -15.518  1.00  0.00    -0.202 F 
HETATM   15  F2  UNL     1       5.758  39.817 -14.471  1.00  0.00    -0.202 F 
ENDROOT
BRANCH   8  16
HETATM   16  O1  UNL     1       4.297  37.960 -18.138  1.00  0.00    -0.285 OA
ATOM     17  H1  UNL     1       4.161  38.512 -18.899  1.00  0.00     0.245 HD
ENDBRANCH   8  16
BRANCH   1  18
HETATM   18  C2  UNL     1       7.828  37.740 -13.996  1.00  0.00     0.011 C 
HETATM   19  C1  UNL     1       7.313  37.530 -12.597  1.00  0.00     0.006 C 
ENDBRANCH   1  18
TORSDOF 2
ENDMDL
MODEL 2
REMARK VINA RESULT: -7.856298223      2.145      4.264
REMARK  2 active torsions:
REMARK  status: ('A' for Active; 'I' for Inactive)
REMARK    1  A    between atoms: C2_2  and  C3_3 
REMARK    2  A    between atoms: N1_10  and  O1_11 
ROOT
HETATM    1  C3  UNL     1       6.095  37.495 -16.788  1.00  0.00     0.097 C 
HETATM    2  C4  UNL     1       5.096  38.577 -16.950  1.00  0.00    -0.019 A 
HETATM    3  C5  UNL     1       4.423  38.768 -18.115  1.00  0.00     0.010 A 
HETATM    4  C6  UNL     1       3.492  39.792 -18.182  1.00  0.00     0.001 A 
HETATM    5  C7  UNL     1       3.234  40.615 -17.102  1.00  0.00     0.002 A 
HETATM    6  C8  UNL     1       3.918  40.421 -15.919  1.00  0.00     0.032 A 
HETATM    7  C9  UNL     1       4.850  39.389 -15.868  1.00  0.00     0.066 A 
HETATM    8  N1  UNL     1       5.571  39.166 -14.676  1.00  0.00    -0.231 N 
HETATM    9  C10 UNL     1       6.955  38.753 -14.756  1.00  0.00     0.209 C 
HETATM   10  C11 UNL     1       7.295  38.148 -13.406  1.00  0.00     0.064 C 
HETATM   11  C12 UNL     1       7.791  39.971 -14.929  1.00  0.00     0.099 C 
HETATM   12  N2  UNL     1       8.420  40.921 -15.070  1.00  0.00    -0.194 NA
HETATM   13  C13 UNL     1       7.216  37.846 -15.889  1.00  0.00     0.291 C 
HETATM   14  F1  UNL     1       8.246  38.392 -16.670  1.00  0.00    -0.202 F 
HETATM   15  F2  UNL     1       7.781  36.653 -15.393  1.00  0.00    -0.202 F 
ENDROOT
BRANCH   8  16
HETATM   16  O1  UNL     1       4.938  39.358 -13.485  1.00  0.00    -0.285 OA
ATOM     17  H1  UNL     1       5.457  39.356 -12.689  1.00  0.00     0.245 HD
ENDBRANCH   8  16
BRANCH   1  18
HETATM   18  C2  UNL     1       6.591  36.975 -18.096  1.00  0.00     0.011 C 
HETATM   19  C1  UNL     1       6.941  35.511 -18.072  1.00  0.00     0.006 C 
ENDBRANCH   1  18
TORSDOF 2
ENDMDL
MODEL 3
REMARK VINA RESULT: -7.610662932      2.164      3.562
REMARK  2 active torsions:
REMARK  status: ('A' for Active; 'I' for Inactive)
REMARK    1  A    between atoms: C2_2  and  C3_3 
REMARK    2  A    between atoms: N1_10  and  O1_11 
ROOT
HETATM    1  C3  UNL     1       5.393  39.174 -16.992  1.00  0.00     0.097 C 
HETATM    2  C4  UNL     1       6.123  37.990 -17.502  1.00  0.00    -0.019 A 
HETATM    3  C5  UNL     1       5.503  37.013 -18.214  1.00  0.00     0.010 A 
HETATM    4  C6  UNL     1       6.259  35.945 -18.671  1.00  0.00     0.001 A 
HETATM    5  C7  UNL     1       7.615  35.852 -18.423  1.00  0.00     0.002 A 
HETATM    6  C8  UNL     1       8.244  36.844 -17.699  1.00  0.00     0.032 A 
HETATM    7  C9  UNL     1       7.471  37.910 -17.246  1.00  0.00     0.066 A 
HETATM    8  N1  UNL     1       8.082  38.938 -16.499  1.00  0.00    -0.231 N 
HETATM    9  C10 UNL     1       7.347  39.552 -15.413  1.00  0.00     0.209 C 
HETATM   10  C11 UNL     1       8.031  40.879 -15.137  1.00  0.00     0.064 C 
HETATM   11  C12 UNL     1       7.510  38.700 -14.206  1.00  0.00     0.099 C 
HETATM   12  N2  UNL     1       7.639  38.026 -13.286  1.00  0.00    -0.194 NA
HETATM   13  C13 UNL     1       5.907  39.682 -15.701  1.00  0.00     0.291 C 
HETATM   14  F1  UNL     1       5.189  39.057 -14.669  1.00  0.00    -0.202 F 
HETATM   15  F2  UNL     1       5.541  41.038 -15.577  1.00  0.00    -0.202 F 
ENDROOT
BRANCH   8  16
HETATM   16  O1  UNL     1       9.351  39.313 -16.819  1.00  0.00    -0.285 OA
ATOM     17  H1  UNL     1       9.575  40.236 -16.787  1.00  0.00     0.245 HD
ENDBRANCH   8  16
BRANCH   1  18
HETATM   18  C2  UNL     1       3.917  38.957 -16.940  1.00  0.00     0.011 C 
HETATM   19  C1  UNL     1       3.127  39.978 -17.714  1.00  0.00     0.006 C 
ENDBRANCH   1  18
TORSDOF 2
ENDMDL
MODEL 4
REMARK VINA RESULT: -7.277332801      2.519      4.530
REMARK  2 active torsions:
REMARK  status: ('A' for Active; 'I' for Inactive)
REMARK    1  A    between atoms: C2_2  and  C3_3 
REMARK    2  A    between atoms: N1_10  and  O1_11 
ROOT
HETATM    1  C3  UNL     1       5.738  39.540 -16.915  1.00  0.00     0.097 C 
HETATM    2  C4  UNL     1       7.089  39.886 -17.414  1.00  0.00    -0.019 A 
HETATM    3  C5  UNL     1       7.280  40.494 -18.614  1.00  0.00     0.010 A 
HETATM    4  C6  UNL     1       8.575  40.801 -19.003  1.00  0.00     0.001 A 
HETATM    5  C7  UNL     1       9.665  40.504 -18.207  1.00  0.00     0.002 A 
HETATM    6  C8  UNL     1       9.471  39.886 -16.989  1.00  0.00     0.032 A 
HETATM    7  C9  UNL     1       8.165  39.584 -16.613  1.00  0.00     0.066 A 
HETATM    8  N1  UNL     1       7.931  38.947 -15.376  1.00  0.00    -0.231 N 
HETATM    9  C10 UNL     1       6.874  37.963 -15.280  1.00  0.00     0.209 C 
HETATM   10  C11 UNL     1       6.558  37.827 -13.801  1.00  0.00     0.064 C 
HETATM   11  C12 UNL     1       7.413  36.659 -15.748  1.00  0.00     0.099 C 
HETATM   12  N2  UNL     1       7.843  35.662 -16.122  1.00  0.00    -0.194 NA
HETATM   13  C13 UNL     1       5.699  38.305 -16.103  1.00  0.00     0.291 C 
HETATM   14  F1  UNL     1       5.428  37.227 -16.960  1.00  0.00    -0.202 F 
HETATM   15  F2  UNL     1       4.563  38.353 -15.270  1.00  0.00    -0.202 F 
ENDROOT
BRANCH   8  16
HETATM   16  O1  UNL     1       8.718  39.274 -14.314  1.00  0.00    -0.285 OA
ATOM     17  H1  UNL     1       8.302  39.471 -13.483  1.00  0.00     0.245 HD
ENDBRANCH   8  16
BRANCH   1  18
HETATM   18  C2  UNL     1       4.718  39.505 -18.004  1.00  0.00     0.011 C 
HETATM   19  C1  UNL     1       3.417  40.168 -17.637  1.00  0.00     0.006 C 
ENDBRANCH   1  18
TORSDOF 2
ENDMDL
MODEL 5
REMARK VINA RESULT: -7.114612714      1.376      1.639
REMARK  2 active torsions:
REMARK  status: ('A' for Active; 'I' for Inactive)
REMARK    1  A    between atoms: C2_2  and  C3_3 
REMARK    2  A    between atoms: N1_10  and  O1_11 
ROOT
HETATM    1  C3  UNL     1       7.013  37.751 -14.600  1.00  0.00     0.097 C 
HETATM    2  C4  UNL     1       7.553  36.539 -15.260  1.00  0.00    -0.019 A 
HETATM    3  C5  UNL     1       8.027  35.483 -14.549  1.00  0.00     0.010 A 
HETATM    4  C6  UNL     1       8.500  34.379 -15.240  1.00  0.00     0.001 A 
HETATM    5  C7  UNL     1       8.501  34.327 -16.620  1.00  0.00     0.002 A 
HETATM    6  C8  UNL     1       8.020  35.400 -17.342  1.00  0.00     0.032 A 
HETATM    7  C9  UNL     1       7.549  36.503 -16.634  1.00  0.00     0.066 A 
HETATM    8  N1  UNL     1       7.056  37.619 -17.341  1.00  0.00    -0.231 N 
HETATM    9  C10 UNL     1       7.305  38.947 -16.822  1.00  0.00     0.209 C 
HETATM   10  C11 UNL     1       6.289  39.858 -17.489  1.00  0.00     0.064 C 
HETATM   11  C12 UNL     1       8.656  39.372 -17.272  1.00  0.00     0.099 C 
HETATM   12  N2  UNL     1       9.706  39.681 -17.621  1.00  0.00    -0.194 NA
HETATM   13  C13 UNL     1       7.265  39.002 -15.349  1.00  0.00     0.291 C 
HETATM   14  F1  UNL     1       8.474  39.548 -14.891  1.00  0.00    -0.202 F 
HETATM   15  F2  UNL     1       6.307  39.958 -14.958  1.00  0.00    -0.202 F 
ENDROOT
BRANCH   8  16
HETATM   16  O1  UNL     1       6.368  37.408 -18.497  1.00  0.00    -0.285 OA
ATOM     17  H1  UNL     1       5.498  37.029 -18.446  1.00  0.00     0.245 HD
ENDBRANCH   8  16
BRANCH   1  18
HETATM   18  C2  UNL     1       7.452  37.873 -13.179  1.00  0.00     0.011 C 
HETATM   19  C1  UNL     1       6.331  37.734 -12.184  1.00  0.00     0.006 C 
ENDBRANCH   1  18
TORSDOF 2
ENDMDL
