MODEL 1
REMARK VINA RESULT: -7.880021370      0.000      0.000
REMARK  2 active torsions:
REMARK  status: ('A' for Active; 'I' for Inactive)
REMARK    1  A    between atoms: N1_4  and  O1_6 
REMARK    2  A    between atoms: C7_15  and  C8_16 
ROOT
HETATM    1  C1  UNL     1       7.107  40.211 -19.266  1.00  0.00     0.018 C 
HETATM    2  C2  UNL     1       7.570  39.760 -17.910  1.00  0.00     0.067 C 
HETATM    3  C3  UNL     1       6.393  39.296 -17.140  1.00  0.00     0.049 C 
HETATM    4  N1  UNL     1       5.832  40.228 -16.474  1.00  0.00    -0.274 N 
ATOM      5  H1  UNL     1       6.207  41.175 -16.511  1.00  0.00     0.193 HD
HETATM    6  C4  UNL     1       5.727  37.985 -16.981  1.00  0.00     0.219 C 
HETATM    7  F1  UNL     1       4.355  38.149 -17.224  1.00  0.00    -0.243 F 
HETATM    8  C5  UNL     1       6.184  36.954 -17.981  1.00  0.00     0.071 C 
HETATM    9  C6  UNL     1       7.639  36.662 -17.799  1.00  0.00     0.236 C 
HETATM   10  N2  UNL     1       8.341  37.559 -18.709  1.00  0.00    -0.066 N 
ATOM     11  H21 UNL     1       7.815  37.755 -19.560  1.00  0.00     0.278 HD
ATOM     12  H22 UNL     1       9.151  37.125 -19.151  1.00  0.00     0.278 HD
HETATM   13  C7  UNL     1       8.670  38.738 -17.972  1.00  0.00     0.228 C 
ENDROOT
BRANCH  13  14
HETATM   14  C8  UNL     1       9.931  39.282 -18.535  1.00  0.00    -0.027 A 
HETATM   15  C9  UNL     1      10.371  38.933 -19.817  1.00  0.00     0.012 A 
HETATM   16  C10 UNL     1      11.542  39.440 -20.339  1.00  0.00     0.043 A 
HETATM   17  C11 UNL     1      12.295  40.309 -19.579  1.00  0.00     0.116 A 
HETATM   18  F2  UNL     1      13.462  40.811 -20.107  1.00  0.00    -0.206 F 
HETATM   19  C12 UNL     1      11.890  40.670 -18.320  1.00  0.00     0.043 A 
HETATM   20  C13 UNL     1      10.724  40.155 -17.824  1.00  0.00     0.012 A 
ENDBRANCH  13  14
BRANCH   4  21
HETATM   21  O1  UNL     1       4.733  39.962 -15.712  1.00  0.00    -0.290 OA
ATOM     22  H1  UNL     1       4.700  40.241 -14.804  1.00  0.00     0.244 HD
ENDBRANCH   4  21
TORSDOF 2
ENDMDL
MODEL 2
REMARK VINA RESULT: -7.686292727      1.089      1.124
REMARK  2 active torsions:
REMARK  status: ('A' for Active; 'I' for Inactive)
REMARK    1  A    between atoms: N1_4  and  O1_6 
REMARK    2  A    between atoms: C7_15  and  C8_16 
ROOT
HETATM    1  C1  UNL     1       7.961  41.215 -18.616  1.00  0.00     0.018 C 
HETATM    2  C2  UNL     1       8.507  40.419 -17.465  1.00  0.00     0.067 C 
HETATM    3  C3  UNL     1       7.378  40.004 -16.600  1.00  0.00     0.049 C 
HETATM    4  N1  UNL     1       7.108  40.854 -15.689  1.00  0.00    -0.274 N 
ATOM      5  H1  UNL     1       7.653  41.713 -15.617  1.00  0.00     0.193 HD
HETATM    6  C4  UNL     1       6.497  38.817 -16.569  1.00  0.00     0.219 C 
HETATM    7  F1  UNL     1       5.164  39.253 -16.537  1.00  0.00    -0.243 F 
HETATM    8  C5  UNL     1       6.602  37.959 -17.803  1.00  0.00     0.071 C 
HETATM    9  C6  UNL     1       7.982  37.399 -17.932  1.00  0.00     0.236 C 
HETATM   10  N2  UNL     1       8.715  38.339 -18.771  1.00  0.00    -0.066 N 
ATOM     11  H21 UNL     1       8.126  38.793 -19.469  1.00  0.00     0.278 HD
ATOM     12  H22 UNL     1       9.357  37.880 -19.418  1.00  0.00     0.278 HD
HETATM   13  C7  UNL     1       9.366  39.266 -17.900  1.00  0.00     0.228 C 
ENDROOT
BRANCH  13  14
HETATM   14  C8  UNL     1      10.621  39.701 -18.565  1.00  0.00    -0.027 A 
HETATM   15  C9  UNL     1      10.854  39.451 -19.923  1.00  0.00     0.012 A 
HETATM   16  C10 UNL     1      12.020  39.857 -20.538  1.00  0.00     0.043 A 
HETATM   17  C11 UNL     1      12.974  40.521 -19.798  1.00  0.00     0.116 A 
HETATM   18  F2  UNL     1      14.134  40.923 -20.420  1.00  0.00    -0.206 F 
HETATM   19  C12 UNL     1      12.774  40.780 -18.467  1.00  0.00     0.043 A 
HETATM   20  C13 UNL     1      11.609  40.369 -17.878  1.00  0.00     0.012 A 
ENDBRANCH  13  14
BRANCH   4  21
HETATM   21  O1  UNL     1       6.092  40.620 -14.810  1.00  0.00    -0.290 OA
ATOM     22  H1  UNL     1       5.369  40.054 -15.054  1.00  0.00     0.244 HD
ENDBRANCH   4  21
TORSDOF 2
ENDMDL
MODEL 3
REMARK VINA RESULT: -7.386062459      1.566      2.197
REMARK  2 active torsions:
REMARK  status: ('A' for Active; 'I' for Inactive)
REMARK    1  A    between atoms: N1_4  and  O1_6 
REMARK    2  A    between atoms: C7_15  and  C8_16 
ROOT
HETATM    1  C1  UNL     1       8.122  37.287 -17.579  1.00  0.00     0.018 C 
HETATM    2  C2  UNL     1       7.609  38.577 -18.151  1.00  0.00     0.067 C 
HETATM    3  C3  UNL     1       6.192  38.740 -17.753  1.00  0.00     0.049 C 
HETATM    4  N1  UNL     1       5.376  38.221 -18.584  1.00  0.00    -0.274 N 
ATOM      5  H1  UNL     1       5.730  37.755 -19.420  1.00  0.00     0.193 HD
HETATM    6  C4  UNL     1       5.521  39.373 -16.597  1.00  0.00     0.219 C 
HETATM    7  F1  UNL     1       4.616  38.452 -16.048  1.00  0.00    -0.243 F 
HETATM    8  C5  UNL     1       6.462  39.719 -15.472  1.00  0.00     0.071 C 
HETATM    9  C6  UNL     1       7.465  40.731 -15.925  1.00  0.00     0.236 C 
HETATM   10  N2  UNL     1       8.619  39.968 -16.385  1.00  0.00    -0.066 N 
ATOM     11  H21 UNL     1       8.755  39.100 -15.867  1.00  0.00     0.278 HD
ATOM     12  H22 UNL     1       9.508  40.406 -16.144  1.00  0.00     0.278 HD
HETATM   13  C7  UNL     1       8.459  39.762 -17.789  1.00  0.00     0.228 C 
ENDROOT
BRANCH  13  14
HETATM   14  C8  UNL     1       9.815  39.704 -18.391  1.00  0.00    -0.027 A 
HETATM   15  C9  UNL     1      10.036  39.118 -19.643  1.00  0.00     0.012 A 
HETATM   16  C10 UNL     1      11.296  39.065 -20.200  1.00  0.00     0.043 A 
HETATM   17  C11 UNL     1      12.360  39.602 -19.508  1.00  0.00     0.116 A 
HETATM   18  F2  UNL     1      13.614  39.546 -20.071  1.00  0.00    -0.206 F 
HETATM   19  C12 UNL     1      12.175  40.183 -18.280  1.00  0.00     0.043 A 
HETATM   20  C13 UNL     1      10.915  40.224 -17.747  1.00  0.00     0.012 A 
ENDBRANCH  13  14
BRANCH   4  21
HETATM   21  O1  UNL     1       4.033  38.285 -18.360  1.00  0.00    -0.290 OA
ATOM     22  H1  UNL     1       3.424  38.273 -19.090  1.00  0.00     0.244 HD
ENDBRANCH   4  21
TORSDOF 2
ENDMDL
MODEL 4
REMARK VINA RESULT: -7.244180953      3.821      4.659
REMARK  2 active torsions:
REMARK  status: ('A' for Active; 'I' for Inactive)
REMARK    1  A    between atoms: N1_4  and  O1_6 
REMARK    2  A    between atoms: C7_15  and  C8_16 
ROOT
HETATM    1  C1  UNL     1       7.568  39.376 -16.101  1.00  0.00     0.018 C 
HETATM    2  C2  UNL     1       6.393  38.537 -15.687  1.00  0.00     0.067 C 
HETATM    3  C3  UNL     1       5.260  39.437 -15.368  1.00  0.00     0.049 C 
HETATM    4  N1  UNL     1       5.240  39.801 -14.145  1.00  0.00    -0.274 N 
ATOM      5  H1  UNL     1       5.961  39.469 -13.505  1.00  0.00     0.193 HD
HETATM    6  C4  UNL     1       4.150  40.005 -16.163  1.00  0.00     0.219 C 
HETATM    7  F1  UNL     1       4.117  41.392 -15.954  1.00  0.00    -0.243 F 
HETATM    8  C5  UNL     1       4.327  39.834 -17.649  1.00  0.00     0.071 C 
HETATM    9  C6  UNL     1       4.343  38.382 -18.008  1.00  0.00     0.236 C 
HETATM   10  N2  UNL     1       5.745  37.986 -18.000  1.00  0.00    -0.066 N 
ATOM     11  H21 UNL     1       6.373  38.737 -18.288  1.00  0.00     0.278 HD
ATOM     12  H22 UNL     1       5.978  37.328 -18.744  1.00  0.00     0.278 HD
HETATM   13  C7  UNL     1       6.037  37.482 -16.696  1.00  0.00     0.228 C 
ENDROOT
BRANCH  13  14
HETATM   14  C8  UNL     1       7.089  36.445 -16.841  1.00  0.00    -0.027 A 
HETATM   15  C9  UNL     1       7.587  35.747 -15.734  1.00  0.00     0.012 A 
HETATM   16  C10 UNL     1       8.563  34.784 -15.871  1.00  0.00     0.043 A 
HETATM   17  C11 UNL     1       9.059  34.504 -17.125  1.00  0.00     0.116 A 
HETATM   18  F2  UNL     1      10.034  33.540 -17.253  1.00  0.00    -0.206 F 
HETATM   19  C12 UNL     1       8.592  35.170 -18.229  1.00  0.00     0.043 A 
HETATM   20  C13 UNL     1       7.622  36.122 -18.068  1.00  0.00     0.012 A 
ENDBRANCH  13  14
BRANCH   4  21
HETATM   21  O1  UNL     1       4.259  40.631 -13.692  1.00  0.00    -0.290 OA
ATOM     22  H1  UNL     1       4.328  41.029 -12.831  1.00  0.00     0.244 HD
ENDBRANCH   4  21
TORSDOF 2
ENDMDL
MODEL 5
REMARK VINA RESULT: -7.212669339      3.673      6.566
REMARK  2 active torsions:
REMARK  status: ('A' for Active; 'I' for Inactive)
REMARK    1  A    between atoms: N1_4  and  O1_6 
REMARK    2  A    between atoms: C7_15  and  C8_16 
ROOT
HETATM    1  C1  UNL     1       6.135  37.438 -17.073  1.00  0.00     0.018 C 
HETATM    2  C2  UNL     1       7.536  37.705 -16.601  1.00  0.00     0.067 C 
HETATM    3  C3  UNL     1       8.300  38.315 -17.713  1.00  0.00     0.049 C 
HETATM    4  N1  UNL     1       8.875  37.453 -18.457  1.00  0.00    -0.274 N 
ATOM      5  H1  UNL     1       8.779  36.459 -18.251  1.00  0.00     0.193 HD
HETATM    6  C4  UNL     1       8.537  39.709 -18.147  1.00  0.00     0.219 C 
HETATM    7  F1  UNL     1       8.238  39.807 -19.515  1.00  0.00    -0.243 F 
HETATM    8  C5  UNL     1       7.634  40.709 -17.474  1.00  0.00     0.071 C 
HETATM    9  C6  UNL     1       7.884  40.727 -16.000  1.00  0.00     0.236 C 
HETATM   10  N2  UNL     1       6.932  39.785 -15.425  1.00  0.00    -0.066 N 
ATOM     11  H21 UNL     1       6.051  39.745 -15.937  1.00  0.00     0.278 HD
ATOM     12  H22 UNL     1       6.550  40.098 -14.532  1.00  0.00     0.278 HD
HETATM   13  C7  UNL     1       7.587  38.518 -15.339  1.00  0.00     0.228 C 
ENDROOT
BRANCH  13  14
HETATM   14  C8  UNL     1       7.025  37.800 -14.167  1.00  0.00    -0.027 A 
HETATM   15  C9  UNL     1       7.536  36.565 -13.751  1.00  0.00     0.012 A 
HETATM   16  C10 UNL     1       7.012  35.900 -12.663  1.00  0.00     0.043 A 
HETATM   17  C11 UNL     1       5.963  36.466 -11.971  1.00  0.00     0.116 A 
HETATM   18  F2  UNL     1       5.447  35.796 -10.886  1.00  0.00    -0.206 F 
HETATM   19  C12 UNL     1       5.441  37.674 -12.354  1.00  0.00     0.043 A 
HETATM   20  C13 UNL     1       5.977  38.316 -13.438  1.00  0.00     0.012 A 
ENDBRANCH  13  14
BRANCH   4  21
HETATM   21  O1  UNL     1       9.619  37.855 -19.526  1.00  0.00    -0.290 OA
ATOM     22  H1  UNL     1       9.193  38.173 -20.314  1.00  0.00     0.244 HD
ENDBRANCH   4  21
TORSDOF 2
ENDMDL
