MODEL 1
REMARK VINA RESULT: -7.010816995      0.000      0.000
REMARK  3 active torsions:
REMARK  status: ('A' for Active; 'I' for Inactive)
REMARK    1  A    between atoms: C2_2  and  N1_4 
REMARK    2  A    between atoms: C2_2  and  C8_15 
REMARK       I    between atoms: N1_4  and  C4_6 
REMARK    3  A    between atoms: C4_6  and  C5_8 
ROOT
HETATM    1  N1  UNL     1      10.959  39.701 -20.118  1.00  0.00    -0.339 N 
ATOM      2  H1  UNL     1      10.261  39.579 -20.852  1.00  0.00     0.163 HD
HETATM    3  C4  UNL     1      10.455  39.807 -18.823  1.00  0.00     0.260 C 
HETATM    4  O1  UNL     1      11.206  39.962 -17.849  1.00  0.00    -0.267 OA
ENDROOT
BRANCH   1   5
HETATM    5  C2  UNL     1      12.316  39.739 -20.561  1.00  0.00     0.123 C 
HETATM    6  C1  UNL     1      13.093  38.679 -19.770  1.00  0.00     0.047 C 
HETATM    7  C3  UNL     1      12.342  39.400 -22.030  1.00  0.00     0.047 C 
BRANCH   5   8
HETATM    8  C8  UNL     1      13.053  41.024 -20.350  1.00  0.00     0.411 C 
HETATM    9  F1  UNL     1      13.649  41.147 -19.130  1.00  0.00    -0.168 F 
HETATM   10  F2  UNL     1      12.374  42.152 -20.694  1.00  0.00    -0.168 F 
HETATM   11  F3  UNL     1      14.133  40.958 -21.261  1.00  0.00    -0.168 F 
ENDBRANCH   5   8
ENDBRANCH   1   5
BRANCH   3  12
HETATM   12  C5  UNL     1       9.026  39.741 -18.558  1.00  0.00     0.090 A 
HETATM   13  C6  UNL     1       8.074  40.706 -18.770  1.00  0.00     0.114 A 
HETATM   14  N2  UNL     1       6.843  40.430 -18.458  1.00  0.00    -0.350 N 
HETATM   15  C7  UNL     1       6.552  39.237 -17.950  1.00  0.00     0.143 A 
ATOM     16  H2  UNL     1       6.107  41.122 -18.602  1.00  0.00     0.166 HD
HETATM   17  S1  UNL     1       5.068  38.661 -17.480  1.00  0.00    -0.052 SA
HETATM   18  S2  UNL     1       8.075  38.467 -17.909  1.00  0.00    -0.054 SA
ENDBRANCH   3  12
TORSDOF 3
ENDMDL
MODEL 2
REMARK VINA RESULT: -6.819486115      0.896      1.388
REMARK  3 active torsions:
REMARK  status: ('A' for Active; 'I' for Inactive)
REMARK    1  A    between atoms: C2_2  and  N1_4 
REMARK    2  A    between atoms: C2_2  and  C8_15 
REMARK       I    between atoms: N1_4  and  C4_6 
REMARK    3  A    between atoms: C4_6  and  C5_8 
ROOT
HETATM    1  N1  UNL     1      10.995  40.164 -19.369  1.00  0.00    -0.339 N 
ATOM      2  H1  UNL     1      10.468  40.301 -20.231  1.00  0.00     0.163 HD
HETATM    3  C4  UNL     1      10.230  39.911 -18.232  1.00  0.00     0.260 C 
HETATM    4  O1  UNL     1      10.758  39.732 -17.125  1.00  0.00    -0.267 OA
ENDROOT
BRANCH   1   5
HETATM    5  C2  UNL     1      12.415  40.259 -19.495  1.00  0.00     0.123 C 
HETATM    6  C1  UNL     1      12.961  40.834 -18.182  1.00  0.00     0.047 C 
HETATM    7  C3  UNL     1      12.962  38.872 -19.711  1.00  0.00     0.047 C 
BRANCH   5   8
HETATM    8  C8  UNL     1      12.932  41.155 -20.576  1.00  0.00     0.411 C 
HETATM    9  F1  UNL     1      12.164  42.255 -20.822  1.00  0.00    -0.168 F 
HETATM   10  F2  UNL     1      13.300  40.531 -21.727  1.00  0.00    -0.168 F 
HETATM   11  F3  UNL     1      14.134  41.680 -20.046  1.00  0.00    -0.168 F 
ENDBRANCH   5   8
ENDBRANCH   1   5
BRANCH   3  12
HETATM   12  C5  UNL     1       8.778  39.845 -18.296  1.00  0.00     0.090 A 
HETATM   13  C6  UNL     1       7.912  40.710 -18.916  1.00  0.00     0.114 A 
HETATM   14  N2  UNL     1       6.639  40.455 -18.846  1.00  0.00    -0.350 N 
HETATM   15  C7  UNL     1       6.225  39.381 -18.182  1.00  0.00     0.143 A 
ATOM     16  H2  UNL     1       5.964  41.074 -19.295  1.00  0.00     0.166 HD
HETATM   17  S1  UNL     1       4.666  38.857 -17.958  1.00  0.00    -0.052 SA
HETATM   18  S2  UNL     1       7.688  38.695 -17.633  1.00  0.00    -0.054 SA
ENDBRANCH   3  12
TORSDOF 3
ENDMDL
MODEL 3
REMARK VINA RESULT: -6.694496905      1.275      1.857
REMARK  3 active torsions:
REMARK  status: ('A' for Active; 'I' for Inactive)
REMARK    1  A    between atoms: C2_2  and  N1_4 
REMARK    2  A    between atoms: C2_2  and  C8_15 
REMARK       I    between atoms: N1_4  and  C4_6 
REMARK    3  A    between atoms: C4_6  and  C5_8 
ROOT
HETATM    1  N1  UNL     1      10.735  39.766 -20.114  1.00  0.00    -0.339 N 
ATOM      2  H1  UNL     1      10.054  39.705 -20.870  1.00  0.00     0.163 HD
HETATM    3  C4  UNL     1      10.205  39.742 -18.825  1.00  0.00     0.260 C 
HETATM    4  O1  UNL     1      10.934  39.814 -17.826  1.00  0.00    -0.267 OA
ENDROOT
BRANCH   1   5
HETATM    5  C2  UNL     1      12.100  39.865 -20.523  1.00  0.00     0.123 C 
HETATM    6  C1  UNL     1      12.134  39.778 -22.054  1.00  0.00     0.047 C 
HETATM    7  C3  UNL     1      12.630  41.204 -20.077  1.00  0.00     0.047 C 
BRANCH   5   8
HETATM    8  C8  UNL     1      13.024  38.794 -20.035  1.00  0.00     0.411 C 
HETATM    9  F1  UNL     1      12.491  37.539 -20.031  1.00  0.00    -0.168 F 
HETATM   10  F2  UNL     1      13.676  39.068 -18.873  1.00  0.00    -0.168 F 
HETATM   11  F3  UNL     1      14.040  38.739 -21.018  1.00  0.00    -0.168 F 
ENDBRANCH   5   8
ENDBRANCH   1   5
BRANCH   3  12
HETATM   12  C5  UNL     1       8.772  39.631 -18.598  1.00  0.00     0.090 A 
HETATM   13  C6  UNL     1       7.783  40.519 -18.940  1.00  0.00     0.114 A 
HETATM   14  N2  UNL     1       6.556  40.214 -18.637  1.00  0.00    -0.350 N 
HETATM   15  C7  UNL     1       6.304  39.068 -18.014  1.00  0.00     0.143 A 
ATOM     16  H2  UNL     1       5.793  40.848 -18.876  1.00  0.00     0.166 HD
HETATM   17  S1  UNL     1       4.834  38.470 -17.530  1.00  0.00    -0.052 SA
HETATM   18  S2  UNL     1       7.860  38.385 -17.845  1.00  0.00    -0.054 SA
ENDBRANCH   3  12
TORSDOF 3
ENDMDL
MODEL 4
REMARK VINA RESULT: -6.693050288      1.245      1.672
REMARK  3 active torsions:
REMARK  status: ('A' for Active; 'I' for Inactive)
REMARK    1  A    between atoms: C2_2  and  N1_4 
REMARK    2  A    between atoms: C2_2  and  C8_15 
REMARK       I    between atoms: N1_4  and  C4_6 
REMARK    3  A    between atoms: C4_6  and  C5_8 
ROOT
HETATM    1  N1  UNL     1      11.256  40.055 -18.683  1.00  0.00    -0.339 N 
ATOM      2  H1  UNL     1      11.045  40.457 -17.770  1.00  0.00     0.163 HD
HETATM    3  C4  UNL     1      10.176  39.482 -19.351  1.00  0.00     0.260 C 
HETATM    4  O1  UNL     1      10.310  38.958 -20.466  1.00  0.00    -0.267 OA
ENDROOT
BRANCH   1   5
HETATM    5  C2  UNL     1      12.619  40.157 -19.099  1.00  0.00     0.123 C 
HETATM    6  C1  UNL     1      13.383  40.914 -18.005  1.00  0.00     0.047 C 
HETATM    7  C3  UNL     1      13.175  38.763 -19.238  1.00  0.00     0.047 C 
BRANCH   5   8
HETATM    8  C8  UNL     1      12.876  40.908 -20.367  1.00  0.00     0.411 C 
HETATM    9  F1  UNL     1      12.011  41.934 -20.609  1.00  0.00    -0.168 F 
HETATM   10  F2  UNL     1      13.069  40.140 -21.473  1.00  0.00    -0.168 F 
HETATM   11  F3  UNL     1      14.120  41.545 -20.146  1.00  0.00    -0.168 F 
ENDBRANCH   5   8
ENDBRANCH   1   5
BRANCH   3  12
HETATM   12  C5  UNL     1       8.842  39.474 -18.768  1.00  0.00     0.090 A 
HETATM   13  C6  UNL     1       7.809  40.348 -18.993  1.00  0.00     0.114 A 
HETATM   14  N2  UNL     1       6.691  40.151 -18.358  1.00  0.00    -0.350 N 
HETATM   15  C7  UNL     1       6.590  39.123 -17.523  1.00  0.00     0.143 A 
ATOM     16  H2  UNL     1       5.900  40.778 -18.501  1.00  0.00     0.166 HD
HETATM   17  S1  UNL     1       5.279  38.674 -16.610  1.00  0.00    -0.052 SA
HETATM   18  S2  UNL     1       8.133  38.399 -17.633  1.00  0.00    -0.054 SA
ENDBRANCH   3  12
TORSDOF 3
ENDMDL
MODEL 5
REMARK VINA RESULT: -6.659732272      1.380      1.834
REMARK  3 active torsions:
REMARK  status: ('A' for Active; 'I' for Inactive)
REMARK    1  A    between atoms: C2_2  and  N1_4 
REMARK    2  A    between atoms: C2_2  and  C8_15 
REMARK       I    between atoms: N1_4  and  C4_6 
REMARK    3  A    between atoms: C4_6  and  C5_8 
ROOT
HETATM    1  N1  UNL     1      10.612  40.136 -19.513  1.00  0.00    -0.339 N 
ATOM      2  H1  UNL     1      10.242  41.070 -19.336  1.00  0.00     0.163 HD
HETATM    3  C4  UNL     1       9.768  39.082 -19.171  1.00  0.00     0.260 C 
HETATM    4  O1  UNL     1      10.109  37.902 -19.336  1.00  0.00    -0.267 OA
ENDROOT
BRANCH   1   5
HETATM    5  C2  UNL     1      11.923  40.092 -20.078  1.00  0.00     0.123 C 
HETATM    6  C1  UNL     1      11.877  39.147 -21.286  1.00  0.00     0.047 C 
HETATM    7  C3  UNL     1      12.287  41.482 -20.533  1.00  0.00     0.047 C 
BRANCH   5   8
HETATM    8  C8  UNL     1      13.014  39.572 -19.197  1.00  0.00     0.411 C 
HETATM    9  F1  UNL     1      13.418  38.300 -19.478  1.00  0.00    -0.168 F 
HETATM   10  F2  UNL     1      12.826  39.756 -17.862  1.00  0.00    -0.168 F 
HETATM   11  F3  UNL     1      14.134  40.374 -19.520  1.00  0.00    -0.168 F 
ENDBRANCH   5   8
ENDBRANCH   1   5
BRANCH   3  12
HETATM   12  C5  UNL     1       8.449  39.320 -18.604  1.00  0.00     0.090 A 
HETATM   13  C6  UNL     1       7.504  40.233 -19.001  1.00  0.00     0.114 A 
HETATM   14  N2  UNL     1       6.382  40.274 -18.345  1.00  0.00    -0.350 N 
HETATM   15  C7  UNL     1       6.191  39.444 -17.326  1.00  0.00     0.143 A 
ATOM     16  H2  UNL     1       5.654  40.938 -18.611  1.00  0.00     0.166 HD
HETATM   17  S1  UNL     1       4.856  39.313 -16.350  1.00  0.00    -0.052 SA
HETATM   18  S2  UNL     1       7.653  38.562 -17.285  1.00  0.00    -0.054 SA
ENDBRANCH   3  12
TORSDOF 3
ENDMDL
