MODEL 1
REMARK VINA RESULT: -5.741111707      0.000      0.000
REMARK  5 active torsions:
REMARK  status: ('A' for Active; 'I' for Inactive)
REMARK    1  A    between atoms: O1_2  and  N1_3 
REMARK    2  A    between atoms: N1_3  and  C2_4 
REMARK    3  A    between atoms: C2_4  and  N2_5 
REMARK    4  A    between atoms: C2_4  and  C3_9 
REMARK    5  A    between atoms: C4_14  and  N5_15 
ROOT
HETATM    1  C3  UNL     1      29.423  73.771  13.674  1.00  0.00     0.161 A 
HETATM    2  N3  UNL     1      29.107  73.021  14.752  1.00  0.00    -0.271 N 
ATOM      3  H3  UNL     1      28.663  72.104  14.714  1.00  0.00     0.189 HD
HETATM    4  N4  UNL     1      29.456  73.647  15.869  1.00  0.00    -0.131 N 
ATOM      5  H4  UNL     1      29.329  73.298  16.819  1.00  0.00     0.205 HD
HETATM    6  C4  UNL     1      30.007  74.823  15.526  1.00  0.00     0.692 A 
HETATM    7  N6  UNL     1      29.983  74.890  14.186  1.00  0.00    -0.175 N 
ATOM      8  H6  UNL     1      30.336  75.673  13.634  1.00  0.00     0.185 HD
ENDROOT
BRANCH   1   9
HETATM    9  C2  UNL     1      29.198  73.430  12.232  1.00  0.00     0.371 C 
BRANCH   9  10
HETATM   10  N1  UNL     1      27.943  72.702  12.167  1.00  0.00    -0.060 NA
BRANCH  10  11
HETATM   11  O1  UNL     1      27.826  71.928  11.094  1.00  0.00    -0.289 OA
HETATM   12  C1  UNL     1      28.938  71.106  10.891  1.00  0.00     0.231 C 
ENDBRANCH  10  11
ENDBRANCH   9  10
BRANCH   9  13
HETATM   13  N2  UNL     1      29.150  74.651  11.472  1.00  0.00    -0.052 N 
ATOM     14  H23 UNL     1      29.042  74.463  10.476  1.00  0.00     0.276 HD
ATOM     15  H22 UNL     1      28.279  75.156  11.636  1.00  0.00     0.276 HD
ATOM     16  H21 UNL     1      29.962  75.242  11.652  1.00  0.00     0.276 HD
ENDBRANCH   9  13
ENDBRANCH   1   9
BRANCH   6  17
HETATM   17  N5  UNL     1      30.465  75.702  16.346  1.00  0.00    -0.233 N 
ATOM     18  H52 UNL     1      30.696  75.572  17.332  1.00  0.00     0.174 HD
ATOM     19  H51 UNL     1      30.666  76.677  16.120  1.00  0.00     0.174 HD
ENDBRANCH   6  17
TORSDOF 5
ENDMDL
MODEL 2
REMARK VINA RESULT: -5.646522272      1.729      1.822
REMARK  5 active torsions:
REMARK  status: ('A' for Active; 'I' for Inactive)
REMARK    1  A    between atoms: O1_2  and  N1_3 
REMARK    2  A    between atoms: N1_3  and  C2_4 
REMARK    3  A    between atoms: C2_4  and  N2_5 
REMARK    4  A    between atoms: C2_4  and  C3_9 
REMARK    5  A    between atoms: C4_14  and  N5_15 
ROOT
HETATM    1  C3  UNL     1      29.399  73.792  13.471  1.00  0.00     0.161 A 
HETATM    2  N3  UNL     1      28.847  73.262  14.584  1.00  0.00    -0.271 N 
ATOM      3  H3  UNL     1      28.301  72.401  14.609  1.00  0.00     0.189 HD
HETATM    4  N4  UNL     1      29.115  74.019  15.639  1.00  0.00    -0.131 N 
ATOM      5  H4  UNL     1      28.816  73.842  16.598  1.00  0.00     0.205 HD
HETATM    6  C4  UNL     1      29.851  75.062  15.221  1.00  0.00     0.692 A 
HETATM    7  N6  UNL     1      30.020  74.915  13.897  1.00  0.00    -0.175 N 
ATOM      8  H6  UNL     1      30.541  75.558  13.300  1.00  0.00     0.185 HD
ENDROOT
BRANCH   1   9
HETATM    9  C2  UNL     1      29.334  73.249  12.076  1.00  0.00     0.371 C 
BRANCH   9  10
HETATM   10  N1  UNL     1      30.061  71.991  12.083  1.00  0.00    -0.060 NA
BRANCH  10  11
HETATM   11  O1  UNL     1      31.148  72.003  12.844  1.00  0.00    -0.289 OA
HETATM   12  C1  UNL     1      31.690  70.729  13.039  1.00  0.00     0.231 C 
ENDBRANCH  10  11
ENDBRANCH   9  10
BRANCH   9  13
HETATM   13  N2  UNL     1      27.952  73.069  11.716  1.00  0.00    -0.052 N 
ATOM     14  H23 UNL     1      27.380  72.862  12.534  1.00  0.00     0.276 HD
ATOM     15  H22 UNL     1      27.523  73.952  11.439  1.00  0.00     0.276 HD
ATOM     16  H21 UNL     1      27.837  72.357  10.994  1.00  0.00     0.276 HD
ENDBRANCH   9  13
ENDBRANCH   1   9
BRANCH   6  17
HETATM   17  N5  UNL     1      30.299  76.010  15.967  1.00  0.00    -0.233 N 
ATOM     18  H52 UNL     1      30.178  76.116  16.975  1.00  0.00     0.174 HD
ATOM     19  H51 UNL     1      30.850  76.806  15.648  1.00  0.00     0.174 HD
ENDBRANCH   6  17
TORSDOF 5
ENDMDL
MODEL 3
REMARK VINA RESULT: -5.516663042      2.651      3.948
REMARK  5 active torsions:
REMARK  status: ('A' for Active; 'I' for Inactive)
REMARK    1  A    between atoms: O1_2  and  N1_3 
REMARK    2  A    between atoms: N1_3  and  C2_4 
REMARK    3  A    between atoms: C2_4  and  N2_5 
REMARK    4  A    between atoms: C2_4  and  C3_9 
REMARK    5  A    between atoms: C4_14  and  N5_15 
ROOT
HETATM    1  C3  UNL     1      29.341  71.588  11.424  1.00  0.00     0.161 A 
HETATM    2  N3  UNL     1      28.517  72.468  10.814  1.00  0.00    -0.271 N 
ATOM      3  H3  UNL     1      27.992  72.278   9.961  1.00  0.00     0.189 HD
HETATM    4  N4  UNL     1      28.488  73.614  11.482  1.00  0.00    -0.131 N 
ATOM      5  H4  UNL     1      27.945  74.440  11.234  1.00  0.00     0.205 HD
HETATM    6  C4  UNL     1      29.302  73.491  12.544  1.00  0.00     0.692 A 
HETATM    7  N6  UNL     1      29.818  72.253  12.501  1.00  0.00    -0.175 N 
ATOM      8  H6  UNL     1      30.474  71.870  13.182  1.00  0.00     0.185 HD
ENDROOT
BRANCH   1   9
HETATM    9  C2  UNL     1      29.653  70.187  10.995  1.00  0.00     0.371 C 
BRANCH   9  10
HETATM   10  N1  UNL     1      30.174  69.499  12.164  1.00  0.00    -0.060 NA
BRANCH  10  11
HETATM   11  O1  UNL     1      31.485  69.632  12.326  1.00  0.00    -0.289 OA
HETATM   12  C1  UNL     1      31.866  69.676  13.670  1.00  0.00     0.231 C 
ENDBRANCH  10  11
ENDBRANCH   9  10
BRANCH   9  13
HETATM   13  N2  UNL     1      28.446  69.575  10.505  1.00  0.00    -0.052 N 
ATOM     14  H23 UNL     1      28.492  69.420   9.498  1.00  0.00     0.276 HD
ATOM     15  H22 UNL     1      28.371  68.605  10.813  1.00  0.00     0.276 HD
ATOM     16  H21 UNL     1      27.617  70.111  10.761  1.00  0.00     0.276 HD
ENDBRANCH   9  13
ENDBRANCH   1   9
BRANCH   6  17
HETATM   17  N5  UNL     1      29.527  74.404  13.423  1.00  0.00    -0.233 N 
ATOM     18  H52 UNL     1      29.808  75.371  13.256  1.00  0.00     0.174 HD
ATOM     19  H51 UNL     1      29.456  74.285  14.433  1.00  0.00     0.174 HD
ENDBRANCH   6  17
TORSDOF 5
ENDMDL
MODEL 4
REMARK VINA RESULT: -5.352447623      1.007      1.498
REMARK  5 active torsions:
REMARK  status: ('A' for Active; 'I' for Inactive)
REMARK    1  A    between atoms: O1_2  and  N1_3 
REMARK    2  A    between atoms: N1_3  and  C2_4 
REMARK    3  A    between atoms: C2_4  and  N2_5 
REMARK    4  A    between atoms: C2_4  and  C3_9 
REMARK    5  A    between atoms: C4_14  and  N5_15 
ROOT
HETATM    1  C3  UNL     1      29.191  73.389  13.607  1.00  0.00     0.161 A 
HETATM    2  N3  UNL     1      28.896  74.475  14.353  1.00  0.00    -0.271 N 
ATOM      3  H3  UNL     1      28.547  75.359  13.982  1.00  0.00     0.189 HD
HETATM    4  N4  UNL     1      29.124  74.231  15.637  1.00  0.00    -0.131 N 
ATOM      5  H4  UNL     1      28.982  74.883  16.407  1.00  0.00     0.205 HD
HETATM    6  C4  UNL     1      29.577  72.970  15.741  1.00  0.00     0.692 A 
HETATM    7  N6  UNL     1      29.614  72.464  14.499  1.00  0.00    -0.175 N 
ATOM      8  H6  UNL     1      29.918  71.519  14.262  1.00  0.00     0.185 HD
ENDROOT
BRANCH   1   9
HETATM    9  C2  UNL     1      29.074  73.248  12.120  1.00  0.00     0.371 C 
BRANCH   9  10
HETATM   10  N1  UNL     1      27.769  72.667  11.857  1.00  0.00    -0.060 NA
BRANCH  10  11
HETATM   11  O1  UNL     1      27.767  71.769  10.880  1.00  0.00    -0.289 OA
HETATM   12  C1  UNL     1      28.909  70.962  10.879  1.00  0.00     0.231 C 
ENDBRANCH  10  11
ENDBRANCH   9  10
BRANCH   9  13
HETATM   13  N2  UNL     1      29.213  74.549  11.521  1.00  0.00    -0.052 N 
ATOM     14  H23 UNL     1      29.553  74.481  10.561  1.00  0.00     0.276 HD
ATOM     15  H22 UNL     1      28.303  74.972  11.339  1.00  0.00     0.276 HD
ATOM     16  H21 UNL     1      29.803  75.164  12.080  1.00  0.00     0.276 HD
ENDBRANCH   9  13
ENDBRANCH   1   9
BRANCH   6  17
HETATM   17  N5  UNL     1      29.905  72.381  16.837  1.00  0.00    -0.233 N 
ATOM     18  H52 UNL     1      29.524  72.546  17.769  1.00  0.00     0.174 HD
ATOM     19  H51 UNL     1      30.610  71.650  16.929  1.00  0.00     0.174 HD
ENDBRANCH   6  17
TORSDOF 5
ENDMDL
MODEL 5
REMARK VINA RESULT: -5.305200870      1.717      2.033
REMARK  5 active torsions:
REMARK  status: ('A' for Active; 'I' for Inactive)
REMARK    1  A    between atoms: O1_2  and  N1_3 
REMARK    2  A    between atoms: N1_3  and  C2_4 
REMARK    3  A    between atoms: C2_4  and  N2_5 
REMARK    4  A    between atoms: C2_4  and  C3_9 
REMARK    5  A    between atoms: C4_14  and  N5_15 
ROOT
HETATM    1  C3  UNL     1      29.711  73.298  12.929  1.00  0.00     0.161 A 
HETATM    2  N3  UNL     1      30.998  73.678  13.078  1.00  0.00    -0.271 N 
ATOM      3  H3  UNL     1      31.728  73.549  12.377  1.00  0.00     0.189 HD
HETATM    4  N4  UNL     1      31.180  74.244  14.264  1.00  0.00    -0.131 N 
ATOM      5  H4  UNL     1      32.058  74.617  14.624  1.00  0.00     0.205 HD
HETATM    6  C4  UNL     1      30.000  74.237  14.907  1.00  0.00     0.692 A 
HETATM    7  N6  UNL     1      29.110  73.659  14.086  1.00  0.00    -0.175 N 
ATOM      8  H6  UNL     1      28.123  73.513  14.304  1.00  0.00     0.185 HD
ENDROOT
BRANCH   1   9
HETATM    9  C2  UNL     1      29.092  72.626  11.741  1.00  0.00     0.371 C 
BRANCH   9  10
HETATM   10  N1  UNL     1      29.185  71.195  11.977  1.00  0.00    -0.060 NA
BRANCH  10  11
HETATM   11  O1  UNL     1      29.909  70.871  13.041  1.00  0.00    -0.289 OA
HETATM   12  C1  UNL     1      30.682  69.723  12.844  1.00  0.00     0.231 C 
ENDBRANCH  10  11
ENDBRANCH   9  10
BRANCH   9  13
HETATM   13  N2  UNL     1      27.726  73.063  11.624  1.00  0.00    -0.052 N 
ATOM     14  H23 UNL     1      27.643  73.851  10.981  1.00  0.00     0.276 HD
ATOM     15  H22 UNL     1      27.161  72.382  11.116  1.00  0.00     0.276 HD
ATOM     16  H21 UNL     1      27.317  73.281  12.532  1.00  0.00     0.276 HD
ENDBRANCH   9  13
ENDBRANCH   1   9
BRANCH   6  17
HETATM   17  N5  UNL     1      29.789  74.703  16.088  1.00  0.00    -0.233 N 
ATOM     18  H52 UNL     1      30.358  75.378  16.600  1.00  0.00     0.174 HD
ATOM     19  H51 UNL     1      29.005  74.457  16.692  1.00  0.00     0.174 HD
ENDBRANCH   6  17
TORSDOF 5
ENDMDL
