MODEL 1
REMARK VINA RESULT: -4.983509168      0.000      0.000
REMARK  5 active torsions:
REMARK  status: ('A' for Active; 'I' for Inactive)
REMARK    1  A    between atoms: C1_4  and  N2_5 
REMARK    2  A    between atoms: N2_5  and  C2_7 
REMARK    3  A    between atoms: C6_13  and  C7_14 
REMARK    4  A    between atoms: C7_14  and  N4_15 
REMARK    5  A    between atoms: C7_14  and  C8_19 
ROOT
HETATM    1  C2  UNL     1      13.868  12.464  26.010  1.00  0.00     0.044 A 
HETATM    2  C3  UNL     1      14.253  13.337  27.041  1.00  0.00     0.047 A 
HETATM    3  C4  UNL     1      14.447  12.877  28.305  1.00  0.00     0.090 A 
HETATM    4  N3  UNL     1      14.280  11.592  28.599  1.00  0.00    -0.375 N 
ATOM      5  H3  UNL     1      14.428  11.253  29.549  1.00  0.00     0.164 HD
HETATM    6  C5  UNL     1      13.916  10.750  27.624  1.00  0.00     0.099 A 
HETATM    7  C6  UNL     1      13.698  11.153  26.297  1.00  0.00     0.023 A 
ENDROOT
BRANCH   7   8
HETATM    8  C7  UNL     1      13.422  10.137  25.276  1.00  0.00     0.308 C 
BRANCH   8   9
HETATM    9  N4  UNL     1      13.000   8.863  25.860  1.00  0.00    -0.063 N 
ATOM     10  H43 UNL     1      13.297   8.788  26.833  1.00  0.00     0.275 HD
ATOM     11  H42 UNL     1      11.989   8.837  25.996  1.00  0.00     0.275 HD
ATOM     12  H41 UNL     1      13.319   8.062  25.314  1.00  0.00     0.275 HD
ENDBRANCH   8   9
BRANCH   8  13
HETATM   13  C8  UNL     1      14.470   9.945  24.279  1.00  0.00     0.266 C 
HETATM   14  N5  UNL     1      14.173  10.344  22.909  1.00  0.00    -0.060 NA
HETATM   15  O1  UNL     1      15.593   9.484  24.438  1.00  0.00    -0.274 OA
ENDBRANCH   8  13
ENDBRANCH   7   8
BRANCH   1  16
HETATM   16  N2  UNL     1      13.568  13.035  24.766  1.00  0.00    -0.352 N 
ATOM     17  H2  UNL     1      12.639  12.905  24.365  1.00  0.00     0.166 HD
BRANCH  16  18
HETATM   18  C1  UNL     1      14.536  13.790  24.056  1.00  0.00     0.173 C 
HETATM   19  N1  UNL     1      15.225  13.291  23.078  1.00  0.00    -0.395 N 
ATOM     20  H12 UNL     1      15.051  12.319  22.822  1.00  0.00     0.156 HD
ATOM     21  H11 UNL     1      15.921  13.834  22.567  1.00  0.00     0.156 HD
ENDBRANCH  16  18
ENDBRANCH   1  16
TORSDOF 5
ENDMDL
MODEL 2
REMARK VINA RESULT: -4.955951749      2.100      4.885
REMARK  5 active torsions:
REMARK  status: ('A' for Active; 'I' for Inactive)
REMARK    1  A    between atoms: C1_4  and  N2_5 
REMARK    2  A    between atoms: N2_5  and  C2_7 
REMARK    3  A    between atoms: C6_13  and  C7_14 
REMARK    4  A    between atoms: C7_14  and  N4_15 
REMARK    5  A    between atoms: C7_14  and  C8_19 
ROOT
HETATM    1  C2  UNL     1      13.942  11.780  25.109  1.00  0.00     0.044 A 
HETATM    2  C3  UNL     1      14.252  10.641  24.348  1.00  0.00     0.047 A 
HETATM    3  C4  UNL     1      14.797  10.760  23.109  1.00  0.00     0.090 A 
HETATM    4  N3  UNL     1      15.052  11.955  22.586  1.00  0.00    -0.375 N 
ATOM      5  H3  UNL     1      15.461  12.038  21.655  1.00  0.00     0.164 HD
HETATM    6  C5  UNL     1      14.761  13.048  23.303  1.00  0.00     0.099 A 
HETATM    7  C6  UNL     1      14.199  13.002  24.588  1.00  0.00     0.023 A 
ENDROOT
BRANCH   7   8
HETATM    8  C7  UNL     1      14.032  14.248  25.342  1.00  0.00     0.308 C 
BRANCH   8   9
HETATM    9  N4  UNL     1      14.058  15.428  24.477  1.00  0.00    -0.063 N 
ATOM     10  H43 UNL     1      14.541  15.232  23.601  1.00  0.00     0.275 HD
ATOM     11  H42 UNL     1      13.129  15.635  24.108  1.00  0.00     0.275 HD
ATOM     12  H41 UNL     1      14.458  16.242  24.945  1.00  0.00     0.275 HD
ENDBRANCH   8   9
BRANCH   8  13
HETATM   13  C8  UNL     1      14.915  14.411  26.492  1.00  0.00     0.266 C 
HETATM   14  N5  UNL     1      14.298  14.447  27.812  1.00  0.00    -0.060 NA
HETATM   15  O1  UNL     1      16.135  14.523  26.503  1.00  0.00    -0.274 OA
ENDBRANCH   8  13
ENDBRANCH   7   8
BRANCH   1  16
HETATM   16  N2  UNL     1      13.271  11.576  26.322  1.00  0.00    -0.352 N 
ATOM     17  H2  UNL     1      12.308  11.897  26.423  1.00  0.00     0.166 HD
BRANCH  16  18
HETATM   18  C1  UNL     1      13.910  10.930  27.412  1.00  0.00     0.173 C 
HETATM   19  N1  UNL     1      14.050  11.498  28.569  1.00  0.00    -0.395 N 
ATOM     20  H12 UNL     1      13.683  12.442  28.683  1.00  0.00     0.156 HD
ATOM     21  H11 UNL     1      14.510  11.033  29.352  1.00  0.00     0.156 HD
ENDBRANCH  16  18
ENDBRANCH   1  16
TORSDOF 5
ENDMDL
MODEL 3
REMARK VINA RESULT: -4.953409016      1.916      3.752
REMARK  5 active torsions:
REMARK  status: ('A' for Active; 'I' for Inactive)
REMARK    1  A    between atoms: C1_4  and  N2_5 
REMARK    2  A    between atoms: N2_5  and  C2_7 
REMARK    3  A    between atoms: C6_13  and  C7_14 
REMARK    4  A    between atoms: C7_14  and  N4_15 
REMARK    5  A    between atoms: C7_14  and  C8_19 
ROOT
HETATM    1  C2  UNL     1      15.043  10.803  25.018  1.00  0.00     0.044 A 
HETATM    2  C3  UNL     1      14.616   9.706  24.250  1.00  0.00     0.047 A 
HETATM    3  C4  UNL     1      13.666   8.856  24.721  1.00  0.00     0.090 A 
HETATM    4  N3  UNL     1      13.115   9.040  25.916  1.00  0.00    -0.375 N 
ATOM      5  H3  UNL     1      12.402   8.399  26.263  1.00  0.00     0.164 HD
HETATM    6  C5  UNL     1      13.512  10.083  26.656  1.00  0.00     0.099 A 
HETATM    7  C6  UNL     1      14.487  11.002  26.235  1.00  0.00     0.023 A 
ENDROOT
BRANCH   7   8
HETATM    8  C7  UNL     1      14.766  12.180  27.062  1.00  0.00     0.308 C 
BRANCH   8   9
HETATM    9  N4  UNL     1      14.782  11.863  28.491  1.00  0.00    -0.063 N 
ATOM     10  H43 UNL     1      14.057  12.378  28.991  1.00  0.00     0.275 HD
ATOM     11  H42 UNL     1      14.454  10.912  28.662  1.00  0.00     0.275 HD
ATOM     12  H41 UNL     1      15.699  12.018  28.911  1.00  0.00     0.275 HD
ENDBRANCH   8   9
BRANCH   8  13
HETATM   13  C8  UNL     1      13.943  13.352  26.785  1.00  0.00     0.266 C 
HETATM   14  N5  UNL     1      14.022  14.464  27.724  1.00  0.00    -0.060 NA
HETATM   15  O1  UNL     1      13.175  13.537  25.849  1.00  0.00    -0.274 OA
ENDBRANCH   8  13
ENDBRANCH   7   8
BRANCH   1  16
HETATM   16  N2  UNL     1      16.111  11.558  24.516  1.00  0.00    -0.352 N 
ATOM     17  H2  UNL     1      17.028  11.484  24.956  1.00  0.00     0.166 HD
BRANCH  16  18
HETATM   18  C1  UNL     1      15.937  12.424  23.407  1.00  0.00     0.173 C 
HETATM   19  N1  UNL     1      14.951  13.262  23.329  1.00  0.00    -0.395 N 
ATOM     20  H12 UNL     1      14.286  13.288  24.102  1.00  0.00     0.156 HD
ATOM     21  H11 UNL     1      14.826  13.885  22.531  1.00  0.00     0.156 HD
ENDBRANCH  16  18
ENDBRANCH   1  16
TORSDOF 5
ENDMDL
MODEL 4
REMARK VINA RESULT: -4.851577689      1.997      4.583
REMARK  5 active torsions:
REMARK  status: ('A' for Active; 'I' for Inactive)
REMARK    1  A    between atoms: C1_4  and  N2_5 
REMARK    2  A    between atoms: N2_5  and  C2_7 
REMARK    3  A    between atoms: C6_13  and  C7_14 
REMARK    4  A    between atoms: C7_14  and  N4_15 
REMARK    5  A    between atoms: C7_14  and  C8_19 
ROOT
HETATM    1  C2  UNL     1      14.028  12.031  25.375  1.00  0.00     0.044 A 
HETATM    2  C3  UNL     1      14.013  11.970  23.971  1.00  0.00     0.047 A 
HETATM    3  C4  UNL     1      14.701  12.878  23.229  1.00  0.00     0.090 A 
HETATM    4  N3  UNL     1      15.407  13.842  23.810  1.00  0.00    -0.375 N 
ATOM      5  H3  UNL     1      15.922  14.519  23.248  1.00  0.00     0.164 HD
HETATM    6  C5  UNL     1      15.430  13.908  25.147  1.00  0.00     0.099 A 
HETATM    7  C6  UNL     1      14.745  13.007  25.977  1.00  0.00     0.023 A 
ENDROOT
BRANCH   7   8
HETATM    8  C7  UNL     1      14.931  13.087  27.429  1.00  0.00     0.308 C 
BRANCH   8   9
HETATM    9  N4  UNL     1      14.792  14.454  27.933  1.00  0.00    -0.063 N 
ATOM     10  H43 UNL     1      15.043  15.137  27.218  1.00  0.00     0.275 HD
ATOM     11  H42 UNL     1      13.810  14.703  28.058  1.00  0.00     0.275 HD
ATOM     12  H41 UNL     1      15.323  14.607  28.791  1.00  0.00     0.275 HD
ENDBRANCH   8   9
BRANCH   8  13
HETATM   13  C8  UNL     1      16.138  12.449  27.945  1.00  0.00     0.266 C 
HETATM   14  N5  UNL     1      17.121  13.304  28.600  1.00  0.00    -0.060 NA
HETATM   15  O1  UNL     1      16.448  11.265  27.904  1.00  0.00    -0.274 OA
ENDBRANCH   8  13
ENDBRANCH   7   8
BRANCH   1  16
HETATM   16  N2  UNL     1      13.195  11.138  26.063  1.00  0.00    -0.352 N 
ATOM     17  H2  UNL     1      12.290  11.459  26.407  1.00  0.00     0.166 HD
BRANCH  16  18
HETATM   18  C1  UNL     1      13.592   9.795  26.288  1.00  0.00     0.173 C 
HETATM   19  N1  UNL     1      12.854   8.787  25.943  1.00  0.00    -0.395 N 
ATOM     20  H12 UNL     1      11.960   8.984  25.494  1.00  0.00     0.156 HD
ATOM     21  H11 UNL     1      13.139   7.821  26.105  1.00  0.00     0.156 HD
ENDBRANCH  16  18
ENDBRANCH   1  16
TORSDOF 5
ENDMDL
MODEL 5
REMARK VINA RESULT: -4.816791481      2.031      3.182
REMARK  5 active torsions:
REMARK  status: ('A' for Active; 'I' for Inactive)
REMARK    1  A    between atoms: C1_4  and  N2_5 
REMARK    2  A    between atoms: N2_5  and  C2_7 
REMARK    3  A    between atoms: C6_13  and  C7_14 
REMARK    4  A    between atoms: C7_14  and  N4_15 
REMARK    5  A    between atoms: C7_14  and  C8_19 
ROOT
HETATM    1  C2  UNL     1      14.596  10.895  25.855  1.00  0.00     0.044 A 
HETATM    2  C3  UNL     1      13.993  10.483  27.056  1.00  0.00     0.047 A 
HETATM    3  C4  UNL     1      13.232   9.358  27.100  1.00  0.00     0.090 A 
HETATM    4  N3  UNL     1      13.039   8.619  26.013  1.00  0.00    -0.375 N 
ATOM      5  H3  UNL     1      12.467   7.775  26.053  1.00  0.00     0.164 HD
HETATM    6  C5  UNL     1      13.610   9.001  24.864  1.00  0.00     0.099 A 
HETATM    7  C6  UNL     1      14.409  10.149  24.743  1.00  0.00     0.023 A 
ENDROOT
BRANCH   7   8
HETATM    8  C7  UNL     1      15.090  10.417  23.472  1.00  0.00     0.308 C 
BRANCH   8   9
HETATM    9  N4  UNL     1      14.216  10.206  22.318  1.00  0.00    -0.063 N 
ATOM     10  H43 UNL     1      14.336  10.944  21.625  1.00  0.00     0.275 HD
ATOM     11  H42 UNL     1      14.525   9.408  21.762  1.00  0.00     0.275 HD
ATOM     12  H41 UNL     1      13.236  10.109  22.587  1.00  0.00     0.275 HD
ENDBRANCH   8   9
BRANCH   8  13
HETATM   13  C8  UNL     1      16.376   9.752  23.296  1.00  0.00     0.266 C 
HETATM   14  N5  UNL     1      17.460  10.138  24.191  1.00  0.00    -0.060 NA
HETATM   15  O1  UNL     1      16.680   8.891  22.479  1.00  0.00    -0.274 OA
ENDBRANCH   8  13
ENDBRANCH   7   8
BRANCH   1  16
HETATM   16  N2  UNL     1      15.261  12.129  25.864  1.00  0.00    -0.352 N 
ATOM     17  H2  UNL     1      14.966  12.863  25.220  1.00  0.00     0.166 HD
BRANCH  16  18
HETATM   18  C1  UNL     1      16.338  12.372  26.754  1.00  0.00     0.173 C 
HETATM   19  N1  UNL     1      17.363  11.583  26.835  1.00  0.00    -0.395 N 
ATOM     20  H12 UNL     1      17.380  10.763  26.230  1.00  0.00     0.156 HD
ATOM     21  H11 UNL     1      18.138  11.759  27.475  1.00  0.00     0.156 HD
ENDBRANCH  16  18
ENDBRANCH   1  16
TORSDOF 5
ENDMDL
