MODEL 1
REMARK VINA RESULT: -4.648010090      0.000      0.000
REMARK  5 active torsions:
REMARK  status: ('A' for Active; 'I' for Inactive)
REMARK    1  A    between atoms: N1_1  and  C1_5 
REMARK    2  A    between atoms: C1_5  and  N2_6 
REMARK    3  A    between atoms: C1_5  and  O1_10 
REMARK    4  A    between atoms: O1_10  and  N3_11 
REMARK    5  A    between atoms: N3_11  and  C2_13 
ROOT
HETATM    1  N3  UNL     1      38.096  56.472  22.454  1.00  0.00    -0.092 N 
ATOM      2  H3  UNL     1      37.696  56.283  21.536  1.00  0.00     0.213 HD
ENDROOT
BRANCH   1   3
HETATM    3  O1  UNL     1      39.444  56.512  22.563  1.00  0.00    -0.205 OA
BRANCH   3   4
HETATM    4  C1  UNL     1      40.225  56.418  21.388  1.00  0.00     0.543 C 
BRANCH   4   5
HETATM    5  N1  UNL     1      39.858  55.248  20.620  1.00  0.00    -0.025 N 
ATOM      6  H13 UNL     1      40.498  54.469  20.778  1.00  0.00     0.279 HD
ATOM      7  H12 UNL     1      39.005  54.811  20.971  1.00  0.00     0.279 HD
ATOM      8  H11 UNL     1      39.785  55.490  19.632  1.00  0.00     0.279 HD
ENDBRANCH   4   5
BRANCH   4   9
HETATM    9  N2  UNL     1      41.635  56.373  21.706  1.00  0.00    -0.025 N 
ATOM     10  H23 UNL     1      41.963  55.420  21.861  1.00  0.00     0.279 HD
ATOM     11  H22 UNL     1      42.217  56.601  20.901  1.00  0.00     0.279 HD
ATOM     12  H21 UNL     1      41.829  56.979  22.503  1.00  0.00     0.279 HD
ENDBRANCH   4   9
ENDBRANCH   3   4
ENDBRANCH   1   3
BRANCH   1  13
HETATM   13  C2  UNL     1      37.282  56.658  23.447  1.00  0.00     0.710 A 
HETATM   14  N4  UNL     1      36.604  55.620  23.969  1.00  0.00    -0.139 N 
HETATM   15  C3  UNL     1      35.754  55.794  24.999  1.00  0.00     0.342 A 
ATOM     16  H4  UNL     1      36.735  54.688  23.578  1.00  0.00     0.189 HD
HETATM   17  O2  UNL     1      35.122  54.829  25.486  1.00  0.00    -0.246 OA
HETATM   18  N5  UNL     1      35.543  57.004  25.555  1.00  0.00    -0.260 N 
HETATM   19  C4  UNL     1      36.218  58.040  25.037  1.00  0.00     0.342 A 
ATOM     20  H5  UNL     1      34.898  57.127  26.335  1.00  0.00     0.175 HD
HETATM   21  O3  UNL     1      36.034  59.193  25.546  1.00  0.00    -0.246 OA
HETATM   22  N6  UNL     1      37.066  57.861  24.007  1.00  0.00    -0.139 N 
ATOM     23  H6  UNL     1      37.563  58.670  23.637  1.00  0.00     0.189 HD
ENDBRANCH   1  13
TORSDOF 5
ENDMDL
MODEL 2
REMARK VINA RESULT: -4.642285726      0.258      2.167
REMARK  5 active torsions:
REMARK  status: ('A' for Active; 'I' for Inactive)
REMARK    1  A    between atoms: N1_1  and  C1_5 
REMARK    2  A    between atoms: C1_5  and  N2_6 
REMARK    3  A    between atoms: C1_5  and  O1_10 
REMARK    4  A    between atoms: O1_10  and  N3_11 
REMARK    5  A    between atoms: N3_11  and  C2_13 
ROOT
HETATM    1  N3  UNL     1      38.052  56.189  22.683  1.00  0.00    -0.092 N 
ATOM      2  H3  UNL     1      37.675  55.725  21.857  1.00  0.00     0.213 HD
ENDROOT
BRANCH   1   3
HETATM    3  O1  UNL     1      39.371  56.490  22.695  1.00  0.00    -0.205 OA
BRANCH   3   4
HETATM    4  C1  UNL     1      40.094  56.436  21.481  1.00  0.00     0.543 C 
BRANCH   4   5
HETATM    5  N1  UNL     1      39.715  55.272  20.709  1.00  0.00    -0.025 N 
ATOM      6  H13 UNL     1      40.214  54.435  21.009  1.00  0.00     0.279 HD
ATOM      7  H12 UNL     1      38.767  54.963  20.923  1.00  0.00     0.279 HD
ATOM      8  H11 UNL     1      39.841  55.460  19.715  1.00  0.00     0.279 HD
ENDBRANCH   4   5
BRANCH   4   9
HETATM    9  N2  UNL     1      41.518  56.420  21.727  1.00  0.00    -0.025 N 
ATOM     10  H23 UNL     1      41.966  55.595  21.328  1.00  0.00     0.279 HD
ATOM     11  H22 UNL     1      42.009  57.131  21.185  1.00  0.00     0.279 HD
ATOM     12  H21 UNL     1      41.697  56.507  22.727  1.00  0.00     0.279 HD
ENDBRANCH   4   9
ENDBRANCH   3   4
ENDBRANCH   1   3
BRANCH   1  13
HETATM   13  C2  UNL     1      37.238  56.455  23.657  1.00  0.00     0.710 A 
HETATM   14  N4  UNL     1      37.039  57.727  24.045  1.00  0.00    -0.139 N 
HETATM   15  C3  UNL     1      36.198  58.023  25.054  1.00  0.00     0.342 A 
ATOM     16  H4  UNL     1      37.533  58.481  23.567  1.00  0.00     0.189 HD
HETATM   17  O2  UNL     1      36.012  59.207  25.416  1.00  0.00    -0.246 OA
HETATM   18  N5  UNL     1      35.519  57.067  25.720  1.00  0.00    -0.260 N 
HETATM   19  C4  UNL     1      35.714  55.798  25.336  1.00  0.00     0.342 A 
ATOM     20  H5  UNL     1      34.884  57.300  26.484  1.00  0.00     0.175 HD
HETATM   21  O3  UNL     1      35.084  54.879  25.952  1.00  0.00    -0.246 OA
HETATM   22  N6  UNL     1      36.556  55.509  24.327  1.00  0.00    -0.139 N 
ATOM     23  H6  UNL     1      36.682  54.533  24.060  1.00  0.00     0.189 HD
ENDBRANCH   1  13
TORSDOF 5
ENDMDL
MODEL 3
REMARK VINA RESULT: -4.582095114      0.506      2.376
REMARK  5 active torsions:
REMARK  status: ('A' for Active; 'I' for Inactive)
REMARK    1  A    between atoms: N1_1  and  C1_5 
REMARK    2  A    between atoms: C1_5  and  N2_6 
REMARK    3  A    between atoms: C1_5  and  O1_10 
REMARK    4  A    between atoms: O1_10  and  N3_11 
REMARK    5  A    between atoms: N3_11  and  C2_13 
ROOT
HETATM    1  N3  UNL     1      38.402  56.555  22.343  1.00  0.00    -0.092 N 
ATOM      2  H3  UNL     1      38.048  56.432  21.395  1.00  0.00     0.213 HD
ENDROOT
BRANCH   1   3
HETATM    3  O1  UNL     1      39.741  56.538  22.528  1.00  0.00    -0.205 OA
BRANCH   3   4
HETATM    4  C1  UNL     1      40.575  56.177  21.445  1.00  0.00     0.543 C 
BRANCH   4   5
HETATM    5  N1  UNL     1      41.062  57.353  20.758  1.00  0.00    -0.025 N 
ATOM      6  H13 UNL     1      40.684  57.430  19.814  1.00  0.00     0.279 HD
ATOM      7  H12 UNL     1      40.671  58.212  21.144  1.00  0.00     0.279 HD
ATOM      8  H11 UNL     1      42.082  57.360  20.764  1.00  0.00     0.279 HD
ENDBRANCH   4   5
BRANCH   4   9
HETATM    9  N2  UNL     1      39.873  55.321  20.515  1.00  0.00    -0.025 N 
ATOM     10  H23 UNL     1      39.996  55.623  19.549  1.00  0.00     0.279 HD
ATOM     11  H22 UNL     1      40.307  54.401  20.438  1.00  0.00     0.279 HD
ATOM     12  H21 UNL     1      38.889  55.260  20.775  1.00  0.00     0.279 HD
ENDBRANCH   4   9
ENDBRANCH   3   4
ENDBRANCH   1   3
BRANCH   1  13
HETATM   13  C2  UNL     1      37.539  56.718  23.297  1.00  0.00     0.710 A 
HETATM   14  N4  UNL     1      37.317  57.942  23.807  1.00  0.00    -0.139 N 
HETATM   15  C3  UNL     1      36.425  58.131  24.799  1.00  0.00     0.342 A 
ATOM     16  H4  UNL     1      37.832  58.741  23.437  1.00  0.00     0.189 HD
HETATM   17  O2  UNL     1      36.218  59.271  25.274  1.00  0.00    -0.246 OA
HETATM   18  N5  UNL     1      35.716  57.112  25.325  1.00  0.00    -0.260 N 
HETATM   19  C4  UNL     1      35.935  55.891  24.819  1.00  0.00     0.342 A 
ATOM     20  H5  UNL     1      35.044  57.264  26.076  1.00  0.00     0.175 HD
HETATM   21  O3  UNL     1      35.277  54.912  25.302  1.00  0.00    -0.246 OA
HETATM   22  N6  UNL     1      36.827  55.708  23.829  1.00  0.00    -0.139 N 
ATOM     23  H6  UNL     1      36.970  54.766  23.466  1.00  0.00     0.189 HD
ENDBRANCH   1  13
TORSDOF 5
ENDMDL
MODEL 4
REMARK VINA RESULT: -4.557945812      1.874      5.331
REMARK  5 active torsions:
REMARK  status: ('A' for Active; 'I' for Inactive)
REMARK    1  A    between atoms: N1_1  and  C1_5 
REMARK    2  A    between atoms: C1_5  and  N2_6 
REMARK    3  A    between atoms: C1_5  and  O1_10 
REMARK    4  A    between atoms: O1_10  and  N3_11 
REMARK    5  A    between atoms: N3_11  and  C2_13 
ROOT
HETATM    1  N3  UNL     1      37.828  56.413  22.444  1.00  0.00    -0.092 N 
ATOM      2  H3  UNL     1      37.359  55.749  21.828  1.00  0.00     0.213 HD
ENDROOT
BRANCH   1   3
HETATM    3  O1  UNL     1      37.109  56.964  23.449  1.00  0.00    -0.205 OA
BRANCH   3   4
HETATM    4  C1  UNL     1      36.380  56.113  24.311  1.00  0.00     0.543 C 
BRANCH   4   5
HETATM    5  N1  UNL     1      36.285  56.685  25.637  1.00  0.00    -0.025 N 
ATOM      6  H13 UNL     1      36.867  56.189  26.311  1.00  0.00     0.279 HD
ATOM      7  H12 UNL     1      36.738  57.597  25.693  1.00  0.00     0.279 HD
ATOM      8  H11 UNL     1      35.308  56.724  25.928  1.00  0.00     0.279 HD
ENDBRANCH   4   5
BRANCH   4   9
HETATM    9  N2  UNL     1      36.991  54.805  24.385  1.00  0.00    -0.025 N 
ATOM     10  H23 UNL     1      37.745  54.695  23.707  1.00  0.00     0.279 HD
ATOM     11  H22 UNL     1      37.539  54.685  25.236  1.00  0.00     0.279 HD
ATOM     12  H21 UNL     1      36.277  54.083  24.284  1.00  0.00     0.279 HD
ENDBRANCH   4   9
ENDBRANCH   3   4
ENDBRANCH   1   3
BRANCH   1  13
HETATM   13  C2  UNL     1      39.076  56.679  22.215  1.00  0.00     0.710 A 
HETATM   14  N4  UNL     1      39.722  56.074  21.202  1.00  0.00    -0.139 N 
HETATM   15  C3  UNL     1      41.018  56.336  20.949  1.00  0.00     0.342 A 
ATOM     16  H4  UNL     1      39.222  55.405  20.616  1.00  0.00     0.189 HD
HETATM   17  O2  UNL     1      41.621  55.773  20.007  1.00  0.00    -0.246 OA
HETATM   18  N5  UNL     1      41.728  57.211  21.691  1.00  0.00    -0.260 N 
HETATM   19  C4  UNL     1      41.087  57.816  22.700  1.00  0.00     0.342 A 
ATOM     20  H5  UNL     1      42.709  57.403  21.493  1.00  0.00     0.175 HD
HETATM   21  O3  UNL     1      41.738  58.645  23.415  1.00  0.00    -0.246 OA
HETATM   22  N6  UNL     1      39.792  57.549  22.949  1.00  0.00    -0.139 N 
ATOM     23  H6  UNL     1      39.334  58.027  23.725  1.00  0.00     0.189 HD
ENDBRANCH   1  13
TORSDOF 5
ENDMDL
MODEL 5
REMARK VINA RESULT: -4.553265243      2.764      5.522
REMARK  5 active torsions:
REMARK  status: ('A' for Active; 'I' for Inactive)
REMARK    1  A    between atoms: N1_1  and  C1_5 
REMARK    2  A    between atoms: C1_5  and  N2_6 
REMARK    3  A    between atoms: C1_5  and  O1_10 
REMARK    4  A    between atoms: O1_10  and  N3_11 
REMARK    5  A    between atoms: N3_11  and  C2_13 
ROOT
HETATM    1  N3  UNL     1      35.107  54.946  26.144  1.00  0.00    -0.092 N 
ATOM      2  H3  UNL     1      35.336  53.952  26.162  1.00  0.00     0.213 HD
ENDROOT
BRANCH   1   3
HETATM    3  O1  UNL     1      34.411  55.455  27.186  1.00  0.00    -0.205 OA
BRANCH   3   4
HETATM    4  C1  UNL     1      34.964  55.364  28.485  1.00  0.00     0.543 C 
BRANCH   4   5
HETATM    5  N1  UNL     1      35.944  56.407  28.699  1.00  0.00    -0.025 N 
ATOM      6  H13 UNL     1      35.882  56.805  29.636  1.00  0.00     0.279 HD
ATOM      7  H12 UNL     1      36.892  56.035  28.758  1.00  0.00     0.279 HD
ATOM      8  H11 UNL     1      35.857  57.119  27.974  1.00  0.00     0.279 HD
ENDBRANCH   4   5
BRANCH   4   9
HETATM    9  N2  UNL     1      35.570  54.070  28.700  1.00  0.00    -0.025 N 
ATOM     10  H23 UNL     1      35.033  53.500  29.354  1.00  0.00     0.279 HD
ATOM     11  H22 UNL     1      35.491  53.468  27.881  1.00  0.00     0.279 HD
ATOM     12  H21 UNL     1      36.538  54.186  28.999  1.00  0.00     0.279 HD
ENDBRANCH   4   9
ENDBRANCH   3   4
ENDBRANCH   1   3
BRANCH   1  13
HETATM   13  C2  UNL     1      35.500  55.643  25.124  1.00  0.00     0.710 A 
HETATM   14  N4  UNL     1      34.626  56.415  24.455  1.00  0.00    -0.139 N 
HETATM   15  C3  UNL     1      35.016  57.147  23.393  1.00  0.00     0.342 A 
ATOM     16  H4  UNL     1      33.652  56.448  24.756  1.00  0.00     0.189 HD
HETATM   17  O2  UNL     1      34.203  57.866  22.769  1.00  0.00    -0.246 OA
HETATM   18  N5  UNL     1      36.291  57.142  22.952  1.00  0.00    -0.260 N 
HETATM   19  C4  UNL     1      37.164  56.374  23.618  1.00  0.00     0.342 A 
ATOM     20  H5  UNL     1      36.577  57.698  22.147  1.00  0.00     0.175 HD
HETATM   21  O3  UNL     1      38.374  56.354  23.218  1.00  0.00    -0.246 OA
HETATM   22  N6  UNL     1      36.769  55.646  24.677  1.00  0.00    -0.139 N 
ATOM     23  H6  UNL     1      37.459  55.072  25.161  1.00  0.00     0.189 HD
ENDBRANCH   1  13
TORSDOF 5
ENDMDL
