MODEL 1
REMARK VINA RESULT: -7.116097499      0.000      0.000
REMARK  12 active torsions:
REMARK  status: ('A' for Active; 'I' for Inactive)
REMARK    1  A    between atoms: C2_2  and  C3_3 
REMARK    2  A    between atoms: C4_4  and  C5_5 
REMARK    3  A    between atoms: C11_16  and  C12_17 
REMARK    4  A    between atoms: C12_17  and  C13_18 
REMARK    5  A    between atoms: C13_18  and  C14_19 
REMARK    6  A    between atoms: C14_19  and  C15_20 
REMARK    7  A    between atoms: C15_20  and  N3_21 
REMARK    8  A    between atoms: N3_21  and  C18_24 
REMARK    9  A    between atoms: C18_24  and  C19_25 
REMARK   10  A    between atoms: C19_25  and  C20_26 
REMARK   11  A    between atoms: C20_26  and  C21_27 
REMARK   12  A    between atoms: C23_31  and  O2_32 
ROOT
HETATM    1  C5  UNL     1      -2.865   5.757  29.094  1.00  0.00     0.097 C 
HETATM    2  C6  UNL     1      -3.332   4.852  30.198  1.00  0.00     0.041 C 
HETATM    3  C7  UNL     1      -2.196   4.194  30.947  1.00  0.00     0.120 C 
HETATM    4  N1  UNL     1      -0.979   4.104  30.232  1.00  0.00    -0.401 N 
ATOM      5  H1  UNL     1      -0.305   4.858  30.367  1.00  0.00     0.158 HD
HETATM    6  C8  UNL     1      -0.648   3.162  29.432  1.00  0.00     0.075 C 
HETATM    7  C9  UNL     1      -1.510   1.997  29.124  1.00  0.00     0.166 C 
HETATM    8  N2  UNL     1      -1.365   1.452  27.817  1.00  0.00    -0.355 N 
ATOM      9  H2  UNL     1      -0.882   0.557  27.757  1.00  0.00     0.162 HD
HETATM   10  C10 UNL     1      -1.811   2.001  26.594  1.00  0.00     0.240 C 
HETATM   11  O1  UNL     1      -2.483   1.288  25.766  1.00  0.00    -0.271 OA
HETATM   12  C11 UNL     1      -1.567   3.397  26.143  1.00  0.00     0.175 C 
HETATM   13  N4  UNL     1      -2.722   4.065  25.605  1.00  0.00    -0.357 N 
ATOM     14  H4  UNL     1      -3.091   3.613  24.768  1.00  0.00     0.162 HD
HETATM   15  C23 UNL     1      -3.444   5.195  25.977  1.00  0.00     0.152 C 
HETATM   16  C24 UNL     1      -4.411   5.455  27.069  1.00  0.00     0.087 C 
HETATM   17  C25 UNL     1      -5.319   4.372  27.415  1.00  0.00     0.266 C 
HETATM   18  O3  UNL     1      -5.128   3.222  27.013  1.00  0.00    -0.267 OA
HETATM   19  N5  UNL     1      -6.449   4.606  28.218  1.00  0.00    -0.296 N 
ATOM     20  H5  UNL     1      -7.242   3.965  28.209  1.00  0.00     0.177 HD
HETATM   21  S1  UNL     1      -6.455   6.059  29.256  1.00  0.00    -0.049 SA
HETATM   22  C26 UNL     1      -5.002   7.043  28.911  1.00  0.00     0.134 C 
HETATM   23  C27 UNL     1      -3.892   6.301  28.191  1.00  0.00    -0.033 C 
ENDROOT
BRANCH  12  24
HETATM   24  C12 UNL     1      -0.490   3.335  25.019  1.00  0.00     0.035 C 
BRANCH  24  25
HETATM   25  C13 UNL     1      -0.695   4.475  24.059  1.00  0.00     0.004 C 
BRANCH  25  26
HETATM   26  C14 UNL     1      -1.030   4.031  22.676  1.00  0.00     0.028 C 
BRANCH  26  27
HETATM   27  C15 UNL     1      -1.885   4.993  21.922  1.00  0.00     0.236 C 
BRANCH  27  28
HETATM   28  N3  UNL     1      -2.181   4.598  20.581  1.00  0.00    -0.075 N 
HETATM   29  C16 UNL     1      -3.585   4.492  20.279  1.00  0.00     0.272 C 
HETATM   30  C17 UNL     1      -1.576   3.282  20.341  1.00  0.00     0.272 C 
BRANCH  28  31
HETATM   31  C18 UNL     1      -1.581   5.487  19.599  1.00  0.00     0.236 C 
BRANCH  31  32
HETATM   32  C19 UNL     1      -1.337   6.845  20.178  1.00  0.00     0.028 C 
BRANCH  32  33
HETATM   33  C20 UNL     1      -1.905   7.911  19.232  1.00  0.00     0.001 C 
BRANCH  33  34
HETATM   34  C21 UNL     1      -3.280   8.323  19.703  1.00  0.00    -0.005 C 
HETATM   35  C22 UNL     1      -3.373   9.823  19.758  1.00  0.00     0.005 C 
ENDBRANCH  33  34
ENDBRANCH  32  33
ENDBRANCH  31  32
ENDBRANCH  28  31
ENDBRANCH  27  28
ENDBRANCH  26  27
ENDBRANCH  25  26
ENDBRANCH  24  25
ENDBRANCH  12  24
BRANCH  15  36
HETATM   36  O2  UNL     1      -3.259   6.266  25.233  1.00  0.00    -0.346 OA
ATOM     37  H2  UNL     1      -4.014   6.832  25.125  1.00  0.00     0.219 HD
ENDBRANCH  15  36
BRANCH   1  38
HETATM   38  C4  UNL     1      -2.152   6.888  29.778  1.00  0.00    -0.097 C 
HETATM   39  C3  UNL     1      -1.594   7.797  30.344  1.00  0.00    -0.106 C 
BRANCH  39  40
HETATM   40  C2  UNL     1      -0.942   8.911  31.037  1.00  0.00     0.089 C 
HETATM   41  C1  UNL     1      -0.947   8.710  32.532  1.00  0.00     0.018 C 
ENDBRANCH  39  40
ENDBRANCH   1  38
TORSDOF 12
ENDMDL
MODEL 2
REMARK VINA RESULT: -6.742835084      2.729      8.575
REMARK  12 active torsions:
REMARK  status: ('A' for Active; 'I' for Inactive)
REMARK    1  A    between atoms: C2_2  and  C3_3 
REMARK    2  A    between atoms: C4_4  and  C5_5 
REMARK    3  A    between atoms: C11_16  and  C12_17 
REMARK    4  A    between atoms: C12_17  and  C13_18 
REMARK    5  A    between atoms: C13_18  and  C14_19 
REMARK    6  A    between atoms: C14_19  and  C15_20 
REMARK    7  A    between atoms: C15_20  and  N3_21 
REMARK    8  A    between atoms: N3_21  and  C18_24 
REMARK    9  A    between atoms: C18_24  and  C19_25 
REMARK   10  A    between atoms: C19_25  and  C20_26 
REMARK   11  A    between atoms: C20_26  and  C21_27 
REMARK   12  A    between atoms: C23_31  and  O2_32 
ROOT
HETATM    1  C5  UNL     1      -2.833   4.443  22.074  1.00  0.00     0.097 C 
HETATM    2  C6  UNL     1      -3.924   3.485  21.688  1.00  0.00     0.041 C 
HETATM    3  C7  UNL     1      -5.290   3.916  22.169  1.00  0.00     0.120 C 
HETATM    4  N1  UNL     1      -5.286   4.796  23.275  1.00  0.00    -0.401 N 
ATOM      5  H1  UNL     1      -5.314   5.796  23.073  1.00  0.00     0.158 HD
HETATM    6  C8  UNL     1      -5.250   4.452  24.508  1.00  0.00     0.075 C 
HETATM    7  C9  UNL     1      -5.205   3.046  24.972  1.00  0.00     0.166 C 
HETATM    8  N2  UNL     1      -4.511   2.823  26.194  1.00  0.00    -0.355 N 
ATOM      9  H2  UNL     1      -5.090   2.614  27.007  1.00  0.00     0.162 HD
HETATM   10  C10 UNL     1      -3.116   2.856  26.418  1.00  0.00     0.240 C 
HETATM   11  O1  UNL     1      -2.532   1.895  27.035  1.00  0.00    -0.271 OA
HETATM   12  C11 UNL     1      -2.206   3.951  25.989  1.00  0.00     0.175 C 
HETATM   13  N4  UNL     1      -0.990   3.510  25.359  1.00  0.00    -0.357 N 
ATOM     14  H4  UNL     1      -0.402   2.948  25.975  1.00  0.00     0.162 HD
HETATM   15  C23 UNL     1      -0.442   3.684  24.092  1.00  0.00     0.152 C 
HETATM   16  C24 UNL     1      -0.762   3.098  22.769  1.00  0.00     0.087 C 
HETATM   17  C25 UNL     1      -1.165   1.700  22.749  1.00  0.00     0.266 C 
HETATM   18  O3  UNL     1      -1.479   1.108  23.784  1.00  0.00    -0.267 OA
HETATM   19  N5  UNL     1      -1.206   0.978  21.544  1.00  0.00    -0.296 N 
ATOM     20  H5  UNL     1      -1.172  -0.041  21.541  1.00  0.00     0.177 HD
HETATM   21  S1  UNL     1      -1.319   1.897  20.017  1.00  0.00    -0.049 SA
HETATM   22  C26 UNL     1      -1.190   3.647  20.365  1.00  0.00     0.134 C 
HETATM   23  C27 UNL     1      -1.447   4.024  21.811  1.00  0.00    -0.033 C 
ENDROOT
BRANCH  12  24
HETATM   24  C12 UNL     1      -1.812   4.749  27.268  1.00  0.00     0.035 C 
BRANCH  24  25
HETATM   25  C13 UNL     1      -2.707   5.951  27.408  1.00  0.00     0.004 C 
BRANCH  25  26
HETATM   26  C14 UNL     1      -3.732   5.804  28.480  1.00  0.00     0.028 C 
BRANCH  26  27
HETATM   27  C15 UNL     1      -3.560   6.756  29.616  1.00  0.00     0.236 C 
BRANCH  27  28
HETATM   28  N3  UNL     1      -3.094   6.155  30.826  1.00  0.00    -0.075 N 
HETATM   29  C16 UNL     1      -2.985   4.720  30.784  1.00  0.00     0.272 C 
HETATM   30  C17 UNL     1      -4.031   6.496  31.904  1.00  0.00     0.272 C 
BRANCH  28  31
HETATM   31  C18 UNL     1      -1.807   6.688  31.246  1.00  0.00     0.236 C 
BRANCH  31  32
HETATM   32  C19 UNL     1      -1.423   7.879  30.428  1.00  0.00     0.028 C 
BRANCH  32  33
HETATM   33  C20 UNL     1      -0.997   9.021  31.361  1.00  0.00     0.001 C 
BRANCH  33  34
HETATM   34  C21 UNL     1      -1.009   8.535  32.791  1.00  0.00    -0.005 C 
HETATM   35  C22 UNL     1      -0.154   9.433  33.643  1.00  0.00     0.005 C 
ENDBRANCH  33  34
ENDBRANCH  32  33
ENDBRANCH  31  32
ENDBRANCH  28  31
ENDBRANCH  27  28
ENDBRANCH  26  27
ENDBRANCH  25  26
ENDBRANCH  24  25
ENDBRANCH  12  24
BRANCH  15  36
HETATM   36  O2  UNL     1       0.566   4.528  24.013  1.00  0.00    -0.346 OA
ATOM     37  H2  UNL     1       1.409   4.149  23.792  1.00  0.00     0.219 HD
ENDBRANCH  15  36
BRANCH   1  38
HETATM   38  C4  UNL     1      -3.125   5.708  21.319  1.00  0.00    -0.097 C 
HETATM   39  C3  UNL     1      -3.340   6.734  20.720  1.00  0.00    -0.106 C 
BRANCH  39  40
HETATM   40  C2  UNL     1      -3.589   7.994  20.015  1.00  0.00     0.089 C 
HETATM   41  C1  UNL     1      -2.356   8.476  19.292  1.00  0.00     0.018 C 
ENDBRANCH  39  40
ENDBRANCH   1  38
TORSDOF 12
ENDMDL
MODEL 3
REMARK VINA RESULT: -6.696318774      2.680      8.677
REMARK  12 active torsions:
REMARK  status: ('A' for Active; 'I' for Inactive)
REMARK    1  A    between atoms: C2_2  and  C3_3 
REMARK    2  A    between atoms: C4_4  and  C5_5 
REMARK    3  A    between atoms: C11_16  and  C12_17 
REMARK    4  A    between atoms: C12_17  and  C13_18 
REMARK    5  A    between atoms: C13_18  and  C14_19 
REMARK    6  A    between atoms: C14_19  and  C15_20 
REMARK    7  A    between atoms: C15_20  and  N3_21 
REMARK    8  A    between atoms: N3_21  and  C18_24 
REMARK    9  A    between atoms: C18_24  and  C19_25 
REMARK   10  A    between atoms: C19_25  and  C20_26 
REMARK   11  A    between atoms: C20_26  and  C21_27 
REMARK   12  A    between atoms: C23_31  and  O2_32 
ROOT
HETATM    1  C5  UNL     1      -2.795   4.627  21.618  1.00  0.00     0.097 C 
HETATM    2  C6  UNL     1      -3.546   3.795  20.619  1.00  0.00     0.041 C 
HETATM    3  C7  UNL     1      -4.866   4.406  20.209  1.00  0.00     0.120 C 
HETATM    4  N1  UNL     1      -5.416   5.322  21.135  1.00  0.00    -0.401 N 
ATOM      5  H1  UNL     1      -5.198   6.309  20.998  1.00  0.00     0.158 HD
HETATM    6  C8  UNL     1      -6.164   5.024  22.131  1.00  0.00     0.075 C 
HETATM    7  C9  UNL     1      -6.574   3.642  22.471  1.00  0.00     0.166 C 
HETATM    8  N2  UNL     1      -6.778   3.383  23.856  1.00  0.00    -0.355 N 
ATOM      9  H2  UNL     1      -7.747   3.278  24.154  1.00  0.00     0.162 HD
HETATM   10  C10 UNL     1      -5.800   3.256  24.868  1.00  0.00     0.240 C 
HETATM   11  O1  UNL     1      -5.820   2.255  25.670  1.00  0.00    -0.271 OA
HETATM   12  C11 UNL     1      -4.690   4.215  25.112  1.00  0.00     0.175 C 
HETATM   13  N4  UNL     1      -3.402   3.606  25.312  1.00  0.00    -0.357 N 
ATOM     14  H4  UNL     1      -3.370   3.001  26.134  1.00  0.00     0.162 HD
HETATM   15  C23 UNL     1      -2.191   3.662  24.630  1.00  0.00     0.152 C 
HETATM   16  C24 UNL     1      -1.727   3.069  23.354  1.00  0.00     0.087 C 
HETATM   17  C25 UNL     1      -2.204   1.731  23.040  1.00  0.00     0.266 C 
HETATM   18  O3  UNL     1      -3.141   1.222  23.658  1.00  0.00    -0.267 OA
HETATM   19  N5  UNL     1      -1.605   0.973  22.018  1.00  0.00    -0.296 N 
ATOM     20  H5  UNL     1      -1.699  -0.042  21.994  1.00  0.00     0.177 HD
HETATM   21  S1  UNL     1      -0.674   1.839  20.765  1.00  0.00    -0.049 SA
HETATM   22  C26 UNL     1      -0.568   3.572  21.193  1.00  0.00     0.134 C 
HETATM   23  C27 UNL     1      -1.589   4.033  22.216  1.00  0.00    -0.033 C 
ENDROOT
BRANCH  12  24
HETATM   24  C12 UNL     1      -5.044   5.008  26.405  1.00  0.00     0.035 C 
BRANCH  24  25
HETATM   25  C13 UNL     1      -3.978   6.035  26.676  1.00  0.00     0.004 C 
BRANCH  25  26
HETATM   26  C14 UNL     1      -3.495   6.028  28.086  1.00  0.00     0.028 C 
BRANCH  26  27
HETATM   27  C15 UNL     1      -2.008   6.026  28.216  1.00  0.00     0.236 C 
BRANCH  27  28
HETATM   28  N3  UNL     1      -1.530   5.803  29.544  1.00  0.00    -0.075 N 
HETATM   29  C16 UNL     1      -0.723   4.621  29.704  1.00  0.00     0.272 C 
HETATM   30  C17 UNL     1      -2.687   5.672  30.438  1.00  0.00     0.272 C 
BRANCH  28  31
HETATM   31  C18 UNL     1      -0.770   6.934  30.053  1.00  0.00     0.236 C 
BRANCH  31  32
HETATM   32  C19 UNL     1      -1.676   8.040  30.492  1.00  0.00     0.028 C 
BRANCH  32  33
HETATM   33  C20 UNL     1      -0.903   8.998  31.408  1.00  0.00     0.001 C 
BRANCH  33  34
HETATM   34  C21 UNL     1      -1.099   8.587  32.848  1.00  0.00    -0.005 C 
HETATM   35  C22 UNL     1      -0.182   9.384  33.736  1.00  0.00     0.005 C 
ENDBRANCH  33  34
ENDBRANCH  32  33
ENDBRANCH  31  32
ENDBRANCH  28  31
ENDBRANCH  27  28
ENDBRANCH  26  27
ENDBRANCH  25  26
ENDBRANCH  24  25
ENDBRANCH  12  24
BRANCH  15  36
HETATM   36  O2  UNL     1      -1.242   4.375  25.203  1.00  0.00    -0.346 OA
ATOM     37  H2  UNL     1      -0.466   4.529  24.678  1.00  0.00     0.219 HD
ENDBRANCH  15  36
BRANCH   1  38
HETATM   38  C4  UNL     1      -2.425   5.888  20.892  1.00  0.00    -0.097 C 
HETATM   39  C3  UNL     1      -2.107   6.902  20.318  1.00  0.00    -0.106 C 
BRANCH  39  40
HETATM   40  C2  UNL     1      -1.706   8.141  19.646  1.00  0.00     0.089 C 
HETATM   41  C1  UNL     1      -2.820   9.158  19.653  1.00  0.00     0.018 C 
ENDBRANCH  39  40
ENDBRANCH   1  38
TORSDOF 12
ENDMDL
MODEL 4
REMARK VINA RESULT: -6.598736681      2.760      8.469
REMARK  12 active torsions:
REMARK  status: ('A' for Active; 'I' for Inactive)
REMARK    1  A    between atoms: C2_2  and  C3_3 
REMARK    2  A    between atoms: C4_4  and  C5_5 
REMARK    3  A    between atoms: C11_16  and  C12_17 
REMARK    4  A    between atoms: C12_17  and  C13_18 
REMARK    5  A    between atoms: C13_18  and  C14_19 
REMARK    6  A    between atoms: C14_19  and  C15_20 
REMARK    7  A    between atoms: C15_20  and  N3_21 
REMARK    8  A    between atoms: N3_21  and  C18_24 
REMARK    9  A    between atoms: C18_24  and  C19_25 
REMARK   10  A    between atoms: C19_25  and  C20_26 
REMARK   11  A    between atoms: C20_26  and  C21_27 
REMARK   12  A    between atoms: C23_31  and  O2_32 
ROOT
HETATM    1  C5  UNL     1      -2.896   4.482  21.999  1.00  0.00     0.097 C 
HETATM    2  C6  UNL     1      -3.960   3.508  21.581  1.00  0.00     0.041 C 
HETATM    3  C7  UNL     1      -5.347   3.921  22.020  1.00  0.00     0.120 C 
HETATM    4  N1  UNL     1      -5.388   4.802  23.125  1.00  0.00    -0.401 N 
ATOM      5  H1  UNL     1      -5.424   5.801  22.921  1.00  0.00     0.158 HD
HETATM    6  C8  UNL     1      -5.385   4.460  24.358  1.00  0.00     0.075 C 
HETATM    7  C9  UNL     1      -5.334   3.055  24.826  1.00  0.00     0.166 C 
HETATM    8  N2  UNL     1      -4.674   2.843  26.069  1.00  0.00    -0.355 N 
ATOM      9  H2  UNL     1      -5.275   2.627  26.863  1.00  0.00     0.162 HD
HETATM   10  C10 UNL     1      -3.288   2.896  26.335  1.00  0.00     0.240 C 
HETATM   11  O1  UNL     1      -2.709   1.943  26.970  1.00  0.00    -0.271 OA
HETATM   12  C11 UNL     1      -2.380   4.003  25.931  1.00  0.00     0.175 C 
HETATM   13  N4  UNL     1      -1.140   3.578  25.339  1.00  0.00    -0.357 N 
ATOM     14  H4  UNL     1      -0.563   3.026  25.974  1.00  0.00     0.162 HD
HETATM   15  C23 UNL     1      -0.556   3.758  24.089  1.00  0.00     0.152 C 
HETATM   16  C24 UNL     1      -0.827   3.167  22.758  1.00  0.00     0.087 C 
HETATM   17  C25 UNL     1      -1.211   1.764  22.728  1.00  0.00     0.266 C 
HETATM   18  O3  UNL     1      -1.547   1.168  23.754  1.00  0.00    -0.267 OA
HETATM   19  N5  UNL     1      -1.205   1.040  21.523  1.00  0.00    -0.296 N 
ATOM     20  H5  UNL     1      -1.156   0.021  21.523  1.00  0.00     0.177 HD
HETATM   21  S1  UNL     1      -1.284   1.956  19.993  1.00  0.00    -0.049 SA
HETATM   22  C26 UNL     1      -1.190   3.707  20.341  1.00  0.00     0.134 C 
HETATM   23  C27 UNL     1      -1.496   4.082  21.779  1.00  0.00    -0.033 C 
ENDROOT
BRANCH  12  24
HETATM   24  C12 UNL     1      -2.037   4.808  27.221  1.00  0.00     0.035 C 
BRANCH  24  25
HETATM   25  C13 UNL     1      -2.946   6.002  27.328  1.00  0.00     0.004 C 
BRANCH  25  26
HETATM   26  C14 UNL     1      -3.761   6.015  28.575  1.00  0.00     0.028 C 
BRANCH  26  27
HETATM   27  C15 UNL     1      -3.408   4.932  29.539  1.00  0.00     0.236 C 
BRANCH  27  28
HETATM   28  N3  UNL     1      -3.887   5.144  30.869  1.00  0.00    -0.075 N 
HETATM   29  C16 UNL     1      -4.655   4.055  31.414  1.00  0.00     0.272 C 
HETATM   30  C17 UNL     1      -4.746   6.335  30.869  1.00  0.00     0.272 C 
BRANCH  28  31
HETATM   31  C18 UNL     1      -2.811   5.441  31.802  1.00  0.00     0.236 C 
BRANCH  31  32
HETATM   32  C19 UNL     1      -2.796   6.892  32.165  1.00  0.00     0.028 C 
BRANCH  32  33
HETATM   33  C20 UNL     1      -1.392   7.462  31.923  1.00  0.00     0.001 C 
BRANCH  33  34
HETATM   34  C21 UNL     1      -1.350   8.144  30.576  1.00  0.00    -0.005 C 
HETATM   35  C22 UNL     1      -0.524   7.331  29.616  1.00  0.00     0.005 C 
ENDBRANCH  33  34
ENDBRANCH  32  33
ENDBRANCH  31  32
ENDBRANCH  28  31
ENDBRANCH  27  28
ENDBRANCH  26  27
ENDBRANCH  25  26
ENDBRANCH  24  25
ENDBRANCH  12  24
BRANCH  15  36
HETATM   36  O2  UNL     1       0.442   4.617  24.040  1.00  0.00    -0.346 OA
ATOM     37  H2  UNL     1       1.135   4.412  23.423  1.00  0.00     0.219 HD
ENDBRANCH  15  36
BRANCH   1  38
HETATM   38  C4  UNL     1      -3.182   5.742  21.234  1.00  0.00    -0.097 C 
HETATM   39  C3  UNL     1      -3.409   6.744  20.600  1.00  0.00    -0.106 C 
BRANCH  39  40
HETATM   40  C2  UNL     1      -3.665   7.952  19.811  1.00  0.00     0.089 C 
HETATM   41  C1  UNL     1      -2.388   8.528  19.253  1.00  0.00     0.018 C 
ENDBRANCH  39  40
ENDBRANCH   1  38
TORSDOF 12
ENDMDL
MODEL 5
REMARK VINA RESULT: -6.569261855      3.173      7.315
REMARK  12 active torsions:
REMARK  status: ('A' for Active; 'I' for Inactive)
REMARK    1  A    between atoms: C2_2  and  C3_3 
REMARK    2  A    between atoms: C4_4  and  C5_5 
REMARK    3  A    between atoms: C11_16  and  C12_17 
REMARK    4  A    between atoms: C12_17  and  C13_18 
REMARK    5  A    between atoms: C13_18  and  C14_19 
REMARK    6  A    between atoms: C14_19  and  C15_20 
REMARK    7  A    between atoms: C15_20  and  N3_21 
REMARK    8  A    between atoms: N3_21  and  C18_24 
REMARK    9  A    between atoms: C18_24  and  C19_25 
REMARK   10  A    between atoms: C19_25  and  C20_26 
REMARK   11  A    between atoms: C20_26  and  C21_27 
REMARK   12  A    between atoms: C23_31  and  O2_32 
ROOT
HETATM    1  C5  UNL     1      -2.828   3.221  23.626  1.00  0.00     0.097 C 
HETATM    2  C6  UNL     1      -3.588   2.413  22.614  1.00  0.00     0.041 C 
HETATM    3  C7  UNL     1      -4.259   1.195  23.208  1.00  0.00     0.120 C 
HETATM    4  N1  UNL     1      -3.690   0.727  24.415  1.00  0.00    -0.401 N 
ATOM      5  H1  UNL     1      -4.097   1.071  25.285  1.00  0.00     0.158 HD
HETATM    6  C8  UNL     1      -2.709  -0.090  24.513  1.00  0.00     0.075 C 
HETATM    7  C9  UNL     1      -2.005  -0.681  23.351  1.00  0.00     0.166 C 
HETATM    8  N2  UNL     1      -0.625  -0.968  23.549  1.00  0.00    -0.355 N 
ATOM      9  H2  UNL     1      -0.383  -1.954  23.642  1.00  0.00     0.162 HD
HETATM   10  C10 UNL     1       0.449  -0.054  23.631  1.00  0.00     0.240 C 
HETATM   11  O1  UNL     1       1.508  -0.228  22.929  1.00  0.00    -0.271 OA
HETATM   12  C11 UNL     1       0.479   1.156  24.496  1.00  0.00     0.175 C 
HETATM   13  N4  UNL     1       0.947   2.349  23.844  1.00  0.00    -0.357 N 
ATOM     14  H4  UNL     1       1.910   2.274  23.517  1.00  0.00     0.162 HD
HETATM   15  C23 UNL     1       0.370   3.584  23.562  1.00  0.00     0.152 C 
HETATM   16  C24 UNL     1      -0.634   4.020  22.564  1.00  0.00     0.087 C 
HETATM   17  C25 UNL     1      -0.572   3.395  21.252  1.00  0.00     0.266 C 
HETATM   18  O3  UNL     1       0.099   2.378  21.057  1.00  0.00    -0.267 OA
HETATM   19  N5  UNL     1      -1.275   3.936  20.161  1.00  0.00    -0.296 N 
ATOM     20  H5  UNL     1      -1.003   3.718  19.202  1.00  0.00     0.177 HD
HETATM   21  S1  UNL     1      -2.656   5.014  20.502  1.00  0.00    -0.049 SA
HETATM   22  C26 UNL     1      -2.754   5.316  22.262  1.00  0.00     0.134 C 
HETATM   23  C27 UNL     1      -1.993   4.321  23.117  1.00  0.00    -0.033 C 
ENDROOT
BRANCH  12  24
HETATM   24  C12 UNL     1       1.448   0.852  25.677  1.00  0.00     0.035 C 
BRANCH  24  25
HETATM   25  C13 UNL     1       0.997   1.595  26.905  1.00  0.00     0.004 C 
BRANCH  25  26
HETATM   26  C14 UNL     1      -0.482   1.746  26.995  1.00  0.00     0.028 C 
BRANCH  26  27
HETATM   27  C15 UNL     1      -0.930   3.127  27.340  1.00  0.00     0.236 C 
BRANCH  27  28
HETATM   28  N3  UNL     1      -1.498   3.257  28.645  1.00  0.00    -0.075 N 
HETATM   29  C16 UNL     1      -0.546   3.526  29.692  1.00  0.00     0.272 C 
HETATM   30  C17 UNL     1      -2.183   2.003  28.980  1.00  0.00     0.272 C 
BRANCH  28  31
HETATM   31  C18 UNL     1      -2.523   4.288  28.700  1.00  0.00     0.236 C 
BRANCH  31  32
HETATM   32  C19 UNL     1      -2.106   5.505  27.935  1.00  0.00     0.028 C 
BRANCH  32  33
HETATM   33  C20 UNL     1      -2.296   6.748  28.815  1.00  0.00     0.001 C 
BRANCH  33  34
HETATM   34  C21 UNL     1      -0.965   7.167  29.392  1.00  0.00    -0.005 C 
HETATM   35  C22 UNL     1      -1.183   8.042  30.596  1.00  0.00     0.005 C 
ENDBRANCH  33  34
ENDBRANCH  32  33
ENDBRANCH  31  32
ENDBRANCH  28  31
ENDBRANCH  27  28
ENDBRANCH  26  27
ENDBRANCH  25  26
ENDBRANCH  24  25
ENDBRANCH  12  24
BRANCH  15  36
HETATM   36  O2  UNL     1       0.775   4.591  24.310  1.00  0.00    -0.346 OA
ATOM     37  H2  UNL     1       0.350   5.424  24.148  1.00  0.00     0.219 HD
ENDBRANCH  15  36
BRANCH   1  38
HETATM   38  C4  UNL     1      -3.867   3.773  24.560  1.00  0.00    -0.097 C 
HETATM   39  C3  UNL     1      -4.688   4.233  25.316  1.00  0.00    -0.106 C 
BRANCH  39  40
HETATM   40  C2  UNL     1      -5.663   4.802  26.251  1.00  0.00     0.089 C 
HETATM   41  C1  UNL     1      -7.029   4.915  25.622  1.00  0.00     0.018 C 
ENDBRANCH  39  40
ENDBRANCH   1  38
TORSDOF 12
ENDMDL
