MODEL 1
REMARK VINA RESULT: -6.321068913      0.000      0.000
REMARK  10 active torsions:
REMARK  status: ('A' for Active; 'I' for Inactive)
REMARK    1  A    between atoms: C2_2  and  C3_3 
REMARK    2  A    between atoms: C4_4  and  C5_5 
REMARK       I    between atoms: C5_5  and  N1_7 
REMARK    3  A    between atoms: C7_9  and  N2_10 
REMARK    4  A    between atoms: N2_10  and  C8_12 
REMARK    5  A    between atoms: C10_16  and  C11_17 
REMARK       I    between atoms: C11_17  and  N4_19 
REMARK    6  A    between atoms: N4_19  and  C12_21 
REMARK    7  A    between atoms: C12_21  and  C13_22 
REMARK    8  A    between atoms: C12_21  and  C14_25 
REMARK       I    between atoms: C14_25  and  N6_27 
REMARK    9  A    between atoms: N6_27  and  C15_28 
REMARK   10  A    between atoms: N6_27  and  C18_31 
ROOT
HETATM    1  C5  UNL     1      -4.661   3.402  21.829  1.00  0.00     0.225 C 
HETATM    2  O1  UNL     1      -5.859   3.563  21.468  1.00  0.00    -0.273 OA
HETATM    3  N1  UNL     1      -3.677   4.126  21.104  1.00  0.00    -0.336 N 
HETATM    4  C6  UNL     1      -3.938   5.040  20.013  1.00  0.00     0.152 C 
HETATM    5  C7  UNL     1      -2.894   6.098  20.018  1.00  0.00     0.104 C 
HETATM    6  C9  UNL     1      -1.835   5.572  20.934  1.00  0.00     0.061 C 
HETATM    7  C10 UNL     1      -2.234   4.124  21.246  1.00  0.00     0.181 C 
ENDROOT
BRANCH   7   8
HETATM    8  C11 UNL     1      -1.581   3.264  20.237  1.00  0.00     0.241 C 
HETATM    9  O2  UNL     1      -0.954   3.814  19.302  1.00  0.00    -0.271 OA
HETATM   10  N4  UNL     1      -1.639   1.857  20.285  1.00  0.00    -0.339 N 
ATOM     11  H4  UNL     1      -2.152   1.415  21.047  1.00  0.00     0.163 HD
BRANCH  10  12
HETATM   12  C12 UNL     1      -0.992   1.001  19.283  1.00  0.00     0.266 C 
BRANCH  12  13
HETATM   13  C13 UNL     1       0.259   0.500  19.931  1.00  0.00     0.263 C 
HETATM   14  N5  UNL     1       0.286  -0.661  20.738  1.00  0.00    -0.060 NA
HETATM   15  O3  UNL     1       1.369   1.123  19.768  1.00  0.00    -0.274 OA
ENDBRANCH  12  13
BRANCH  12  16
HETATM   16  C14 UNL     1      -1.863  -0.150  18.954  1.00  0.00     0.252 C 
HETATM   17  O4  UNL     1      -2.806  -0.386  19.763  1.00  0.00    -0.270 OA
HETATM   18  N6  UNL     1      -1.727  -0.970  17.842  1.00  0.00    -0.342 N 
BRANCH  18  19
HETATM   19  C15 UNL     1      -2.651  -2.105  17.642  1.00  0.00     0.079 C 
HETATM   20  C16 UNL     1      -4.085  -1.612  17.658  1.00  0.00     0.032 C 
HETATM   21  C17 UNL     1      -2.484  -3.103  18.742  1.00  0.00     0.032 C 
ENDBRANCH  18  19
BRANCH  18  22
HETATM   22  C18 UNL     1      -0.721  -0.752  16.839  1.00  0.00     0.079 C 
HETATM   23  C19 UNL     1      -1.347  -1.022  15.442  1.00  0.00     0.032 C 
HETATM   24  C20 UNL     1       0.451  -1.677  16.915  1.00  0.00     0.032 C 
ENDBRANCH  18  22
ENDBRANCH  12  16
ENDBRANCH  10  12
ENDBRANCH   7   8
BRANCH   1  25
HETATM   25  C4  UNL     1      -4.388   2.504  22.940  1.00  0.00     0.088 C 
HETATM   26  C3  UNL     1      -4.064   3.062  24.290  1.00  0.00     0.008 C 
HETATM   27  C25 UNL     1      -5.133   2.234  24.933  1.00  0.00    -0.027 A 
HETATM   28  C21 UNL     1      -5.639   1.942  23.572  1.00  0.00     0.017 A 
HETATM   29  C22 UNL     1      -5.373   0.830  24.518  1.00  0.00    -0.034 A 
HETATM   30  C26 UNL     1      -5.992   2.832  26.010  1.00  0.00     0.016 C 
HETATM   31  C23 UNL     1      -6.583   0.093  24.984  1.00  0.00     0.016 C 
HETATM   32  C24 UNL     1      -4.129  -0.020  24.358  1.00  0.00     0.016 C 
BRANCH  26  33
HETATM   33  C2  UNL     1      -4.289   4.530  24.508  1.00  0.00     0.002 C 
HETATM   34  C1  UNL     1      -2.969   5.176  24.873  1.00  0.00     0.005 C 
ENDBRANCH  26  33
ENDBRANCH   1  25
BRANCH   5  35
HETATM   35  N2  UNL     1      -3.344   7.410  20.369  1.00  0.00    -0.363 N 
ATOM     36  H2  UNL     1      -3.964   7.515  21.172  1.00  0.00     0.162 HD
BRANCH  35  37
HETATM   37  C8  UNL     1      -2.966   8.567  19.649  1.00  0.00     0.181 C 
HETATM   38  N3  UNL     1      -1.912   8.445  18.703  1.00  0.00    -0.070 NA
HETATM   39  S1  UNL     1      -3.717   9.999  19.897  1.00  0.00    -0.044 SA
ENDBRANCH  35  37
ENDBRANCH   5  35
TORSDOF 10
ENDMDL
MODEL 2
REMARK VINA RESULT: -6.228655356      1.655      2.189
REMARK  10 active torsions:
REMARK  status: ('A' for Active; 'I' for Inactive)
REMARK    1  A    between atoms: C2_2  and  C3_3 
REMARK    2  A    between atoms: C4_4  and  C5_5 
REMARK       I    between atoms: C5_5  and  N1_7 
REMARK    3  A    between atoms: C7_9  and  N2_10 
REMARK    4  A    between atoms: N2_10  and  C8_12 
REMARK    5  A    between atoms: C10_16  and  C11_17 
REMARK       I    between atoms: C11_17  and  N4_19 
REMARK    6  A    between atoms: N4_19  and  C12_21 
REMARK    7  A    between atoms: C12_21  and  C13_22 
REMARK    8  A    between atoms: C12_21  and  C14_25 
REMARK       I    between atoms: C14_25  and  N6_27 
REMARK    9  A    between atoms: N6_27  and  C15_28 
REMARK   10  A    between atoms: N6_27  and  C18_31 
ROOT
HETATM    1  C5  UNL     1      -4.218   3.550  20.670  1.00  0.00     0.225 C 
HETATM    2  O1  UNL     1      -4.913   4.022  19.729  1.00  0.00    -0.273 OA
HETATM    3  N1  UNL     1      -2.828   3.837  20.639  1.00  0.00    -0.336 N 
HETATM    4  C6  UNL     1      -2.155   4.636  19.637  1.00  0.00     0.152 C 
HETATM    5  C7  UNL     1      -0.994   5.315  20.270  1.00  0.00     0.104 C 
HETATM    6  C9  UNL     1      -0.821   4.613  21.581  1.00  0.00     0.061 C 
HETATM    7  C10 UNL     1      -1.773   3.411  21.539  1.00  0.00     0.181 C 
ENDROOT
BRANCH   7   8
HETATM    8  C11 UNL     1      -1.011   2.269  20.994  1.00  0.00     0.241 C 
HETATM    9  O2  UNL     1       0.241   2.336  20.989  1.00  0.00    -0.271 OA
HETATM   10  N4  UNL     1      -1.633   1.114  20.481  1.00  0.00    -0.339 N 
ATOM     11  H4  UNL     1      -2.652   1.064  20.486  1.00  0.00     0.163 HD
BRANCH  10  12
HETATM   12  C12 UNL     1      -0.877  -0.021  19.938  1.00  0.00     0.266 C 
BRANCH  12  13
HETATM   13  C13 UNL     1      -0.864  -1.050  21.023  1.00  0.00     0.263 C 
HETATM   14  N5  UNL     1       0.127  -2.055  21.107  1.00  0.00    -0.060 NA
HETATM   15  O3  UNL     1      -1.772  -1.048  21.931  1.00  0.00    -0.274 OA
ENDBRANCH  12  13
BRANCH  12  16
HETATM   16  C14 UNL     1      -1.568  -0.577  18.753  1.00  0.00     0.252 C 
HETATM   17  O4  UNL     1      -2.807  -0.799  18.881  1.00  0.00    -0.270 OA
HETATM   18  N6  UNL     1      -0.970  -0.862  17.533  1.00  0.00    -0.342 N 
BRANCH  18  19
HETATM   19  C15 UNL     1      -1.770  -1.439  16.433  1.00  0.00     0.079 C 
HETATM   20  C16 UNL     1      -1.788  -2.951  16.546  1.00  0.00     0.032 C 
HETATM   21  C17 UNL     1      -1.169  -1.073  15.114  1.00  0.00     0.032 C 
ENDBRANCH  18  19
BRANCH  18  22
HETATM   22  C18 UNL     1       0.418  -0.597  17.272  1.00  0.00     0.079 C 
HETATM   23  C19 UNL     1       1.267  -1.737  17.902  1.00  0.00     0.032 C 
HETATM   24  C20 UNL     1       0.945   0.655  17.895  1.00  0.00     0.032 C 
ENDBRANCH  18  22
ENDBRANCH  12  16
ENDBRANCH  10  12
ENDBRANCH   7   8
BRANCH   1  25
HETATM   25  C4  UNL     1      -4.886   2.765  21.695  1.00  0.00     0.088 C 
HETATM   26  C3  UNL     1      -4.985   3.289  23.093  1.00  0.00     0.008 C 
HETATM   27  C25 UNL     1      -6.469   3.085  23.108  1.00  0.00    -0.027 A 
HETATM   28  C21 UNL     1      -6.392   2.876  21.644  1.00  0.00     0.017 A 
HETATM   29  C22 UNL     1      -7.086   1.881  22.499  1.00  0.00    -0.034 A 
HETATM   30  C26 UNL     1      -7.357   4.120  23.737  1.00  0.00     0.016 C 
HETATM   31  C23 UNL     1      -8.562   1.798  22.302  1.00  0.00     0.016 C 
HETATM   32  C24 UNL     1      -6.411   0.567  22.834  1.00  0.00     0.016 C 
BRANCH  26  33
HETATM   33  C2  UNL     1      -4.618   4.726  23.325  1.00  0.00     0.002 C 
HETATM   34  C1  UNL     1      -3.546   4.788  24.393  1.00  0.00     0.005 C 
ENDBRANCH  26  33
ENDBRANCH   1  25
BRANCH   5  35
HETATM   35  N2  UNL     1      -1.102   6.735  20.400  1.00  0.00    -0.363 N 
ATOM     36  H2  UNL     1      -0.461   7.219  21.029  1.00  0.00     0.162 HD
BRANCH  35  37
HETATM   37  C8  UNL     1      -2.061   7.498  19.693  1.00  0.00     0.181 C 
HETATM   38  N3  UNL     1      -1.640   8.155  18.504  1.00  0.00    -0.070 NA
HETATM   39  S1  UNL     1      -3.603   7.621  20.224  1.00  0.00    -0.044 SA
ENDBRANCH  35  37
ENDBRANCH   5  35
TORSDOF 10
ENDMDL
MODEL 3
REMARK VINA RESULT: -6.173874642      2.018      3.097
REMARK  10 active torsions:
REMARK  status: ('A' for Active; 'I' for Inactive)
REMARK    1  A    between atoms: C2_2  and  C3_3 
REMARK    2  A    between atoms: C4_4  and  C5_5 
REMARK       I    between atoms: C5_5  and  N1_7 
REMARK    3  A    between atoms: C7_9  and  N2_10 
REMARK    4  A    between atoms: N2_10  and  C8_12 
REMARK    5  A    between atoms: C10_16  and  C11_17 
REMARK       I    between atoms: C11_17  and  N4_19 
REMARK    6  A    between atoms: N4_19  and  C12_21 
REMARK    7  A    between atoms: C12_21  and  C13_22 
REMARK    8  A    between atoms: C12_21  and  C14_25 
REMARK       I    between atoms: C14_25  and  N6_27 
REMARK    9  A    between atoms: N6_27  and  C15_28 
REMARK   10  A    between atoms: N6_27  and  C18_31 
ROOT
HETATM    1  C5  UNL     1      -4.062   3.171  22.773  1.00  0.00     0.225 C 
HETATM    2  O1  UNL     1      -5.058   3.834  22.373  1.00  0.00    -0.273 OA
HETATM    3  N1  UNL     1      -2.895   3.230  21.967  1.00  0.00    -0.336 N 
HETATM    4  C6  UNL     1      -2.751   3.998  20.748  1.00  0.00     0.152 C 
HETATM    5  C7  UNL     1      -1.331   4.418  20.615  1.00  0.00     0.104 C 
HETATM    6  C9  UNL     1      -0.599   3.582  21.617  1.00  0.00     0.061 C 
HETATM    7  C10 UNL     1      -1.620   2.559  22.131  1.00  0.00     0.181 C 
ENDROOT
BRANCH   7   8
HETATM    8  C11 UNL     1      -1.511   1.362  21.272  1.00  0.00     0.241 C 
HETATM    9  O2  UNL     1      -2.463   0.546  21.264  1.00  0.00    -0.271 OA
HETATM   10  N4  UNL     1      -0.385   1.104  20.467  1.00  0.00    -0.339 N 
ATOM     11  H4  UNL     1       0.387   1.770  20.477  1.00  0.00     0.163 HD
BRANCH  10  12
HETATM   12  C12 UNL     1      -0.275  -0.085  19.613  1.00  0.00     0.266 C 
BRANCH  12  13
HETATM   13  C13 UNL     1      -0.267   0.428  18.208  1.00  0.00     0.263 C 
HETATM   14  N5  UNL     1      -1.053  -0.145  17.183  1.00  0.00    -0.060 NA
HETATM   15  O3  UNL     1       0.471   1.429  17.887  1.00  0.00    -0.274 OA
ENDBRANCH  12  13
BRANCH  12  16
HETATM   16  C14 UNL     1       1.000  -0.790  19.878  1.00  0.00     0.252 C 
HETATM   17  O4  UNL     1       1.924  -0.098  20.394  1.00  0.00    -0.270 OA
HETATM   18  N6  UNL     1       1.248  -2.130  19.612  1.00  0.00    -0.342 N 
BRANCH  18  19
HETATM   19  C15 UNL     1       2.576  -2.708  19.903  1.00  0.00     0.079 C 
HETATM   20  C16 UNL     1       2.956  -2.431  21.345  1.00  0.00     0.032 C 
HETATM   21  C17 UNL     1       3.610  -2.090  19.017  1.00  0.00     0.032 C 
ENDBRANCH  18  19
BRANCH  18  22
HETATM   22  C18 UNL     1       0.247  -3.010  19.075  1.00  0.00     0.079 C 
HETATM   23  C19 UNL     1       0.266  -4.336  19.888  1.00  0.00     0.032 C 
HETATM   24  C20 UNL     1       0.476  -3.431  17.659  1.00  0.00     0.032 C 
ENDBRANCH  18  22
ENDBRANCH  12  16
ENDBRANCH  10  12
ENDBRANCH   7   8
BRANCH   1  25
HETATM   25  C4  UNL     1      -4.187   2.415  24.009  1.00  0.00     0.088 C 
HETATM   26  C3  UNL     1      -3.539   2.916  25.261  1.00  0.00     0.008 C 
HETATM   27  C25 UNL     1      -4.829   2.818  26.016  1.00  0.00    -0.027 A 
HETATM   28  C21 UNL     1      -5.506   2.634  24.710  1.00  0.00     0.017 A 
HETATM   29  C22 UNL     1      -5.753   1.674  25.816  1.00  0.00    -0.034 A 
HETATM   30  C26 UNL     1      -5.210   3.901  26.984  1.00  0.00     0.016 C 
HETATM   31  C23 UNL     1      -7.133   1.701  26.380  1.00  0.00     0.016 C 
HETATM   32  C24 UNL     1      -5.098   0.309  25.794  1.00  0.00     0.016 C 
BRANCH  26  33
HETATM   33  C2  UNL     1      -3.003   4.318  25.254  1.00  0.00     0.002 C 
HETATM   34  C1  UNL     1      -1.515   4.271  25.534  1.00  0.00     0.005 C 
ENDBRANCH  26  33
ENDBRANCH   1  25
BRANCH   5  35
HETATM   35  N2  UNL     1      -1.085   5.820  20.761  1.00  0.00    -0.363 N 
ATOM     36  H2  UNL     1      -0.990   6.204  21.701  1.00  0.00     0.162 HD
BRANCH  35  37
HETATM   37  C8  UNL     1      -0.967   6.695  19.657  1.00  0.00     0.181 C 
HETATM   38  N3  UNL     1      -0.174   6.271  18.555  1.00  0.00    -0.070 NA
HETATM   39  S1  UNL     1      -1.717   8.149  19.647  1.00  0.00    -0.044 SA
ENDBRANCH  35  37
ENDBRANCH   5  35
TORSDOF 10
ENDMDL
MODEL 4
REMARK VINA RESULT: -6.133167521      2.471      3.360
REMARK  10 active torsions:
REMARK  status: ('A' for Active; 'I' for Inactive)
REMARK    1  A    between atoms: C2_2  and  C3_3 
REMARK    2  A    between atoms: C4_4  and  C5_5 
REMARK       I    between atoms: C5_5  and  N1_7 
REMARK    3  A    between atoms: C7_9  and  N2_10 
REMARK    4  A    between atoms: N2_10  and  C8_12 
REMARK    5  A    between atoms: C10_16  and  C11_17 
REMARK       I    between atoms: C11_17  and  N4_19 
REMARK    6  A    between atoms: N4_19  and  C12_21 
REMARK    7  A    between atoms: C12_21  and  C13_22 
REMARK    8  A    between atoms: C12_21  and  C14_25 
REMARK       I    between atoms: C14_25  and  N6_27 
REMARK    9  A    between atoms: N6_27  and  C15_28 
REMARK   10  A    between atoms: N6_27  and  C18_31 
ROOT
HETATM    1  C5  UNL     1      -2.808   2.868  23.398  1.00  0.00     0.225 C 
HETATM    2  O1  UNL     1      -3.681   2.135  23.937  1.00  0.00    -0.273 OA
HETATM    3  N1  UNL     1      -3.086   3.325  22.083  1.00  0.00    -0.336 N 
HETATM    4  C6  UNL     1      -4.287   3.038  21.328  1.00  0.00     0.152 C 
HETATM    5  C7  UNL     1      -4.568   4.185  20.425  1.00  0.00     0.104 C 
HETATM    6  C9  UNL     1      -3.306   4.988  20.439  1.00  0.00     0.061 C 
HETATM    7  C10 UNL     1      -2.277   4.135  21.192  1.00  0.00     0.181 C 
ENDROOT
BRANCH   7   8
HETATM    8  C11 UNL     1      -1.571   3.314  20.188  1.00  0.00     0.241 C 
HETATM    9  O2  UNL     1      -1.083   3.888  19.185  1.00  0.00    -0.271 OA
HETATM   10  N4  UNL     1      -1.426   1.918  20.312  1.00  0.00    -0.339 N 
ATOM     11  H4  UNL     1      -1.825   1.456  21.128  1.00  0.00     0.163 HD
BRANCH  10  12
HETATM   12  C12 UNL     1      -0.725   1.100  19.314  1.00  0.00     0.266 C 
BRANCH  12  13
HETATM   13  C13 UNL     1       0.500   0.589  20.003  1.00  0.00     0.263 C 
HETATM   14  N5  UNL     1       0.454  -0.432  20.980  1.00  0.00    -0.060 NA
HETATM   15  O3  UNL     1       1.654   1.074  19.719  1.00  0.00    -0.274 OA
ENDBRANCH  12  13
BRANCH  12  16
HETATM   16  C14 UNL     1      -1.568  -0.048  18.909  1.00  0.00     0.252 C 
HETATM   17  O4  UNL     1      -2.656  -0.192  19.538  1.00  0.00    -0.270 OA
HETATM   18  N6  UNL     1      -1.261  -0.957  17.906  1.00  0.00    -0.342 N 
BRANCH  18  19
HETATM   19  C15 UNL     1      -2.180  -2.077  17.616  1.00  0.00     0.079 C 
HETATM   20  C16 UNL     1      -3.578  -1.546  17.364  1.00  0.00     0.032 C 
HETATM   21  C17 UNL     1      -2.234  -3.011  18.781  1.00  0.00     0.032 C 
ENDBRANCH  18  19
BRANCH  18  22
HETATM   22  C18 UNL     1      -0.076  -0.848  17.101  1.00  0.00     0.079 C 
HETATM   23  C19 UNL     1      -0.466  -1.068  15.612  1.00  0.00     0.032 C 
HETATM   24  C20 UNL     1       0.966  -1.884  17.376  1.00  0.00     0.032 C 
ENDBRANCH  18  22
ENDBRANCH  12  16
ENDBRANCH  10  12
ENDBRANCH   7   8
BRANCH   1  25
HETATM   25  C4  UNL     1      -1.607   3.183  24.155  1.00  0.00     0.088 C 
HETATM   26  C3  UNL     1      -1.688   4.093  25.340  1.00  0.00     0.008 C 
HETATM   27  C25 UNL     1      -1.000   3.086  26.211  1.00  0.00    -0.027 A 
HETATM   28  C21 UNL     1      -1.216   2.097  25.129  1.00  0.00     0.017 A 
HETATM   29  C22 UNL     1       0.140   2.282  25.705  1.00  0.00    -0.034 A 
HETATM   30  C26 UNL     1      -1.478   2.869  27.618  1.00  0.00     0.016 C 
HETATM   31  C23 UNL     1       0.660   1.122  26.485  1.00  0.00     0.016 C 
HETATM   32  C24 UNL     1       1.190   3.059  24.938  1.00  0.00     0.016 C 
BRANCH  26  33
HETATM   33  C2  UNL     1      -3.052   4.440  25.860  1.00  0.00     0.002 C 
HETATM   34  C1  UNL     1      -3.033   5.868  26.362  1.00  0.00     0.005 C 
ENDBRANCH  26  33
ENDBRANCH   1  25
BRANCH   5  35
HETATM   35  N2  UNL     1      -5.731   4.955  20.746  1.00  0.00    -0.363 N 
ATOM     36  H2  UNL     1      -5.818   5.894  20.357  1.00  0.00     0.162 HD
BRANCH  35  37
HETATM   37  C8  UNL     1      -6.765   4.469  21.580  1.00  0.00     0.181 C 
HETATM   38  N3  UNL     1      -6.739   4.839  22.953  1.00  0.00    -0.070 NA
HETATM   39  S1  UNL     1      -7.951   3.512  20.986  1.00  0.00    -0.044 SA
ENDBRANCH  35  37
ENDBRANCH   5  35
TORSDOF 10
ENDMDL
MODEL 5
REMARK VINA RESULT: -6.100395199      3.456      4.487
REMARK  10 active torsions:
REMARK  status: ('A' for Active; 'I' for Inactive)
REMARK    1  A    between atoms: C2_2  and  C3_3 
REMARK    2  A    between atoms: C4_4  and  C5_5 
REMARK       I    between atoms: C5_5  and  N1_7 
REMARK    3  A    between atoms: C7_9  and  N2_10 
REMARK    4  A    between atoms: N2_10  and  C8_12 
REMARK    5  A    between atoms: C10_16  and  C11_17 
REMARK       I    between atoms: C11_17  and  N4_19 
REMARK    6  A    between atoms: N4_19  and  C12_21 
REMARK    7  A    between atoms: C12_21  and  C13_22 
REMARK    8  A    between atoms: C12_21  and  C14_25 
REMARK       I    between atoms: C14_25  and  N6_27 
REMARK    9  A    between atoms: N6_27  and  C15_28 
REMARK   10  A    between atoms: N6_27  and  C18_31 
ROOT
HETATM    1  C5  UNL     1      -0.886   0.445  23.230  1.00  0.00     0.225 C 
HETATM    2  O1  UNL     1      -1.854  -0.166  23.760  1.00  0.00    -0.273 OA
HETATM    3  N1  UNL     1      -1.163   1.151  22.029  1.00  0.00    -0.336 N 
HETATM    4  C6  UNL     1      -2.456   1.244  21.385  1.00  0.00     0.152 C 
HETATM    5  C7  UNL     1      -2.547   2.552  20.686  1.00  0.00     0.104 C 
HETATM    6  C9  UNL     1      -1.141   3.062  20.663  1.00  0.00     0.061 C 
HETATM    7  C10 UNL     1      -0.270   1.905  21.170  1.00  0.00     0.181 C 
ENDROOT
BRANCH   7   8
HETATM    8  C11 UNL     1       0.150   1.124  19.989  1.00  0.00     0.241 C 
HETATM    9  O2  UNL     1      -0.131   1.568  18.851  1.00  0.00    -0.271 OA
HETATM   10  N4  UNL     1       0.848  -0.096  20.093  1.00  0.00    -0.339 N 
ATOM     11  H4  UNL     1       1.073  -0.453  21.021  1.00  0.00     0.163 HD
BRANCH  10  12
HETATM   12  C12 UNL     1       1.265  -0.874  18.920  1.00  0.00     0.266 C 
BRANCH  12  13
HETATM   13  C13 UNL     1       2.605  -1.438  19.268  1.00  0.00     0.263 C 
HETATM   14  N5  UNL     1       3.244  -2.425  18.482  1.00  0.00    -0.060 NA
HETATM   15  O3  UNL     1       3.229  -1.032  20.315  1.00  0.00    -0.274 OA
ENDBRANCH  12  13
BRANCH  12  16
HETATM   16  C14 UNL     1       0.318  -1.986  18.681  1.00  0.00     0.252 C 
HETATM   17  O4  UNL     1       0.122  -2.772  19.652  1.00  0.00    -0.270 OA
HETATM   18  N6  UNL     1      -0.361  -2.223  17.493  1.00  0.00    -0.342 N 
BRANCH  18  19
HETATM   19  C15 UNL     1      -1.263  -3.388  17.377  1.00  0.00     0.079 C 
HETATM   20  C16 UNL     1      -2.318  -3.335  18.466  1.00  0.00     0.032 C 
HETATM   21  C17 UNL     1      -0.487  -4.655  17.534  1.00  0.00     0.032 C 
ENDBRANCH  18  19
BRANCH  18  22
HETATM   22  C18 UNL     1      -0.246  -1.359  16.351  1.00  0.00     0.079 C 
HETATM   23  C19 UNL     1      -1.657  -0.806  16.004  1.00  0.00     0.032 C 
HETATM   24  C20 UNL     1       0.215  -2.034  15.099  1.00  0.00     0.032 C 
ENDBRANCH  18  22
ENDBRANCH  12  16
ENDBRANCH  10  12
ENDBRANCH   7   8
BRANCH   1  25
HETATM   25  C4  UNL     1       0.413   0.379  23.879  1.00  0.00     0.088 C 
HETATM   26  C3  UNL     1       0.947   1.573  24.606  1.00  0.00     0.008 C 
HETATM   27  C25 UNL     1       1.185   0.764  25.844  1.00  0.00    -0.027 A 
HETATM   28  C21 UNL     1       0.371  -0.308  25.224  1.00  0.00     0.017 A 
HETATM   29  C22 UNL     1       1.717  -0.619  25.769  1.00  0.00    -0.034 A 
HETATM   30  C26 UNL     1       0.868   1.351  27.189  1.00  0.00     0.016 C 
HETATM   31  C23 UNL     1       1.724  -1.500  26.972  1.00  0.00     0.016 C 
HETATM   32  C24 UNL     1       2.889  -0.813  24.829  1.00  0.00     0.016 C 
BRANCH  26  33
HETATM   33  C2  UNL     1       0.004   2.713  24.858  1.00  0.00     0.002 C 
HETATM   34  C1  UNL     1       0.514   3.937  24.126  1.00  0.00     0.005 C 
ENDBRANCH  26  33
ENDBRANCH   1  25
BRANCH   5  35
HETATM   35  N2  UNL     1      -3.478   3.487  21.240  1.00  0.00    -0.363 N 
ATOM     36  H2  UNL     1      -3.483   3.631  22.250  1.00  0.00     0.162 HD
BRANCH  35  37
HETATM   37  C8  UNL     1      -4.391   4.219  20.447  1.00  0.00     0.181 C 
HETATM   38  N3  UNL     1      -3.887   5.316  19.696  1.00  0.00    -0.070 NA
HETATM   39  S1  UNL     1      -5.977   3.819  20.396  1.00  0.00    -0.044 SA
ENDBRANCH  35  37
ENDBRANCH   5  35
TORSDOF 10
ENDMDL
