MODEL 1
REMARK VINA RESULT: -6.271944630      0.000      0.000
REMARK  9 active torsions:
REMARK  status: ('A' for Active; 'I' for Inactive)
REMARK    1  A    between atoms: C2_2  and  N1_5 
REMARK       I    between atoms: N1_5  and  C5_7 
REMARK    2  A    between atoms: C5_7  and  C6_9 
REMARK    3  A    between atoms: C8_11  and  C9_12 
REMARK    4  A    between atoms: C9_12  and  N2_13 
REMARK       I    between atoms: N3_17  and  C13_18 
REMARK    5  A    between atoms: C13_18  and  C14_20 
REMARK    6  A    between atoms: C14_20  and  N4_21 
REMARK       I    between atoms: N4_21  and  C15_23 
REMARK    7  A    between atoms: C15_23  and  C16_25 
REMARK    8  A    between atoms: C16_25  and  N5_26 
REMARK       I    between atoms: N5_26  and  C17_28 
REMARK    9  A    between atoms: C17_28  and  C18_30 
ROOT
HETATM    1  C6  UNL     1       2.438  -2.020  18.265  1.00  0.00     0.181 C 
HETATM    2  C7  UNL     1       3.011  -2.807  19.422  1.00  0.00     0.062 C 
HETATM    3  C8  UNL     1       2.133  -2.062  20.364  1.00  0.00     0.116 C 
HETATM    4  N3  UNL     1       1.858  -1.143  19.274  1.00  0.00    -0.331 N 
HETATM    5  C13 UNL     1       1.259   0.135  19.124  1.00  0.00     0.238 C 
HETATM    6  O2  UNL     1       1.154   0.694  17.979  1.00  0.00    -0.272 OA
ENDROOT
BRANCH   1   7
HETATM    7  C5  UNL     1       1.432  -2.733  17.444  1.00  0.00     0.241 C 
HETATM    8  N1  UNL     1       0.720  -2.011  16.455  1.00  0.00    -0.351 N 
ATOM      9  H1  UNL     1       0.918  -1.018  16.332  1.00  0.00     0.163 HD
HETATM   10  O1  UNL     1       1.243  -3.950  17.651  1.00  0.00    -0.271 OA
BRANCH   8  11
HETATM   11  C2  UNL     1      -0.282  -2.637  15.609  1.00  0.00     0.022 C 
HETATM   12  C1  UNL     1       0.422  -3.490  14.584  1.00  0.00     0.037 C 
HETATM   13  C3  UNL     1      -1.253  -3.480  16.393  1.00  0.00     0.037 C 
HETATM   14  C4  UNL     1      -1.022  -1.520  14.889  1.00  0.00     0.037 C 
ENDBRANCH   8  11
ENDBRANCH   1   7
BRANCH   3  15
HETATM   15  C9  UNL     1       2.685  -1.395  21.537  1.00  0.00     0.261 C 
BRANCH  15  16
HETATM   16  N2  UNL     1       2.223  -1.817  22.827  1.00  0.00    -0.077 N 
HETATM   17  C10 UNL     1       3.073  -2.930  23.236  1.00  0.00     0.271 C 
HETATM   18  C11 UNL     1       2.308  -0.829  23.850  1.00  0.00     0.271 C 
HETATM   19  C12 UNL     1       0.872  -2.382  22.704  1.00  0.00     0.271 C 
ENDBRANCH  15  16
ENDBRANCH   3  15
BRANCH   5  20
HETATM   20  C14 UNL     1       0.724   0.895  20.266  1.00  0.00     0.225 C 
BRANCH  20  21
HETATM   21  N4  UNL     1      -0.450   1.693  19.878  1.00  0.00    -0.351 N 
HETATM   22  C15 UNL     1      -0.750   2.863  20.561  1.00  0.00     0.235 C 
HETATM   23  O3  UNL     1       0.028   3.207  21.523  1.00  0.00    -0.272 OA
ATOM     24  H4  UNL     1      -1.044   1.386  19.107  1.00  0.00     0.163 HD
BRANCH  22  25
HETATM   25  C16 UNL     1      -1.867   3.757  20.300  1.00  0.00     0.225 C 
BRANCH  25  26
HETATM   26  N5  UNL     1      -3.126   3.193  20.690  1.00  0.00    -0.352 N 
HETATM   27  C17 UNL     1      -4.332   3.900  20.310  1.00  0.00     0.225 C 
HETATM   28  O4  UNL     1      -4.247   4.957  19.669  1.00  0.00    -0.273 OA
ATOM     29  H5  UNL     1      -3.171   2.322  21.217  1.00  0.00     0.162 HD
BRANCH  27  30
HETATM   30  C18 UNL     1      -5.633   3.328  20.707  1.00  0.00     0.030 C 
HETATM   31  C19 UNL     1      -5.372   2.028  21.449  1.00  0.00     0.024 C 
HETATM   32  C20 UNL     1      -6.507   3.045  19.503  1.00  0.00     0.024 C 
HETATM   33  C21 UNL     1      -6.348   4.328  21.573  1.00  0.00     0.024 C 
ENDBRANCH  27  30
ENDBRANCH  25  26
ENDBRANCH  22  25
ENDBRANCH  20  21
ENDBRANCH   5  20
TORSDOF 9
ENDMDL
MODEL 2
REMARK VINA RESULT: -6.078608495      3.388      8.829
REMARK  9 active torsions:
REMARK  status: ('A' for Active; 'I' for Inactive)
REMARK    1  A    between atoms: C2_2  and  N1_5 
REMARK       I    between atoms: N1_5  and  C5_7 
REMARK    2  A    between atoms: C5_7  and  C6_9 
REMARK    3  A    between atoms: C8_11  and  C9_12 
REMARK    4  A    between atoms: C9_12  and  N2_13 
REMARK       I    between atoms: N3_17  and  C13_18 
REMARK    5  A    between atoms: C13_18  and  C14_20 
REMARK    6  A    between atoms: C14_20  and  N4_21 
REMARK       I    between atoms: N4_21  and  C15_23 
REMARK    7  A    between atoms: C15_23  and  C16_25 
REMARK    8  A    between atoms: C16_25  and  N5_26 
REMARK       I    between atoms: N5_26  and  C17_28 
REMARK    9  A    between atoms: C17_28  and  C18_30 
ROOT
HETATM    1  C6  UNL     1       0.533   2.815  24.233  1.00  0.00     0.181 C 
HETATM    2  C7  UNL     1      -0.004   4.184  23.881  1.00  0.00     0.062 C 
HETATM    3  C8  UNL     1      -0.928   3.567  22.892  1.00  0.00     0.116 C 
HETATM    4  N3  UNL     1      -0.166   2.341  23.045  1.00  0.00    -0.331 N 
HETATM    5  C13 UNL     1      -0.059   1.097  22.370  1.00  0.00     0.238 C 
HETATM    6  O2  UNL     1       0.732   0.180  22.780  1.00  0.00    -0.272 OA
ENDROOT
BRANCH   1   7
HETATM    7  C5  UNL     1       0.023   2.235  25.497  1.00  0.00     0.241 C 
HETATM    8  N1  UNL     1      -0.809   3.027  26.326  1.00  0.00    -0.351 N 
ATOM      9  H1  UNL     1      -1.037   3.977  26.032  1.00  0.00     0.163 HD
HETATM   10  O1  UNL     1       0.344   1.064  25.792  1.00  0.00    -0.271 OA
BRANCH   8  11
HETATM   11  C2  UNL     1      -1.349   2.532  27.581  1.00  0.00     0.022 C 
HETATM   12  C1  UNL     1      -2.277   3.577  28.148  1.00  0.00     0.037 C 
HETATM   13  C3  UNL     1      -2.088   1.230  27.418  1.00  0.00     0.037 C 
HETATM   14  C4  UNL     1      -0.178   2.352  28.534  1.00  0.00     0.037 C 
ENDBRANCH   8  11
ENDBRANCH   1   7
BRANCH   3  15
HETATM   15  C9  UNL     1      -0.972   4.033  21.511  1.00  0.00     0.261 C 
BRANCH  15  16
HETATM   16  N2  UNL     1      -2.166   4.687  21.062  1.00  0.00    -0.077 N 
HETATM   17  C10 UNL     1      -3.071   3.641  20.600  1.00  0.00     0.271 C 
HETATM   18  C11 UNL     1      -2.860   5.428  22.062  1.00  0.00     0.271 C 
HETATM   19  C12 UNL     1      -1.865   5.496  19.873  1.00  0.00     0.271 C 
ENDBRANCH  15  16
ENDBRANCH   3  15
BRANCH   5  20
HETATM   20  C14 UNL     1      -0.843   0.782  21.165  1.00  0.00     0.225 C 
BRANCH  20  21
HETATM   21  N4  UNL     1      -0.057  -0.003  20.200  1.00  0.00    -0.351 N 
HETATM   22  C15 UNL     1       0.284   0.548  18.973  1.00  0.00     0.235 C 
HETATM   23  O3  UNL     1      -0.110   1.745  18.727  1.00  0.00    -0.272 OA
ATOM     24  H4  UNL     1       0.237  -0.951  20.434  1.00  0.00     0.163 HD
BRANCH  22  25
HETATM   25  C16 UNL     1       1.052  -0.095  17.919  1.00  0.00     0.225 C 
BRANCH  25  26
HETATM   26  N5  UNL     1       0.221  -0.746  16.950  1.00  0.00    -0.352 N 
HETATM   27  C17 UNL     1       0.508  -2.129  16.629  1.00  0.00     0.225 C 
HETATM   28  O4  UNL     1       1.450  -2.705  17.189  1.00  0.00    -0.273 OA
ATOM     29  H5  UNL     1      -0.550  -0.251  16.501  1.00  0.00     0.162 HD
BRANCH  27  30
HETATM   30  C18 UNL     1      -0.343  -2.807  15.631  1.00  0.00     0.030 C 
HETATM   31  C19 UNL     1      -1.097  -1.744  14.851  1.00  0.00     0.024 C 
HETATM   32  C20 UNL     1      -1.337  -3.739  16.291  1.00  0.00     0.024 C 
HETATM   33  C21 UNL     1       0.540  -3.633  14.736  1.00  0.00     0.024 C 
ENDBRANCH  27  30
ENDBRANCH  25  26
ENDBRANCH  22  25
ENDBRANCH  20  21
ENDBRANCH   5  20
TORSDOF 9
ENDMDL
MODEL 3
REMARK VINA RESULT: -6.027120143      2.796      8.931
REMARK  9 active torsions:
REMARK  status: ('A' for Active; 'I' for Inactive)
REMARK    1  A    between atoms: C2_2  and  N1_5 
REMARK       I    between atoms: N1_5  and  C5_7 
REMARK    2  A    between atoms: C5_7  and  C6_9 
REMARK    3  A    between atoms: C8_11  and  C9_12 
REMARK    4  A    between atoms: C9_12  and  N2_13 
REMARK       I    between atoms: N3_17  and  C13_18 
REMARK    5  A    between atoms: C13_18  and  C14_20 
REMARK    6  A    between atoms: C14_20  and  N4_21 
REMARK       I    between atoms: N4_21  and  C15_23 
REMARK    7  A    between atoms: C15_23  and  C16_25 
REMARK    8  A    between atoms: C16_25  and  N5_26 
REMARK       I    between atoms: N5_26  and  C17_28 
REMARK    9  A    between atoms: C17_28  and  C18_30 
ROOT
HETATM    1  C6  UNL     1       0.429   2.889  23.904  1.00  0.00     0.181 C 
HETATM    2  C7  UNL     1      -0.216   4.243  23.708  1.00  0.00     0.062 C 
HETATM    3  C8  UNL     1      -1.210   3.635  22.783  1.00  0.00     0.116 C 
HETATM    4  N3  UNL     1      -0.371   2.450  22.768  1.00  0.00    -0.331 N 
HETATM    5  C13 UNL     1      -0.274   1.261  22.000  1.00  0.00     0.238 C 
HETATM    6  O2  UNL     1       0.605   0.368  22.258  1.00  0.00    -0.272 OA
ENDROOT
BRANCH   1   7
HETATM    7  C5  UNL     1       0.094   2.200  25.172  1.00  0.00     0.241 C 
HETATM    8  N1  UNL     1       1.148   1.727  25.992  1.00  0.00    -0.351 N 
ATOM      9  H1  UNL     1       2.112   1.873  25.690  1.00  0.00     0.163 HD
HETATM   10  O1  UNL     1      -1.108   2.059  25.478  1.00  0.00    -0.271 OA
BRANCH   8  11
HETATM   11  C2  UNL     1       0.903   1.041  27.250  1.00  0.00     0.022 C 
HETATM   12  C1  UNL     1       0.269   2.017  28.210  1.00  0.00     0.037 C 
HETATM   13  C3  UNL     1       0.014  -0.163  27.086  1.00  0.00     0.037 C 
HETATM   14  C4  UNL     1       2.256   0.622  27.803  1.00  0.00     0.037 C 
ENDBRANCH   8  11
ENDBRANCH   1   7
BRANCH   3  15
HETATM   15  C9  UNL     1      -1.431   4.185  21.451  1.00  0.00     0.261 C 
BRANCH  15  16
HETATM   16  N2  UNL     1      -2.745   4.661  21.132  1.00  0.00    -0.077 N 
HETATM   17  C10 UNL     1      -2.581   5.730  20.154  1.00  0.00     0.271 C 
HETATM   18  C11 UNL     1      -3.612   3.692  20.549  1.00  0.00     0.271 C 
HETATM   19  C12 UNL     1      -3.336   5.301  22.315  1.00  0.00     0.271 C 
ENDBRANCH  15  16
ENDBRANCH   3  15
BRANCH   5  20
HETATM   20  C14 UNL     1      -1.170   0.976  20.868  1.00  0.00     0.225 C 
BRANCH  20  21
HETATM   21  N4  UNL     1      -0.592  -0.031  19.963  1.00  0.00    -0.351 N 
HETATM   22  C15 UNL     1       0.048   0.368  18.798  1.00  0.00     0.235 C 
HETATM   23  O3  UNL     1       0.108   1.628  18.554  1.00  0.00    -0.272 OA
ATOM     24  H4  UNL     1      -0.661  -1.022  20.193  1.00  0.00     0.163 HD
BRANCH  22  25
HETATM   25  C16 UNL     1       0.666  -0.498  17.808  1.00  0.00     0.225 C 
BRANCH  25  26
HETATM   26  N5  UNL     1       1.858  -1.128  18.295  1.00  0.00    -0.352 N 
HETATM   27  C17 UNL     1       1.732  -2.433  18.911  1.00  0.00     0.225 C 
HETATM   28  O4  UNL     1       0.616  -2.964  19.000  1.00  0.00    -0.273 OA
ATOM     29  H5  UNL     1       2.766  -0.672  18.210  1.00  0.00     0.162 HD
BRANCH  27  30
HETATM   30  C18 UNL     1       2.954  -3.090  19.416  1.00  0.00     0.030 C 
HETATM   31  C19 UNL     1       4.053  -2.044  19.500  1.00  0.00     0.024 C 
HETATM   32  C20 UNL     1       3.403  -4.209  18.500  1.00  0.00     0.024 C 
HETATM   33  C21 UNL     1       2.651  -3.688  20.761  1.00  0.00     0.024 C 
ENDBRANCH  27  30
ENDBRANCH  25  26
ENDBRANCH  22  25
ENDBRANCH  20  21
ENDBRANCH   5  20
TORSDOF 9
ENDMDL
MODEL 4
REMARK VINA RESULT: -6.002950046      1.005      1.343
REMARK  9 active torsions:
REMARK  status: ('A' for Active; 'I' for Inactive)
REMARK    1  A    between atoms: C2_2  and  N1_5 
REMARK       I    between atoms: N1_5  and  C5_7 
REMARK    2  A    between atoms: C5_7  and  C6_9 
REMARK    3  A    between atoms: C8_11  and  C9_12 
REMARK    4  A    between atoms: C9_12  and  N2_13 
REMARK       I    between atoms: N3_17  and  C13_18 
REMARK    5  A    between atoms: C13_18  and  C14_20 
REMARK    6  A    between atoms: C14_20  and  N4_21 
REMARK       I    between atoms: N4_21  and  C15_23 
REMARK    7  A    between atoms: C15_23  and  C16_25 
REMARK    8  A    between atoms: C16_25  and  N5_26 
REMARK       I    between atoms: N5_26  and  C17_28 
REMARK    9  A    between atoms: C17_28  and  C18_30 
ROOT
HETATM    1  C6  UNL     1       2.226  -1.849  18.119  1.00  0.00     0.181 C 
HETATM    2  C7  UNL     1       2.759  -2.702  19.249  1.00  0.00     0.062 C 
HETATM    3  C8  UNL     1       1.858  -2.002  20.203  1.00  0.00     0.116 C 
HETATM    4  N3  UNL     1       1.621  -1.023  19.157  1.00  0.00    -0.331 N 
HETATM    5  C13 UNL     1       1.036   0.266  19.058  1.00  0.00     0.238 C 
HETATM    6  O2  UNL     1       0.969   0.887  17.942  1.00  0.00    -0.272 OA
ENDROOT
BRANCH   1   7
HETATM    7  C5  UNL     1       1.241  -2.509  17.231  1.00  0.00     0.241 C 
HETATM    8  N1  UNL     1       0.852  -1.856  16.036  1.00  0.00    -0.351 N 
ATOM      9  H1  UNL     1       1.261  -0.947  15.816  1.00  0.00     0.163 HD
HETATM   10  O1  UNL     1       0.783  -3.622  17.566  1.00  0.00    -0.271 OA
BRANCH   8  11
HETATM   11  C2  UNL     1      -0.109  -2.436  15.113  1.00  0.00     0.022 C 
HETATM   12  C1  UNL     1       0.406  -3.783  14.672  1.00  0.00     0.037 C 
HETATM   13  C3  UNL     1      -1.477  -2.589  15.725  1.00  0.00     0.037 C 
HETATM   14  C4  UNL     1      -0.176  -1.520  13.901  1.00  0.00     0.037 C 
ENDBRANCH   8  11
ENDBRANCH   1   7
BRANCH   3  15
HETATM   15  C9  UNL     1       2.378  -1.403  21.426  1.00  0.00     0.261 C 
BRANCH  15  16
HETATM   16  N2  UNL     1       1.829  -1.844  22.674  1.00  0.00    -0.077 N 
HETATM   17  C10 UNL     1       0.438  -2.202  22.420  1.00  0.00     0.271 C 
HETATM   18  C11 UNL     1       2.459  -2.992  23.238  1.00  0.00     0.271 C 
HETATM   19  C12 UNL     1       1.776  -0.716  23.614  1.00  0.00     0.271 C 
ENDBRANCH  15  16
ENDBRANCH   3  15
BRANCH   5  20
HETATM   20  C14 UNL     1       0.471   0.968  20.222  1.00  0.00     0.225 C 
BRANCH  20  21
HETATM   21  N4  UNL     1      -0.597   1.899  19.823  1.00  0.00    -0.351 N 
HETATM   22  C15 UNL     1      -0.787   3.079  20.527  1.00  0.00     0.235 C 
HETATM   23  O3  UNL     1      -0.004   3.314  21.518  1.00  0.00    -0.272 OA
ATOM     24  H4  UNL     1      -1.198   1.676  19.030  1.00  0.00     0.163 HD
BRANCH  22  25
HETATM   25  C16 UNL     1      -1.791   4.096  20.260  1.00  0.00     0.225 C 
BRANCH  25  26
HETATM   26  N5  UNL     1      -3.106   3.690  20.659  1.00  0.00    -0.352 N 
HETATM   27  C17 UNL     1      -3.618   4.190  21.918  1.00  0.00     0.225 C 
HETATM   28  O4  UNL     1      -2.919   4.945  22.607  1.00  0.00    -0.273 OA
ATOM     29  H5  UNL     1      -3.665   3.067  20.075  1.00  0.00     0.162 HD
BRANCH  27  30
HETATM   30  C18 UNL     1      -4.971   3.776  22.338  1.00  0.00     0.030 C 
HETATM   31  C19 UNL     1      -5.142   2.305  22.000  1.00  0.00     0.024 C 
HETATM   32  C20 UNL     1      -6.043   4.576  21.627  1.00  0.00     0.024 C 
HETATM   33  C21 UNL     1      -5.110   4.028  23.813  1.00  0.00     0.024 C 
ENDBRANCH  27  30
ENDBRANCH  25  26
ENDBRANCH  22  25
ENDBRANCH  20  21
ENDBRANCH   5  20
TORSDOF 9
ENDMDL
MODEL 5
REMARK VINA RESULT: -5.950027887      2.272      8.561
REMARK  9 active torsions:
REMARK  status: ('A' for Active; 'I' for Inactive)
REMARK    1  A    between atoms: C2_2  and  N1_5 
REMARK       I    between atoms: N1_5  and  C5_7 
REMARK    2  A    between atoms: C5_7  and  C6_9 
REMARK    3  A    between atoms: C8_11  and  C9_12 
REMARK    4  A    between atoms: C9_12  and  N2_13 
REMARK       I    between atoms: N3_17  and  C13_18 
REMARK    5  A    between atoms: C13_18  and  C14_20 
REMARK    6  A    between atoms: C14_20  and  N4_21 
REMARK       I    between atoms: N4_21  and  C15_23 
REMARK    7  A    between atoms: C15_23  and  C16_25 
REMARK    8  A    between atoms: C16_25  and  N5_26 
REMARK       I    between atoms: N5_26  and  C17_28 
REMARK    9  A    between atoms: C17_28  and  C18_30 
ROOT
HETATM    1  C6  UNL     1      -1.050   3.934  23.563  1.00  0.00     0.181 C 
HETATM    2  C7  UNL     1      -2.437   4.520  23.703  1.00  0.00     0.062 C 
HETATM    3  C8  UNL     1      -2.944   3.566  22.680  1.00  0.00     0.116 C 
HETATM    4  N3  UNL     1      -1.558   3.266  22.370  1.00  0.00    -0.331 N 
HETATM    5  C13 UNL     1      -0.849   2.592  21.342  1.00  0.00     0.238 C 
HETATM    6  O2  UNL     1       0.425   2.487  21.365  1.00  0.00    -0.272 OA
ENDROOT
BRANCH   1   7
HETATM    7  C5  UNL     1      -0.638   3.002  24.638  1.00  0.00     0.241 C 
HETATM    8  N1  UNL     1       0.236   1.934  24.320  1.00  0.00    -0.351 N 
ATOM      9  H1  UNL     1       0.561   1.832  23.358  1.00  0.00     0.163 HD
HETATM   10  O1  UNL     1      -1.076   3.189  25.793  1.00  0.00    -0.271 OA
BRANCH   8  11
HETATM   11  C2  UNL     1       0.686   0.977  25.317  1.00  0.00     0.022 C 
HETATM   12  C1  UNL     1       1.550   1.702  26.319  1.00  0.00     0.037 C 
HETATM   13  C3  UNL     1      -0.459   0.302  26.027  1.00  0.00     0.037 C 
HETATM   14  C4  UNL     1       1.538  -0.056  24.596  1.00  0.00     0.037 C 
ENDBRANCH   8  11
ENDBRANCH   1   7
BRANCH   3  15
HETATM   15  C9  UNL     1      -3.691   4.036  21.520  1.00  0.00     0.261 C 
BRANCH  15  16
HETATM   16  N2  UNL     1      -5.087   3.718  21.448  1.00  0.00    -0.077 N 
HETATM   17  C10 UNL     1      -5.259   2.426  22.105  1.00  0.00     0.271 C 
HETATM   18  C11 UNL     1      -5.950   4.639  22.108  1.00  0.00     0.271 C 
HETATM   19  C12 UNL     1      -5.469   3.497  20.047  1.00  0.00     0.271 C 
ENDBRANCH  15  16
ENDBRANCH   3  15
BRANCH   5  20
HETATM   20  C14 UNL     1      -1.527   1.973  20.191  1.00  0.00     0.225 C 
BRANCH  20  21
HETATM   21  N4  UNL     1      -0.933   0.669  19.854  1.00  0.00    -0.351 N 
HETATM   22  C15 UNL     1       0.006   0.577  18.836  1.00  0.00     0.235 C 
HETATM   23  O3  UNL     1       0.322   1.658  18.219  1.00  0.00    -0.272 OA
ATOM     24  H4  UNL     1      -1.211  -0.167  20.368  1.00  0.00     0.163 HD
BRANCH  22  25
HETATM   25  C16 UNL     1       0.680  -0.630  18.386  1.00  0.00     0.225 C 
BRANCH  25  26
HETATM   26  N5  UNL     1       0.411  -0.931  17.011  1.00  0.00    -0.352 N 
HETATM   27  C17 UNL     1      -0.052  -2.265  16.687  1.00  0.00     0.225 C 
HETATM   28  O4  UNL     1      -0.202  -3.098  17.591  1.00  0.00    -0.273 OA
ATOM     29  H5  UNL     1       0.540  -0.228  16.283  1.00  0.00     0.162 HD
BRANCH  27  30
HETATM   30  C18 UNL     1      -0.332  -2.584  15.273  1.00  0.00     0.030 C 
HETATM   31  C19 UNL     1      -0.006  -1.359  14.437  1.00  0.00     0.024 C 
HETATM   32  C20 UNL     1      -1.785  -2.956  15.064  1.00  0.00     0.024 C 
HETATM   33  C21 UNL     1       0.508  -3.767  14.878  1.00  0.00     0.024 C 
ENDBRANCH  27  30
ENDBRANCH  25  26
ENDBRANCH  22  25
ENDBRANCH  20  21
ENDBRANCH   5  20
TORSDOF 9
ENDMDL
