MODEL 1
REMARK VINA RESULT: -6.086639755      0.000      0.000
REMARK  7 active torsions:
REMARK  status: ('A' for Active; 'I' for Inactive)
REMARK    1  A    between atoms: C2_2  and  C3_3 
REMARK    2  A    between atoms: C5_5  and  N1_6 
REMARK    3  A    between atoms: C11_16  and  C12_17 
REMARK       I    between atoms: C12_17  and  N3_19 
REMARK    4  A    between atoms: N3_19  and  C13_21 
REMARK    5  A    between atoms: C13_21  and  C14_22 
REMARK    6  A    between atoms: C14_22  and  N4_23 
REMARK    7  A    between atoms: C19_28  and  C20_29 
REMARK       I    between atoms: C20_29  and  N5_31 
ROOT
HETATM    1  C3  UNL     1      -3.263   4.656  25.846  1.00  0.00     0.000 C 
HETATM    2  C4  UNL     1      -2.924   5.212  24.478  1.00  0.00     0.031 C 
HETATM    3  C5  UNL     1      -3.309   4.189  23.371  1.00  0.00     0.103 C 
HETATM    4  C11 UNL     1      -4.789   4.255  23.316  1.00  0.00     0.101 C 
HETATM    5  C18 UNL     1      -5.309   3.810  24.666  1.00  0.00     0.030 C 
HETATM    6  C19 UNL     1      -4.755   4.470  25.869  1.00  0.00     0.083 C 
ENDROOT
BRANCH   3   7
HETATM    7  N1  UNL     1      -2.590   4.542  22.182  1.00  0.00    -0.314 N 
HETATM    8  C6  UNL     1      -2.761   5.689  21.327  1.00  0.00     0.283 C 
HETATM    9  O1  UNL     1      -3.844   6.299  21.149  1.00  0.00    -0.265 OA
HETATM   10  C7  UNL     1      -1.437   5.982  20.727  1.00  0.00     0.167 C 
HETATM   11  S1  UNL     1      -1.058   7.170  19.687  1.00  0.00    -0.055 SA
HETATM   12  N2  UNL     1      -0.576   4.998  21.263  1.00  0.00    -0.350 N 
HETATM   13  C8  UNL     1      -1.466   3.858  21.569  1.00  0.00     0.102 C 
ATOM     14  H2  UNL     1       0.432   5.060  21.407  1.00  0.00     0.163 HD
HETATM   15  C9  UNL     1      -0.814   2.848  22.451  1.00  0.00     0.063 C 
HETATM   16  C10 UNL     1      -1.793   3.312  20.176  1.00  0.00     0.063 C 
ENDBRANCH   3   7
BRANCH   4  17
HETATM   17  C12 UNL     1      -5.449   3.337  22.358  1.00  0.00     0.223 C 
HETATM   18  O2  UNL     1      -5.518   2.113  22.531  1.00  0.00    -0.273 OA
HETATM   19  N3  UNL     1      -6.028   3.883  21.190  1.00  0.00    -0.359 N 
ATOM     20  H3  UNL     1      -5.960   4.893  21.061  1.00  0.00     0.162 HD
BRANCH  19  21
HETATM   21  C13 UNL     1      -6.699   3.133  20.177  1.00  0.00     0.150 C 
BRANCH  21  22
HETATM   22  C14 UNL     1      -8.126   3.487  19.960  1.00  0.00     0.255 C 
BRANCH  22  23
HETATM   23  N4  UNL     1      -8.754   2.870  18.821  1.00  0.00    -0.077 N 
HETATM   24  C15 UNL     1      -9.529   1.718  19.225  1.00  0.00     0.271 C 
HETATM   25  C16 UNL     1      -7.722   2.363  17.897  1.00  0.00     0.271 C 
HETATM   26  C17 UNL     1      -9.585   3.736  18.044  1.00  0.00     0.271 C 
ENDBRANCH  22  23
ENDBRANCH  21  22
ENDBRANCH  19  21
ENDBRANCH   4  17
BRANCH   1  27
HETATM   27  C2  UNL     1      -2.823   5.735  26.827  1.00  0.00     0.001 C 
HETATM   28  C1  UNL     1      -1.828   5.323  27.844  1.00  0.00     0.005 C 
ENDBRANCH   1  27
BRANCH   6  29
HETATM   29  C20 UNL     1      -5.051   3.517  27.003  1.00  0.00     0.221 C 
HETATM   30  O3  UNL     1      -6.019   3.768  27.738  1.00  0.00    -0.273 OA
HETATM   31  N5  UNL     1      -4.264   2.363  27.237  1.00  0.00    -0.365 N 
HETATM   32  C21 UNL     1      -4.581   1.476  28.329  1.00  0.00     0.149 C 
ATOM     33  H5  UNL     1      -3.470   2.158  26.630  1.00  0.00     0.161 HD
ENDBRANCH   6  29
TORSDOF 7
ENDMDL
MODEL 2
REMARK VINA RESULT: -6.079894418      4.564      7.821
REMARK  7 active torsions:
REMARK  status: ('A' for Active; 'I' for Inactive)
REMARK    1  A    between atoms: C2_2  and  C3_3 
REMARK    2  A    between atoms: C5_5  and  N1_6 
REMARK    3  A    between atoms: C11_16  and  C12_17 
REMARK       I    between atoms: C12_17  and  N3_19 
REMARK    4  A    between atoms: N3_19  and  C13_21 
REMARK    5  A    between atoms: C13_21  and  C14_22 
REMARK    6  A    between atoms: C14_22  and  N4_23 
REMARK    7  A    between atoms: C19_28  and  C20_29 
REMARK       I    between atoms: C20_29  and  N5_31 
ROOT
HETATM    1  C3  UNL     1      -0.916   4.105  24.541  1.00  0.00     0.000 C 
HETATM    2  C4  UNL     1      -1.135   3.544  25.932  1.00  0.00     0.031 C 
HETATM    3  C5  UNL     1      -2.197   4.389  26.692  1.00  0.00     0.103 C 
HETATM    4  C11 UNL     1      -3.482   4.011  26.056  1.00  0.00     0.101 C 
HETATM    5  C18 UNL     1      -3.403   4.425  24.603  1.00  0.00     0.030 C 
HETATM    6  C19 UNL     1      -2.231   3.976  23.822  1.00  0.00     0.083 C 
ENDROOT
BRANCH   3   7
HETATM    7  N1  UNL     1      -2.050   4.116  28.091  1.00  0.00    -0.314 N 
HETATM    8  C6  UNL     1      -2.106   2.851  28.779  1.00  0.00     0.283 C 
HETATM    9  O1  UNL     1      -2.776   1.857  28.405  1.00  0.00    -0.265 OA
HETATM   10  C7  UNL     1      -1.236   2.971  29.974  1.00  0.00     0.167 C 
HETATM   11  S1  UNL     1      -0.934   1.840  31.100  1.00  0.00    -0.055 SA
HETATM   12  N2  UNL     1      -0.726   4.287  29.915  1.00  0.00    -0.350 N 
HETATM   13  C8  UNL     1      -1.750   5.044  29.167  1.00  0.00     0.102 C 
ATOM     14  H2  UNL     1       0.151   4.636  30.303  1.00  0.00     0.163 HD
HETATM   15  C9  UNL     1      -1.251   6.371  28.703  1.00  0.00     0.063 C 
HETATM   16  C10 UNL     1      -2.888   5.158  30.186  1.00  0.00     0.063 C 
ENDBRANCH   3   7
BRANCH   4  17
HETATM   17  C12 UNL     1      -4.689   4.707  26.562  1.00  0.00     0.223 C 
HETATM   18  O2  UNL     1      -5.762   4.129  26.783  1.00  0.00    -0.273 OA
HETATM   19  N3  UNL     1      -4.614   6.097  26.805  1.00  0.00    -0.359 N 
ATOM     20  H3  UNL     1      -3.725   6.559  26.616  1.00  0.00     0.162 HD
BRANCH  19  21
HETATM   21  C13 UNL     1      -5.685   6.906  27.293  1.00  0.00     0.150 C 
BRANCH  21  22
HETATM   22  C14 UNL     1      -5.720   7.097  28.767  1.00  0.00     0.255 C 
BRANCH  22  23
HETATM   23  N4  UNL     1      -6.901   6.606  29.430  1.00  0.00    -0.077 N 
HETATM   24  C15 UNL     1      -6.641   5.330  30.061  1.00  0.00     0.271 C 
HETATM   25  C16 UNL     1      -7.964   6.360  28.437  1.00  0.00     0.271 C 
HETATM   26  C17 UNL     1      -7.465   7.494  30.398  1.00  0.00     0.271 C 
ENDBRANCH  22  23
ENDBRANCH  21  22
ENDBRANCH  19  21
ENDBRANCH   4  17
BRANCH   1  27
HETATM   27  C2  UNL     1       0.146   3.208  23.920  1.00  0.00     0.001 C 
HETATM   28  C1  UNL     1       0.892   2.337  24.859  1.00  0.00     0.005 C 
ENDBRANCH   1  27
BRANCH   6  29
HETATM   29  C20 UNL     1      -2.168   4.919  22.643  1.00  0.00     0.221 C 
HETATM   30  O3  UNL     1      -3.038   5.801  22.556  1.00  0.00    -0.273 OA
HETATM   31  N5  UNL     1      -1.155   4.823  21.658  1.00  0.00    -0.365 N 
HETATM   32  C21 UNL     1      -1.129   5.745  20.549  1.00  0.00     0.149 C 
ATOM     33  H5  UNL     1      -0.442   4.098  21.733  1.00  0.00     0.161 HD
ENDBRANCH   6  29
TORSDOF 7
ENDMDL
MODEL 3
REMARK VINA RESULT: -5.945048917      4.810      9.027
REMARK  7 active torsions:
REMARK  status: ('A' for Active; 'I' for Inactive)
REMARK    1  A    between atoms: C2_2  and  C3_3 
REMARK    2  A    between atoms: C5_5  and  N1_6 
REMARK    3  A    between atoms: C11_16  and  C12_17 
REMARK       I    between atoms: C12_17  and  N3_19 
REMARK    4  A    between atoms: N3_19  and  C13_21 
REMARK    5  A    between atoms: C13_21  and  C14_22 
REMARK    6  A    between atoms: C14_22  and  N4_23 
REMARK    7  A    between atoms: C19_28  and  C20_29 
REMARK       I    between atoms: C20_29  and  N5_31 
ROOT
HETATM    1  C3  UNL     1      -0.098  -0.471  18.966  1.00  0.00     0.000 C 
HETATM    2  C4  UNL     1      -0.411   0.944  19.409  1.00  0.00     0.031 C 
HETATM    3  C5  UNL     1      -0.926   0.949  20.877  1.00  0.00     0.103 C 
HETATM    4  C11 UNL     1       0.289   0.688  21.686  1.00  0.00     0.101 C 
HETATM    5  C18 UNL     1       0.802  -0.682  21.298  1.00  0.00     0.030 C 
HETATM    6  C19 UNL     1       1.010  -0.958  19.860  1.00  0.00     0.083 C 
ENDROOT
BRANCH   3   7
HETATM    7  N1  UNL     1      -1.609   2.189  21.096  1.00  0.00    -0.314 N 
HETATM    8  C6  UNL     1      -1.078   3.528  21.097  1.00  0.00     0.283 C 
HETATM    9  O1  UNL     1       0.098   3.836  21.415  1.00  0.00    -0.265 OA
HETATM   10  C7  UNL     1      -2.172   4.428  20.659  1.00  0.00     0.167 C 
HETATM   11  S1  UNL     1      -2.121   6.042  20.481  1.00  0.00    -0.055 SA
HETATM   12  N2  UNL     1      -3.270   3.569  20.428  1.00  0.00    -0.350 N 
HETATM   13  C8  UNL     1      -3.026   2.414  21.317  1.00  0.00     0.102 C 
ATOM     14  H2  UNL     1      -4.054   3.714  19.792  1.00  0.00     0.163 HD
HETATM   15  C9  UNL     1      -3.887   1.245  20.979  1.00  0.00     0.063 C 
HETATM   16  C10 UNL     1      -3.324   2.995  22.702  1.00  0.00     0.063 C 
ENDBRANCH   3   7
BRANCH   4  17
HETATM   17  C12 UNL     1       0.088   0.593  23.152  1.00  0.00     0.223 C 
HETATM   18  O2  UNL     1      -0.371  -0.412  23.710  1.00  0.00    -0.273 OA
HETATM   19  N3  UNL     1       0.438   1.703  23.953  1.00  0.00    -0.359 N 
ATOM     20  H3  UNL     1       0.813   2.525  23.479  1.00  0.00     0.162 HD
BRANCH  19  21
HETATM   21  C13 UNL     1       0.308   1.766  25.374  1.00  0.00     0.150 C 
BRANCH  21  22
HETATM   22  C14 UNL     1       1.572   1.604  26.139  1.00  0.00     0.255 C 
BRANCH  22  23
HETATM   23  N4  UNL     1       1.816   0.286  26.665  1.00  0.00    -0.077 N 
HETATM   24  C15 UNL     1       0.576  -0.345  27.058  1.00  0.00     0.271 C 
HETATM   25  C16 UNL     1       2.631   0.382  27.891  1.00  0.00     0.271 C 
HETATM   26  C17 UNL     1       2.526  -0.594  25.790  1.00  0.00     0.271 C 
ENDBRANCH  22  23
ENDBRANCH  21  22
ENDBRANCH  19  21
ENDBRANCH   4  17
BRANCH   1  27
HETATM   27  C2  UNL     1       0.372  -0.335  17.524  1.00  0.00     0.001 C 
HETATM   28  C1  UNL     1      -0.132  -1.358  16.578  1.00  0.00     0.005 C 
ENDBRANCH   1  27
BRANCH   6  29
HETATM   29  C20 UNL     1       1.015  -2.465  19.753  1.00  0.00     0.221 C 
HETATM   30  O3  UNL     1      -0.038  -3.071  20.008  1.00  0.00    -0.273 OA
HETATM   31  N5  UNL     1       2.173  -3.185  19.372  1.00  0.00    -0.365 N 
HETATM   32  C21 UNL     1       2.136  -4.624  19.279  1.00  0.00     0.149 C 
ATOM     33  H5  UNL     1       3.036  -2.685  19.163  1.00  0.00     0.161 HD
ENDBRANCH   6  29
TORSDOF 7
ENDMDL
MODEL 4
REMARK VINA RESULT: -5.932379390      4.147      8.085
REMARK  7 active torsions:
REMARK  status: ('A' for Active; 'I' for Inactive)
REMARK    1  A    between atoms: C2_2  and  C3_3 
REMARK    2  A    between atoms: C5_5  and  N1_6 
REMARK    3  A    between atoms: C11_16  and  C12_17 
REMARK       I    between atoms: C12_17  and  N3_19 
REMARK    4  A    between atoms: N3_19  and  C13_21 
REMARK    5  A    between atoms: C13_21  and  C14_22 
REMARK    6  A    between atoms: C14_22  and  N4_23 
REMARK    7  A    between atoms: C19_28  and  C20_29 
REMARK       I    between atoms: C20_29  and  N5_31 
ROOT
HETATM    1  C3  UNL     1      -3.647   3.945  20.496  1.00  0.00     0.000 C 
HETATM    2  C4  UNL     1      -3.495   2.562  21.097  1.00  0.00     0.031 C 
HETATM    3  C5  UNL     1      -2.026   2.332  21.553  1.00  0.00     0.103 C 
HETATM    4  C11 UNL     1      -1.893   3.161  22.776  1.00  0.00     0.101 C 
HETATM    5  C18 UNL     1      -2.111   4.601  22.368  1.00  0.00     0.030 C 
HETATM    6  C19 UNL     1      -3.332   4.921  21.597  1.00  0.00     0.083 C 
ENDROOT
BRANCH   3   7
HETATM    7  N1  UNL     1      -1.829   0.919  21.691  1.00  0.00    -0.314 N 
HETATM    8  C6  UNL     1      -2.449   0.003  22.615  1.00  0.00     0.283 C 
HETATM    9  O1  UNL     1      -2.862   0.307  23.762  1.00  0.00    -0.265 OA
HETATM   10  C7  UNL     1      -2.495  -1.319  21.946  1.00  0.00     0.167 C 
HETATM   11  S1  UNL     1      -3.093  -2.710  22.535  1.00  0.00    -0.055 SA
HETATM   12  N2  UNL     1      -1.905  -1.101  20.681  1.00  0.00    -0.350 N 
HETATM   13  C8  UNL     1      -0.992   0.041  20.894  1.00  0.00     0.102 C 
ATOM     14  H2  UNL     1      -2.071  -1.617  19.817  1.00  0.00     0.163 HD
HETATM   15  C9  UNL     1      -0.527   0.644  19.612  1.00  0.00     0.063 C 
HETATM   16  C10 UNL     1       0.144  -0.590  21.704  1.00  0.00     0.063 C 
ENDBRANCH   3   7
BRANCH   4  17
HETATM   17  C12 UNL     1      -0.556   3.168  23.416  1.00  0.00     0.223 C 
HETATM   18  O2  UNL     1       0.392   3.844  22.997  1.00  0.00    -0.273 OA
HETATM   19  N3  UNL     1      -0.353   2.366  24.562  1.00  0.00    -0.359 N 
ATOM     20  H3  UNL     1      -1.143   1.813  24.894  1.00  0.00     0.162 HD
BRANCH  19  21
HETATM   21  C13 UNL     1       0.871   2.268  25.291  1.00  0.00     0.150 C 
BRANCH  21  22
HETATM   22  C14 UNL     1       1.293   0.888  25.647  1.00  0.00     0.255 C 
BRANCH  22  23
HETATM   23  N4  UNL     1       1.304   0.586  27.055  1.00  0.00    -0.077 N 
HETATM   24  C15 UNL     1       2.656   0.373  27.523  1.00  0.00     0.271 C 
HETATM   25  C16 UNL     1       0.585  -0.679  27.299  1.00  0.00     0.271 C 
HETATM   26  C17 UNL     1       0.675   1.562  27.889  1.00  0.00     0.271 C 
ENDBRANCH  22  23
ENDBRANCH  21  22
ENDBRANCH  19  21
ENDBRANCH   4  17
BRANCH   1  27
HETATM   27  C2  UNL     1      -5.109   4.032  20.079  1.00  0.00     0.001 C 
HETATM   28  C1  UNL     1      -6.093   4.153  21.181  1.00  0.00     0.005 C 
ENDBRANCH   1  27
BRANCH   6  29
HETATM   29  C20 UNL     1      -3.030   6.240  20.925  1.00  0.00     0.221 C 
HETATM   30  O3  UNL     1      -3.881   7.141  21.000  1.00  0.00    -0.273 OA
HETATM   31  N5  UNL     1      -1.818   6.467  20.229  1.00  0.00    -0.365 N 
HETATM   32  C21 UNL     1      -1.566   7.742  19.604  1.00  0.00     0.149 C 
ATOM     33  H5  UNL     1      -1.120   5.726  20.170  1.00  0.00     0.161 HD
ENDBRANCH   6  29
TORSDOF 7
ENDMDL
MODEL 5
REMARK VINA RESULT: -5.877461124      3.251      5.587
REMARK  7 active torsions:
REMARK  status: ('A' for Active; 'I' for Inactive)
REMARK    1  A    between atoms: C2_2  and  C3_3 
REMARK    2  A    between atoms: C5_5  and  N1_6 
REMARK    3  A    between atoms: C11_16  and  C12_17 
REMARK       I    between atoms: C12_17  and  N3_19 
REMARK    4  A    between atoms: N3_19  and  C13_21 
REMARK    5  A    between atoms: C13_21  and  C14_22 
REMARK    6  A    between atoms: C14_22  and  N4_23 
REMARK    7  A    between atoms: C19_28  and  C20_29 
REMARK       I    between atoms: C20_29  and  N5_31 
ROOT
HETATM    1  C3  UNL     1      -2.417   4.474  21.753  1.00  0.00     0.000 C 
HETATM    2  C4  UNL     1      -2.861   3.050  22.018  1.00  0.00     0.031 C 
HETATM    3  C5  UNL     1      -4.412   2.977  22.106  1.00  0.00     0.103 C 
HETATM    4  C11 UNL     1      -4.862   3.130  20.701  1.00  0.00     0.101 C 
HETATM    5  C18 UNL     1      -4.413   4.497  20.232  1.00  0.00     0.030 C 
HETATM    6  C19 UNL     1      -2.989   4.853  20.414  1.00  0.00     0.083 C 
ENDROOT
BRANCH   3   7
HETATM    7  N1  UNL     1      -4.754   1.758  22.777  1.00  0.00    -0.314 N 
HETATM    8  C6  UNL     1      -4.585   0.398  22.329  1.00  0.00     0.283 C 
HETATM    9  O1  UNL     1      -4.597   0.030  21.128  1.00  0.00    -0.265 OA
HETATM   10  C7  UNL     1      -4.400  -0.436  23.540  1.00  0.00     0.167 C 
HETATM   11  S1  UNL     1      -4.166  -2.042  23.614  1.00  0.00    -0.055 SA
HETATM   12  N2  UNL     1      -4.470   0.476  24.617  1.00  0.00    -0.350 N 
HETATM   13  C8  UNL     1      -5.307   1.581  24.108  1.00  0.00     0.102 C 
ATOM     14  H2  UNL     1      -4.040   0.390  25.538  1.00  0.00     0.163 HD
HETATM   15  C9  UNL     1      -5.225   2.799  24.965  1.00  0.00     0.063 C 
HETATM   16  C10 UNL     1      -6.705   0.957  24.090  1.00  0.00     0.063 C 
ENDBRANCH   3   7
BRANCH   4  17
HETATM   17  C12 UNL     1      -6.328   3.141  20.483  1.00  0.00     0.223 C 
HETATM   18  O2  UNL     1      -7.033   4.143  20.663  1.00  0.00    -0.273 OA
HETATM   19  N3  UNL     1      -6.954   1.951  20.048  1.00  0.00    -0.359 N 
ATOM     20  H3  UNL     1      -6.361   1.133  19.907  1.00  0.00     0.162 HD
BRANCH  19  21
HETATM   21  C13 UNL     1      -8.351   1.802  19.792  1.00  0.00     0.150 C 
BRANCH  21  22
HETATM   22  C14 UNL     1      -8.778   2.085  18.396  1.00  0.00     0.255 C 
BRANCH  22  23
HETATM   23  N4  UNL     1      -9.980   2.865  18.260  1.00  0.00    -0.077 N 
HETATM   24  C15 UNL     1     -11.088   2.219  18.928  1.00  0.00     0.271 C 
HETATM   25  C16 UNL     1     -10.358   2.954  16.837  1.00  0.00     0.271 C 
HETATM   26  C17 UNL     1      -9.882   4.214  18.725  1.00  0.00     0.271 C 
ENDBRANCH  22  23
ENDBRANCH  21  22
ENDBRANCH  19  21
ENDBRANCH   4  17
BRANCH   1  27
HETATM   27  C2  UNL     1      -0.897   4.409  21.709  1.00  0.00     0.001 C 
HETATM   28  C1  UNL     1      -0.253   3.548  22.728  1.00  0.00     0.005 C 
ENDBRANCH   1  27
BRANCH   6  29
HETATM   29  C20 UNL     1      -2.957   6.362  20.346  1.00  0.00     0.221 C 
HETATM   30  O3  UNL     1      -3.724   6.995  21.088  1.00  0.00    -0.273 OA
HETATM   31  N5  UNL     1      -2.084   7.055  19.472  1.00  0.00    -0.365 N 
HETATM   32  C21 UNL     1      -2.082   8.497  19.439  1.00  0.00     0.149 C 
ATOM     33  H5  UNL     1      -1.453   6.532  18.864  1.00  0.00     0.161 HD
ENDBRANCH   6  29
TORSDOF 7
ENDMDL
