MODEL 1
REMARK VINA RESULT: -8.941215253      0.000      0.000
REMARK  19 active torsions:
REMARK  status: ('A' for Active; 'I' for Inactive)
REMARK    1  A    between atoms: O1_2  and  C2_3 
REMARK    2  A    between atoms: C6_7  and  O2_8 
REMARK    3  A    between atoms: O2_8  and  C7_9 
REMARK    4  A    between atoms: C7_9  and  C8_10 
REMARK    5  A    between atoms: C8_10  and  O3_11 
REMARK    6  A    between atoms: C8_10  and  C9_13 
REMARK    7  A    between atoms: C9_13  and  N1_14 
REMARK    8  A    between atoms: N1_14  and  C10_17 
REMARK    9  A    between atoms: C10_17  and  C11_18 
REMARK   10  A    between atoms: C11_18  and  N2_19 
REMARK   11  A    between atoms: N2_19  and  C13_21 
REMARK   12  A    between atoms: C13_21  and  C14_22 
REMARK   13  A    between atoms: C14_22  and  C15_23 
REMARK   14  A    between atoms: C15_23  and  C16_24 
REMARK   15  A    between atoms: C23_35  and  N5_36 
REMARK   16  A    between atoms: N5_36  and  C24_38 
REMARK   17  A    between atoms: C24_38  and  C25_39 
REMARK   18  A    between atoms: C25_39  and  N6_40 
REMARK   19  A    between atoms: C28_48  and  C29_49 
ROOT
HETATM    1  C13 UNL     1      24.034   7.699  20.453  1.00  0.00     0.272 C 
ENDROOT
BRANCH   1   2
HETATM    2  N2  UNL     1      23.210   8.886  20.301  1.00  0.00     0.085 N 
HETATM    3  C12 UNL     1      22.036   8.626  21.147  1.00  0.00     0.309 C 
BRANCH   2   4
HETATM    4  C11 UNL     1      23.848  10.113  20.676  1.00  0.00     0.299 C 
BRANCH   4   5
HETATM    5  C10 UNL     1      22.878  11.240  20.506  1.00  0.00     0.262 C 
BRANCH   5   6
HETATM    6  N1  UNL     1      23.347  12.529  20.951  1.00  0.00    -0.071 N 
ATOM      7  H12 UNL     1      22.600  13.222  20.902  1.00  0.00     0.277 HD
ATOM      8  H11 UNL     1      23.996  12.931  20.275  1.00  0.00     0.277 HD
BRANCH   6   9
HETATM    9  C9  UNL     1      23.928  12.505  22.256  1.00  0.00     0.266 C 
BRANCH   9  10
HETATM   10  C8  UNL     1      23.049  12.928  23.375  1.00  0.00     0.168 C 
BRANCH  10  11
HETATM   11  C7  UNL     1      21.844  12.037  23.633  1.00  0.00     0.209 C 
BRANCH  11  12
HETATM   12  O2  UNL     1      21.075  12.691  24.580  1.00  0.00    -0.347 OA
BRANCH  12  13
HETATM   13  C6  UNL     1      20.317  12.313  25.623  1.00  0.00     0.082 A 
HETATM   14  C4  UNL     1      19.153  11.588  25.336  1.00  0.00    -0.025 A 
HETATM   15  C3  UNL     1      18.316  11.145  26.309  1.00  0.00     0.046 A 
HETATM   16  C5  UNL     1      18.806  11.281  23.908  1.00  0.00     0.051 C 
HETATM   17  C2  UNL     1      18.603  11.407  27.610  1.00  0.00     0.069 A 
HETATM   18  C33 UNL     1      19.728  12.111  27.909  1.00  0.00     0.047 A 
HETATM   19  C28 UNL     1      20.602  12.576  26.940  1.00  0.00    -0.014 A 
BRANCH  17  20
HETATM   20  O1  UNL     1      17.772  10.973  28.661  1.00  0.00    -0.356 OA
HETATM   21  C1  UNL     1      17.408   9.626  28.744  1.00  0.00     0.210 C 
ENDBRANCH  17  20
BRANCH  19  22
HETATM   22  C29 UNL     1      21.813  13.325  27.366  1.00  0.00    -0.021 C 
HETATM   23  C30 UNL     1      23.040  12.448  27.057  1.00  0.00     0.019 C 
HETATM   24  C31 UNL     1      22.009  14.618  26.612  1.00  0.00     0.019 C 
HETATM   25  C32 UNL     1      21.873  13.515  28.875  1.00  0.00     0.019 C 
ENDBRANCH  19  22
ENDBRANCH  12  13
ENDBRANCH  11  12
ENDBRANCH  10  11
BRANCH  10  26
HETATM   26  O3  UNL     1      22.702  14.262  23.185  1.00  0.00    -0.392 OA
ATOM     27  H3  UNL     1      22.715  14.518  22.270  1.00  0.00     0.210 HD
ENDBRANCH  10  26
ENDBRANCH   9  10
ENDBRANCH   6   9
ENDBRANCH   5   6
ENDBRANCH   4   5
ENDBRANCH   2   4
ENDBRANCH   1   2
BRANCH   1  28
HETATM   28  C14 UNL     1      24.673   7.368  19.148  1.00  0.00     0.036 C 
BRANCH  28  29
HETATM   29  C15 UNL     1      23.723   7.588  18.005  1.00  0.00     0.060 C 
BRANCH  29  30
HETATM   30  C16 UNL     1      22.958   6.374  17.733  1.00  0.00     0.025 A 
HETATM   31  C17 UNL     1      23.379   5.385  16.891  1.00  0.00     0.114 A 
HETATM   32  N3  UNL     1      22.590   4.290  16.709  1.00  0.00    -0.348 N 
HETATM   33  C18 UNL     1      21.393   4.182  17.359  1.00  0.00     0.135 A 
ATOM     34  H3  UNL     1      22.894   3.545  16.082  1.00  0.00     0.167 HD
HETATM   35  N4  UNL     1      20.608   3.114  17.196  1.00  0.00    -0.344 N 
HETATM   36  C27 UNL     1      20.966   5.182  18.211  1.00  0.00     0.104 A 
HETATM   37  C19 UNL     1      19.410   2.962  17.828  1.00  0.00     0.015 A 
ATOM     38  H4  UNL     1      20.921   2.374  16.566  1.00  0.00     0.167 HD
HETATM   39  C20 UNL     1      18.561   1.750  17.620  1.00  0.00     0.069 C 
HETATM   40  C21 UNL     1      18.954   3.938  18.684  1.00  0.00    -0.011 A 
HETATM   41  C22 UNL     1      17.671   3.866  19.418  1.00  0.00     0.052 C 
HETATM   42  C23 UNL     1      19.755   5.069  18.875  1.00  0.00     0.067 A 
HETATM   43  N9  UNL     1      21.776   6.229  18.352  1.00  0.00    -0.354 N 
ATOM     44  H9  UNL     1      21.476   6.976  18.977  1.00  0.00     0.166 HD
BRANCH  42  45
HETATM   45  N5  UNL     1      19.329   5.975  19.672  1.00  0.00    -0.386 N 
ATOM     46  H5  UNL     1      19.413   5.764  20.667  1.00  0.00     0.159 HD
BRANCH  45  47
HETATM   47  C24 UNL     1      18.756   7.232  19.360  1.00  0.00     0.139 C 
BRANCH  47  48
HETATM   48  C25 UNL     1      18.375   8.040  20.618  1.00  0.00     0.141 C 
BRANCH  48  49
HETATM   49  N6  UNL     1      17.029   7.700  21.015  1.00  0.00    -0.365 N 
HETATM   50  C26 UNL     1      16.593   7.639  22.206  1.00  0.00     0.197 C 
HETATM   51  N7  UNL     1      17.427   7.912  23.303  1.00  0.00    -0.067 NA
HETATM   52  N8  UNL     1      15.241   7.275  22.403  1.00  0.00    -0.067 NA
ATOM     53  H6  UNL     1      16.367   7.489  20.269  1.00  0.00     0.161 HD
ENDBRANCH  48  49
ENDBRANCH  47  48
ENDBRANCH  45  47
ENDBRANCH  42  45
ENDBRANCH  29  30
ENDBRANCH  28  29
ENDBRANCH   1  28
TORSDOF 19
ENDMDL
MODEL 2
REMARK VINA RESULT: -8.920364798      3.343      9.544
REMARK  19 active torsions:
REMARK  status: ('A' for Active; 'I' for Inactive)
REMARK    1  A    between atoms: O1_2  and  C2_3 
REMARK    2  A    between atoms: C6_7  and  O2_8 
REMARK    3  A    between atoms: O2_8  and  C7_9 
REMARK    4  A    between atoms: C7_9  and  C8_10 
REMARK    5  A    between atoms: C8_10  and  O3_11 
REMARK    6  A    between atoms: C8_10  and  C9_13 
REMARK    7  A    between atoms: C9_13  and  N1_14 
REMARK    8  A    between atoms: N1_14  and  C10_17 
REMARK    9  A    between atoms: C10_17  and  C11_18 
REMARK   10  A    between atoms: C11_18  and  N2_19 
REMARK   11  A    between atoms: N2_19  and  C13_21 
REMARK   12  A    between atoms: C13_21  and  C14_22 
REMARK   13  A    between atoms: C14_22  and  C15_23 
REMARK   14  A    between atoms: C15_23  and  C16_24 
REMARK   15  A    between atoms: C23_35  and  N5_36 
REMARK   16  A    between atoms: N5_36  and  C24_38 
REMARK   17  A    between atoms: C24_38  and  C25_39 
REMARK   18  A    between atoms: C25_39  and  N6_40 
REMARK   19  A    between atoms: C28_48  and  C29_49 
ROOT
HETATM    1  C13 UNL     1      22.135   7.569  19.993  1.00  0.00     0.272 C 
ENDROOT
BRANCH   1   2
HETATM    2  N2  UNL     1      23.423   7.280  19.385  1.00  0.00     0.085 N 
HETATM    3  C12 UNL     1      24.194   6.630  20.454  1.00  0.00     0.309 C 
BRANCH   2   4
HETATM    4  C11 UNL     1      23.363   6.447  18.220  1.00  0.00     0.299 C 
BRANCH   4   5
HETATM    5  C10 UNL     1      22.078   5.680  18.234  1.00  0.00     0.262 C 
BRANCH   5   6
HETATM    6  N1  UNL     1      22.045   4.519  17.378  1.00  0.00    -0.071 N 
ATOM      7  H12 UNL     1      22.628   3.774  17.757  1.00  0.00     0.277 HD
ATOM      8  H11 UNL     1      22.545   4.699  16.506  1.00  0.00     0.277 HD
BRANCH   6   9
HETATM    9  C9  UNL     1      20.724   4.043  17.114  1.00  0.00     0.266 C 
BRANCH   9  10
HETATM   10  C8  UNL     1      19.612   4.963  17.461  1.00  0.00     0.168 C 
BRANCH  10  11
HETATM   11  C7  UNL     1      18.427   4.321  18.164  1.00  0.00     0.209 C 
BRANCH  11  12
HETATM   12  O2  UNL     1      17.444   5.293  18.234  1.00  0.00    -0.347 OA
BRANCH  12  13
HETATM   13  C6  UNL     1      16.615   5.747  19.189  1.00  0.00     0.082 A 
HETATM   14  C4  UNL     1      17.071   6.812  19.977  1.00  0.00    -0.025 A 
HETATM   15  C3  UNL     1      16.317   7.359  20.965  1.00  0.00     0.046 A 
HETATM   16  C5  UNL     1      18.439   7.380  19.732  1.00  0.00     0.051 C 
HETATM   17  C2  UNL     1      15.075   6.867  21.210  1.00  0.00     0.069 A 
HETATM   18  C33 UNL     1      14.615   5.832  20.456  1.00  0.00     0.047 A 
HETATM   19  C28 UNL     1      15.359   5.253  19.442  1.00  0.00    -0.014 A 
BRANCH  17  20
HETATM   20  O1  UNL     1      14.249   7.394  22.221  1.00  0.00    -0.356 OA
HETATM   21  C1  UNL     1      13.225   6.608  22.758  1.00  0.00     0.210 C 
ENDBRANCH  17  20
BRANCH  19  22
HETATM   22  C29 UNL     1      14.764   4.134  18.664  1.00  0.00    -0.021 C 
HETATM   23  C30 UNL     1      13.280   4.027  19.058  1.00  0.00     0.019 C 
HETATM   24  C31 UNL     1      14.796   4.364  17.172  1.00  0.00     0.019 C 
HETATM   25  C32 UNL     1      15.344   2.784  19.059  1.00  0.00     0.019 C 
ENDBRANCH  19  22
ENDBRANCH  12  13
ENDBRANCH  11  12
ENDBRANCH  10  11
BRANCH  10  26
HETATM   26  O3  UNL     1      19.244   5.664  16.317  1.00  0.00    -0.392 OA
ATOM     27  H3  UNL     1      18.539   6.281  16.476  1.00  0.00     0.210 HD
ENDBRANCH  10  26
ENDBRANCH   9  10
ENDBRANCH   6   9
ENDBRANCH   5   6
ENDBRANCH   4   5
ENDBRANCH   2   4
ENDBRANCH   1   2
BRANCH   1  28
HETATM   28  C14 UNL     1      22.341   8.034  21.394  1.00  0.00     0.036 C 
BRANCH  28  29
HETATM   29  C15 UNL     1      21.856   9.444  21.578  1.00  0.00     0.060 C 
BRANCH  29  30
HETATM   30  C16 UNL     1      20.808   9.498  22.595  1.00  0.00     0.025 A 
HETATM   31  C17 UNL     1      19.786   8.598  22.678  1.00  0.00     0.114 A 
HETATM   32  N3  UNL     1      18.860   8.736  23.667  1.00  0.00    -0.348 N 
HETATM   33  C18 UNL     1      18.953   9.761  24.565  1.00  0.00     0.135 A 
ATOM     34  H3  UNL     1      18.092   8.069  23.739  1.00  0.00     0.167 HD
HETATM   35  N4  UNL     1      18.058   9.910  25.545  1.00  0.00    -0.344 N 
HETATM   36  C27 UNL     1      19.988  10.673  24.482  1.00  0.00     0.104 A 
HETATM   37  C19 UNL     1      18.115  10.914  26.465  1.00  0.00     0.015 A 
ATOM     38  H4  UNL     1      17.292   9.238  25.608  1.00  0.00     0.167 HD
HETATM   39  C20 UNL     1      17.094  11.046  27.547  1.00  0.00     0.069 C 
HETATM   40  C21 UNL     1      19.132  11.840  26.412  1.00  0.00    -0.011 A 
HETATM   41  C22 UNL     1      19.283  12.964  27.364  1.00  0.00     0.052 C 
HETATM   42  C23 UNL     1      20.085  11.710  25.397  1.00  0.00     0.067 A 
HETATM   43  N9  UNL     1      20.863  10.490  23.496  1.00  0.00    -0.354 N 
ATOM     44  H9  UNL     1      21.633  11.155  23.420  1.00  0.00     0.166 HD
BRANCH  42  45
HETATM   45  N5  UNL     1      21.031  12.571  25.351  1.00  0.00    -0.386 N 
ATOM     46  H5  UNL     1      21.815  12.401  25.981  1.00  0.00     0.159 HD
BRANCH  45  47
HETATM   47  C24 UNL     1      21.135  13.730  24.542  1.00  0.00     0.139 C 
BRANCH  47  48
HETATM   48  C25 UNL     1      22.594  14.194  24.356  1.00  0.00     0.141 C 
BRANCH  48  49
HETATM   49  N6  UNL     1      23.106  13.675  23.110  1.00  0.00    -0.365 N 
HETATM   50  C26 UNL     1      23.637  12.535  22.936  1.00  0.00     0.197 C 
HETATM   51  N7  UNL     1      23.782  11.628  23.999  1.00  0.00    -0.067 NA
HETATM   52  N8  UNL     1      24.093  12.203  21.640  1.00  0.00    -0.067 NA
ATOM     53  H6  UNL     1      23.034  14.280  22.293  1.00  0.00     0.161 HD
ENDBRANCH  48  49
ENDBRANCH  47  48
ENDBRANCH  45  47
ENDBRANCH  42  45
ENDBRANCH  29  30
ENDBRANCH  28  29
ENDBRANCH   1  28
TORSDOF 19
ENDMDL
MODEL 3
REMARK VINA RESULT: -8.916602997      1.632      2.948
REMARK  19 active torsions:
REMARK  status: ('A' for Active; 'I' for Inactive)
REMARK    1  A    between atoms: O1_2  and  C2_3 
REMARK    2  A    between atoms: C6_7  and  O2_8 
REMARK    3  A    between atoms: O2_8  and  C7_9 
REMARK    4  A    between atoms: C7_9  and  C8_10 
REMARK    5  A    between atoms: C8_10  and  O3_11 
REMARK    6  A    between atoms: C8_10  and  C9_13 
REMARK    7  A    between atoms: C9_13  and  N1_14 
REMARK    8  A    between atoms: N1_14  and  C10_17 
REMARK    9  A    between atoms: C10_17  and  C11_18 
REMARK   10  A    between atoms: C11_18  and  N2_19 
REMARK   11  A    between atoms: N2_19  and  C13_21 
REMARK   12  A    between atoms: C13_21  and  C14_22 
REMARK   13  A    between atoms: C14_22  and  C15_23 
REMARK   14  A    between atoms: C15_23  and  C16_24 
REMARK   15  A    between atoms: C23_35  and  N5_36 
REMARK   16  A    between atoms: N5_36  and  C24_38 
REMARK   17  A    between atoms: C24_38  and  C25_39 
REMARK   18  A    between atoms: C25_39  and  N6_40 
REMARK   19  A    between atoms: C28_48  and  C29_49 
ROOT
HETATM    1  C13 UNL     1      24.631   8.611  19.697  1.00  0.00     0.272 C 
ENDROOT
BRANCH   1   2
HETATM    2  N2  UNL     1      23.389   8.924  20.384  1.00  0.00     0.085 N 
HETATM    3  C12 UNL     1      23.100   7.724  21.182  1.00  0.00     0.309 C 
BRANCH   2   4
HETATM    4  C11 UNL     1      23.439  10.090  21.215  1.00  0.00     0.299 C 
BRANCH   4   5
HETATM    5  C10 UNL     1      22.881  11.254  20.457  1.00  0.00     0.262 C 
BRANCH   5   6
HETATM    6  N1  UNL     1      23.285  12.553  20.936  1.00  0.00    -0.071 N 
ATOM      7  H12 UNL     1      22.478  13.167  21.038  1.00  0.00     0.277 HD
ATOM      8  H11 UNL     1      23.795  13.062  20.214  1.00  0.00     0.277 HD
BRANCH   6   9
HETATM    9  C9  UNL     1      24.040  12.504  22.148  1.00  0.00     0.266 C 
BRANCH   9  10
HETATM   10  C8  UNL     1      23.356  13.002  23.368  1.00  0.00     0.168 C 
BRANCH  10  11
HETATM   11  C7  UNL     1      22.307  12.072  23.956  1.00  0.00     0.209 C 
BRANCH  11  12
HETATM   12  O2  UNL     1      22.724  11.781  25.243  1.00  0.00    -0.347 OA
BRANCH  12  13
HETATM   13  C6  UNL     1      23.035  12.502  26.333  1.00  0.00     0.082 A 
HETATM   14  C4  UNL     1      24.390  12.577  26.684  1.00  0.00    -0.025 A 
HETATM   15  C3  UNL     1      24.823  13.283  27.759  1.00  0.00     0.046 A 
HETATM   16  C5  UNL     1      25.410  11.856  25.851  1.00  0.00     0.051 C 
HETATM   17  C2  UNL     1      23.925  13.946  28.532  1.00  0.00     0.069 A 
HETATM   18  C33 UNL     1      22.605  13.885  28.208  1.00  0.00     0.047 A 
HETATM   19  C28 UNL     1      22.131  13.173  27.118  1.00  0.00    -0.014 A 
BRANCH  17  20
HETATM   20  O1  UNL     1      24.317  14.695  29.658  1.00  0.00    -0.356 OA
HETATM   21  C1  UNL     1      23.449  15.654  30.187  1.00  0.00     0.210 C 
ENDBRANCH  17  20
BRANCH  19  22
HETATM   22  C29 UNL     1      20.671  13.178  26.839  1.00  0.00    -0.021 C 
HETATM   23  C30 UNL     1      19.947  13.597  28.131  1.00  0.00     0.019 C 
HETATM   24  C31 UNL     1      20.271  14.178  25.781  1.00  0.00     0.019 C 
HETATM   25  C32 UNL     1      20.133  11.783  26.556  1.00  0.00     0.019 C 
ENDBRANCH  19  22
ENDBRANCH  12  13
ENDBRANCH  11  12
ENDBRANCH  10  11
BRANCH  10  26
HETATM   26  O3  UNL     1      22.862  14.276  23.110  1.00  0.00    -0.392 OA
ATOM     27  H3  UNL     1      23.087  14.902  23.789  1.00  0.00     0.210 HD
ENDBRANCH  10  26
ENDBRANCH   9  10
ENDBRANCH   6   9
ENDBRANCH   5   6
ENDBRANCH   4   5
ENDBRANCH   2   4
ENDBRANCH   1   2
BRANCH   1  28
HETATM   28  C14 UNL     1      24.623   7.178  19.287  1.00  0.00     0.036 C 
BRANCH  28  29
HETATM   29  C15 UNL     1      24.360   7.034  17.814  1.00  0.00     0.060 C 
BRANCH  29  30
HETATM   30  C16 UNL     1      23.377   5.982  17.569  1.00  0.00     0.025 A 
HETATM   31  C17 UNL     1      23.562   4.963  16.680  1.00  0.00     0.114 A 
HETATM   32  N3  UNL     1      22.582   4.029  16.528  1.00  0.00    -0.348 N 
HETATM   33  C18 UNL     1      21.430   4.111  17.256  1.00  0.00     0.135 A 
ATOM     34  H3  UNL     1      22.710   3.264  15.866  1.00  0.00     0.167 HD
HETATM   35  N4  UNL     1      20.459   3.202  17.124  1.00  0.00    -0.344 N 
HETATM   36  C27 UNL     1      21.241   5.141  18.156  1.00  0.00     0.104 A 
HETATM   37  C19 UNL     1      19.296   3.240  17.833  1.00  0.00     0.015 A 
ATOM     38  H4  UNL     1      20.596   2.440  16.459  1.00  0.00     0.167 HD
HETATM   39  C20 UNL     1      18.235   2.204  17.658  1.00  0.00     0.069 C 
HETATM   40  C21 UNL     1      19.075   4.253  18.739  1.00  0.00    -0.011 A 
HETATM   41  C22 UNL     1      17.848   4.382  19.558  1.00  0.00     0.052 C 
HETATM   42  C23 UNL     1      20.073   5.220  18.899  1.00  0.00     0.067 A 
HETATM   43  N9  UNL     1      22.230   6.025  18.264  1.00  0.00    -0.354 N 
ATOM     44  H9  UNL     1      22.107   6.792  18.925  1.00  0.00     0.166 HD
BRANCH  42  45
HETATM   45  N5  UNL     1      19.865   6.159  19.743  1.00  0.00    -0.386 N 
ATOM     46  H5  UNL     1      20.097   5.942  20.713  1.00  0.00     0.159 HD
BRANCH  45  47
HETATM   47  C24 UNL     1      19.356   7.461  19.512  1.00  0.00     0.139 C 
BRANCH  47  48
HETATM   48  C25 UNL     1      19.611   8.416  20.697  1.00  0.00     0.141 C 
BRANCH  48  49
HETATM   49  N6  UNL     1      19.092   7.824  21.908  1.00  0.00    -0.365 N 
HETATM   50  C26 UNL     1      18.870   8.431  23.000  1.00  0.00     0.197 C 
HETATM   51  N7  UNL     1      19.121   9.805  23.136  1.00  0.00    -0.067 NA
HETATM   52  N8  UNL     1      18.370   7.680  24.089  1.00  0.00    -0.067 NA
ATOM     53  H6  UNL     1      18.886   6.826  21.883  1.00  0.00     0.161 HD
ENDBRANCH  48  49
ENDBRANCH  47  48
ENDBRANCH  45  47
ENDBRANCH  42  45
ENDBRANCH  29  30
ENDBRANCH  28  29
ENDBRANCH   1  28
TORSDOF 19
ENDMDL
MODEL 4
REMARK VINA RESULT: -8.740439240      1.326      4.295
REMARK  19 active torsions:
REMARK  status: ('A' for Active; 'I' for Inactive)
REMARK    1  A    between atoms: O1_2  and  C2_3 
REMARK    2  A    between atoms: C6_7  and  O2_8 
REMARK    3  A    between atoms: O2_8  and  C7_9 
REMARK    4  A    between atoms: C7_9  and  C8_10 
REMARK    5  A    between atoms: C8_10  and  O3_11 
REMARK    6  A    between atoms: C8_10  and  C9_13 
REMARK    7  A    between atoms: C9_13  and  N1_14 
REMARK    8  A    between atoms: N1_14  and  C10_17 
REMARK    9  A    between atoms: C10_17  and  C11_18 
REMARK   10  A    between atoms: C11_18  and  N2_19 
REMARK   11  A    between atoms: N2_19  and  C13_21 
REMARK   12  A    between atoms: C13_21  and  C14_22 
REMARK   13  A    between atoms: C14_22  and  C15_23 
REMARK   14  A    between atoms: C15_23  and  C16_24 
REMARK   15  A    between atoms: C23_35  and  N5_36 
REMARK   16  A    between atoms: N5_36  and  C24_38 
REMARK   17  A    between atoms: C24_38  and  C25_39 
REMARK   18  A    between atoms: C25_39  and  N6_40 
REMARK   19  A    between atoms: C28_48  and  C29_49 
ROOT
HETATM    1  C13 UNL     1      21.976   8.341  22.357  1.00  0.00     0.272 C 
ENDROOT
BRANCH   1   2
HETATM    2  N2  UNL     1      22.927   9.110  21.572  1.00  0.00     0.085 N 
HETATM    3  C12 UNL     1      23.499   8.135  20.633  1.00  0.00     0.309 C 
BRANCH   2   4
HETATM    4  C11 UNL     1      22.364  10.226  20.871  1.00  0.00     0.299 C 
BRANCH   4   5
HETATM    5  C10 UNL     1      23.461  11.177  20.506  1.00  0.00     0.262 C 
BRANCH   5   6
HETATM    6  N1  UNL     1      23.336  12.503  21.060  1.00  0.00    -0.071 N 
ATOM      7  H12 UNL     1      22.360  12.799  21.069  1.00  0.00     0.277 HD
ATOM      8  H11 UNL     1      23.718  13.199  20.419  1.00  0.00     0.277 HD
BRANCH   6   9
HETATM    9  C9  UNL     1      23.917  12.637  22.358  1.00  0.00     0.266 C 
BRANCH   9  10
HETATM   10  C8  UNL     1      22.998  13.038  23.451  1.00  0.00     0.168 C 
BRANCH  10  11
HETATM   11  C7  UNL     1      21.784  12.144  23.647  1.00  0.00     0.209 C 
BRANCH  11  12
HETATM   12  O2  UNL     1      21.002  12.758  24.610  1.00  0.00    -0.347 OA
BRANCH  12  13
HETATM   13  C6  UNL     1      20.284  12.341  25.667  1.00  0.00     0.082 A 
HETATM   14  C4  UNL     1      19.086  11.665  25.397  1.00  0.00    -0.025 A 
HETATM   15  C3  UNL     1      18.283  11.190  26.383  1.00  0.00     0.046 A 
HETATM   16  C5  UNL     1      18.662  11.451  23.973  1.00  0.00     0.051 C 
HETATM   17  C2  UNL     1      18.639  11.368  27.681  1.00  0.00     0.069 A 
HETATM   18  C33 UNL     1      19.798  12.022  27.963  1.00  0.00     0.047 A 
HETATM   19  C28 UNL     1      20.639  12.519  26.981  1.00  0.00    -0.014 A 
BRANCH  17  20
HETATM   20  O1  UNL     1      17.846  10.897  28.745  1.00  0.00    -0.356 OA
HETATM   21  C1  UNL     1      17.451   9.556  28.773  1.00  0.00     0.210 C 
ENDBRANCH  17  20
BRANCH  19  22
HETATM   22  C29 UNL     1      21.891  13.208  27.388  1.00  0.00    -0.021 C 
HETATM   23  C30 UNL     1      21.812  13.466  28.904  1.00  0.00     0.019 C 
HETATM   24  C31 UNL     1      23.129  12.376  27.159  1.00  0.00     0.019 C 
HETATM   25  C32 UNL     1      22.004  14.602  26.788  1.00  0.00     0.019 C 
ENDBRANCH  19  22
ENDBRANCH  12  13
ENDBRANCH  11  12
ENDBRANCH  10  11
BRANCH  10  26
HETATM   26  O3  UNL     1      22.658  14.376  23.276  1.00  0.00    -0.392 OA
ATOM     27  H3  UNL     1      23.324  14.970  23.601  1.00  0.00     0.210 HD
ENDBRANCH  10  26
ENDBRANCH   9  10
ENDBRANCH   6   9
ENDBRANCH   5   6
ENDBRANCH   4   5
ENDBRANCH   2   4
ENDBRANCH   1   2
BRANCH   1  28
HETATM   28  C14 UNL     1      20.616   8.475  21.760  1.00  0.00     0.036 C 
BRANCH  28  29
HETATM   29  C15 UNL     1      19.545   8.174  22.770  1.00  0.00     0.060 C 
BRANCH  29  30
HETATM   30  C16 UNL     1      18.322   7.733  22.104  1.00  0.00     0.025 A 
HETATM   31  C17 UNL     1      17.081   8.218  22.400  1.00  0.00     0.114 A 
HETATM   32  N3  UNL     1      16.003   7.741  21.717  1.00  0.00    -0.348 N 
HETATM   33  C18 UNL     1      16.162   6.789  20.751  1.00  0.00     0.135 A 
ATOM     34  H3  UNL     1      15.071   8.096  21.930  1.00  0.00     0.167 HD
HETATM   35  N4  UNL     1      15.117   6.312  20.067  1.00  0.00    -0.344 N 
HETATM   36  C27 UNL     1      17.417   6.297  20.450  1.00  0.00     0.104 A 
HETATM   37  C19 UNL     1      15.229   5.368  19.091  1.00  0.00     0.015 A 
ATOM     38  H4  UNL     1      14.189   6.674  20.288  1.00  0.00     0.167 HD
HETATM   39  C20 UNL     1      14.036   4.860  18.349  1.00  0.00     0.069 C 
HETATM   40  C21 UNL     1      16.465   4.856  18.767  1.00  0.00    -0.011 A 
HETATM   41  C22 UNL     1      16.692   3.831  17.722  1.00  0.00     0.052 C 
HETATM   42  C23 UNL     1      17.578   5.336  19.465  1.00  0.00     0.067 A 
HETATM   43  N9  UNL     1      18.434   6.798  21.147  1.00  0.00    -0.354 N 
ATOM     44  H9  UNL     1      19.368   6.446  20.939  1.00  0.00     0.166 HD
BRANCH  42  45
HETATM   45  N5  UNL     1      18.726   4.859  19.160  1.00  0.00    -0.386 N 
ATOM     46  H5  UNL     1      18.987   3.996  19.637  1.00  0.00     0.159 HD
BRANCH  45  47
HETATM   47  C24 UNL     1      19.683   5.368  18.249  1.00  0.00     0.139 C 
BRANCH  47  48
HETATM   48  C25 UNL     1      20.642   4.279  17.725  1.00  0.00     0.141 C 
BRANCH  48  49
HETATM   49  N6  UNL     1      21.616   4.882  16.847  1.00  0.00    -0.365 N 
HETATM   50  C26 UNL     1      22.783   5.261  17.172  1.00  0.00     0.197 C 
HETATM   51  N7  UNL     1      23.256   5.120  18.486  1.00  0.00    -0.067 NA
HETATM   52  N8  UNL     1      23.597   5.845  16.173  1.00  0.00    -0.067 NA
ATOM     53  H6  UNL     1      21.341   5.015  15.874  1.00  0.00     0.161 HD
ENDBRANCH  48  49
ENDBRANCH  47  48
ENDBRANCH  45  47
ENDBRANCH  42  45
ENDBRANCH  29  30
ENDBRANCH  28  29
ENDBRANCH   1  28
TORSDOF 19
ENDMDL
MODEL 5
REMARK VINA RESULT: -8.627305218      2.019      3.836
REMARK  19 active torsions:
REMARK  status: ('A' for Active; 'I' for Inactive)
REMARK    1  A    between atoms: O1_2  and  C2_3 
REMARK    2  A    between atoms: C6_7  and  O2_8 
REMARK    3  A    between atoms: O2_8  and  C7_9 
REMARK    4  A    between atoms: C7_9  and  C8_10 
REMARK    5  A    between atoms: C8_10  and  O3_11 
REMARK    6  A    between atoms: C8_10  and  C9_13 
REMARK    7  A    between atoms: C9_13  and  N1_14 
REMARK    8  A    between atoms: N1_14  and  C10_17 
REMARK    9  A    between atoms: C10_17  and  C11_18 
REMARK   10  A    between atoms: C11_18  and  N2_19 
REMARK   11  A    between atoms: N2_19  and  C13_21 
REMARK   12  A    between atoms: C13_21  and  C14_22 
REMARK   13  A    between atoms: C14_22  and  C15_23 
REMARK   14  A    between atoms: C15_23  and  C16_24 
REMARK   15  A    between atoms: C23_35  and  N5_36 
REMARK   16  A    between atoms: N5_36  and  C24_38 
REMARK   17  A    between atoms: C24_38  and  C25_39 
REMARK   18  A    between atoms: C25_39  and  N6_40 
REMARK   19  A    between atoms: C28_48  and  C29_49 
ROOT
HETATM    1  C13 UNL     1      23.291   5.786  18.959  1.00  0.00     0.272 C 
ENDROOT
BRANCH   1   2
HETATM    2  N2  UNL     1      24.537   6.535  18.969  1.00  0.00     0.085 N 
HETATM    3  C12 UNL     1      24.611   7.138  17.630  1.00  0.00     0.309 C 
BRANCH   2   4
HETATM    4  C11 UNL     1      24.626   7.539  19.987  1.00  0.00     0.299 C 
BRANCH   4   5
HETATM    5  C10 UNL     1      23.254   7.829  20.508  1.00  0.00     0.262 C 
BRANCH   5   6
HETATM    6  N1  UNL     1      22.739   9.139  20.190  1.00  0.00    -0.071 N 
ATOM      7  H12 UNL     1      21.801   9.260  20.571  1.00  0.00     0.277 HD
ATOM      8  H11 UNL     1      22.528   9.213  19.195  1.00  0.00     0.277 HD
BRANCH   6   9
HETATM    9  C9  UNL     1      23.595  10.205  20.606  1.00  0.00     0.266 C 
BRANCH   9  10
HETATM   10  C8  UNL     1      23.014  11.179  21.562  1.00  0.00     0.168 C 
BRANCH  10  11
HETATM   11  C7  UNL     1      22.572  10.603  22.898  1.00  0.00     0.209 C 
BRANCH  11  12
HETATM   12  O2  UNL     1      21.258  10.999  23.076  1.00  0.00    -0.347 OA
BRANCH  12  13
HETATM   13  C6  UNL     1      20.272  10.683  23.932  1.00  0.00     0.082 A 
HETATM   14  C4  UNL     1      19.534   9.524  23.654  1.00  0.00    -0.025 A 
HETATM   15  C3  UNL     1      18.520   9.102  24.453  1.00  0.00     0.046 A 
HETATM   16  C5  UNL     1      19.863   8.712  22.436  1.00  0.00     0.051 C 
HETATM   17  C2  UNL     1      18.199   9.815  25.562  1.00  0.00     0.069 A 
HETATM   18  C33 UNL     1      18.903  10.943  25.848  1.00  0.00     0.047 A 
HETATM   19  C28 UNL     1      19.942  11.401  25.054  1.00  0.00    -0.014 A 
BRANCH  17  20
HETATM   20  O1  UNL     1      17.158   9.424  26.427  1.00  0.00    -0.356 OA
HETATM   21  C1  UNL     1      16.814  10.240  27.509  1.00  0.00     0.210 C 
ENDBRANCH  17  20
BRANCH  19  22
HETATM   22  C29 UNL     1      20.661  12.638  25.456  1.00  0.00    -0.021 C 
HETATM   23  C30 UNL     1      19.903  13.256  26.646  1.00  0.00     0.019 C 
HETATM   24  C31 UNL     1      22.069  12.378  25.934  1.00  0.00     0.019 C 
HETATM   25  C32 UNL     1      20.597  13.717  24.385  1.00  0.00     0.019 C 
ENDBRANCH  19  22
ENDBRANCH  12  13
ENDBRANCH  11  12
ENDBRANCH  10  11
BRANCH  10  26
HETATM   26  O3  UNL     1      22.000  11.881  20.918  1.00  0.00    -0.392 OA
ATOM     27  H3  UNL     1      21.988  12.803  21.148  1.00  0.00     0.210 HD
ENDBRANCH  10  26
ENDBRANCH   9  10
ENDBRANCH   6   9
ENDBRANCH   5   6
ENDBRANCH   4   5
ENDBRANCH   2   4
ENDBRANCH   1   2
BRANCH   1  28
HETATM   28  C14 UNL     1      22.939   5.426  17.556  1.00  0.00     0.036 C 
BRANCH  28  29
HETATM   29  C15 UNL     1      21.597   4.754  17.486  1.00  0.00     0.060 C 
BRANCH  29  30
HETATM   30  C16 UNL     1      20.568   5.598  18.088  1.00  0.00     0.025 A 
HETATM   31  C17 UNL     1      20.335   6.891  17.716  1.00  0.00     0.114 A 
HETATM   32  N3  UNL     1      19.348   7.592  18.340  1.00  0.00    -0.348 N 
HETATM   33  C18 UNL     1      18.602   7.011  19.325  1.00  0.00     0.135 A 
ATOM     34  H3  UNL     1      19.165   8.559  18.069  1.00  0.00     0.167 HD
HETATM   35  N4  UNL     1      17.627   7.682  19.945  1.00  0.00    -0.344 N 
HETATM   36  C27 UNL     1      18.837   5.704  19.703  1.00  0.00     0.104 A 
HETATM   37  C19 UNL     1      16.855   7.140  20.929  1.00  0.00     0.015 A 
ATOM     38  H4  UNL     1      17.452   8.648  19.668  1.00  0.00     0.167 HD
HETATM   39  C20 UNL     1      15.772   7.924  21.598  1.00  0.00     0.069 C 
HETATM   40  C21 UNL     1      17.062   5.841  21.330  1.00  0.00    -0.011 A 
HETATM   41  C22 UNL     1      16.276   5.162  22.386  1.00  0.00     0.052 C 
HETATM   42  C23 UNL     1      18.076   5.113  20.699  1.00  0.00     0.067 A 
HETATM   43  N9  UNL     1      19.813   5.065  19.061  1.00  0.00    -0.354 N 
ATOM     44  H9  UNL     1      20.000   4.099  19.328  1.00  0.00     0.166 HD
BRANCH  42  45
HETATM   45  N5  UNL     1      18.265   3.903  21.073  1.00  0.00    -0.386 N 
ATOM     46  H5  UNL     1      18.561   3.782  22.043  1.00  0.00     0.159 HD
BRANCH  45  47
HETATM   47  C24 UNL     1      18.119   2.711  20.324  1.00  0.00     0.139 C 
BRANCH  47  48
HETATM   48  C25 UNL     1      16.659   2.453  19.897  1.00  0.00     0.141 C 
BRANCH  48  49
HETATM   49  N6  UNL     1      16.406   3.114  18.638  1.00  0.00    -0.365 N 
HETATM   50  C26 UNL     1      15.445   3.906  18.389  1.00  0.00     0.197 C 
HETATM   51  N7  UNL     1      14.492   4.227  19.368  1.00  0.00    -0.067 NA
HETATM   52  N8  UNL     1      15.352   4.451  17.088  1.00  0.00    -0.067 NA
ATOM     53  H6  UNL     1      17.060   2.928  17.878  1.00  0.00     0.161 HD
ENDBRANCH  48  49
ENDBRANCH  47  48
ENDBRANCH  45  47
ENDBRANCH  42  45
ENDBRANCH  29  30
ENDBRANCH  28  29
ENDBRANCH   1  28
TORSDOF 19
ENDMDL
