MODEL 1
REMARK VINA RESULT: -9.116177363      0.000      0.000
REMARK  14 active torsions:
REMARK  status: ('A' for Active; 'I' for Inactive)
REMARK    1  A    between atoms: C2_2  and  C4_4 
REMARK    2  A    between atoms: C4_4  and  C5_5 
REMARK    3  A    between atoms: C5_5  and  N1_6 
REMARK    4  A    between atoms: C5_5  and  C15_17 
REMARK       I    between atoms: N1_6  and  C6_7 
REMARK    5  A    between atoms: C6_7  and  C7_9 
REMARK    6  A    between atoms: C7_9  and  C8_10 
REMARK    7  A    between atoms: C8_10  and  C11_13 
REMARK       I    between atoms: C15_17  and  N2_19 
REMARK    8  A    between atoms: C19_23  and  C20_24 
REMARK       I    between atoms: C20_24  and  N3_26 
REMARK    9  A    between atoms: N3_26  and  C21_28 
REMARK   10  A    between atoms: C21_28  and  C22_29 
REMARK   11  A    between atoms: C21_28  and  C29_41 
REMARK       I    between atoms: C22_29  and  N4_31 
REMARK   12  A    between atoms: N4_31  and  C23_33 
REMARK   13  A    between atoms: C23_33  and  C24_34 
REMARK   14  A    between atoms: C23_33  and  C25_37 
ROOT
HETATM    1  C15 UNL     1     -11.152  15.255  28.031  1.00  0.00     0.256 C 
HETATM    2  O2  UNL     1     -11.378  16.403  28.406  1.00  0.00    -0.270 OA
HETATM    3  N2  UNL     1     -11.999  14.153  28.236  1.00  0.00    -0.336 N 
HETATM    4  C16 UNL     1     -11.673  12.754  28.015  1.00  0.00     0.127 C 
HETATM    5  C17 UNL     1     -12.834  12.250  27.160  1.00  0.00     0.022 C 
HETATM    6  C18 UNL     1     -13.893  13.293  27.324  1.00  0.00     0.037 C 
HETATM    7  C19 UNL     1     -13.427  14.210  28.495  1.00  0.00     0.179 C 
ENDROOT
BRANCH   7   8
HETATM    8  C20 UNL     1     -13.992  13.819  29.746  1.00  0.00     0.241 C 
HETATM    9  O3  UNL     1     -15.172  14.272  30.024  1.00  0.00    -0.271 OA
HETATM   10  N3  UNL     1     -13.373  12.981  30.654  1.00  0.00    -0.345 N 
ATOM     11  H3  UNL     1     -12.424  12.660  30.459  1.00  0.00     0.163 HD
BRANCH  10  12
HETATM   12  C21 UNL     1     -14.034  12.537  31.893  1.00  0.00     0.184 C 
BRANCH  12  13
HETATM   13  C22 UNL     1     -13.422  13.174  33.041  1.00  0.00     0.242 C 
HETATM   14  O4  UNL     1     -14.195  13.488  34.026  1.00  0.00    -0.271 OA
HETATM   15  N4  UNL     1     -12.073  13.511  33.254  1.00  0.00    -0.344 N 
ATOM     16  H4  UNL     1     -11.379  13.286  32.542  1.00  0.00     0.163 HD
BRANCH  15  17
HETATM   17  C23 UNL     1     -11.650  14.189  34.498  1.00  0.00     0.193 C 
BRANCH  17  18
HETATM   18  C24 UNL     1     -11.466  13.147  35.567  1.00  0.00     0.197 C 
HETATM   19  O5  UNL     1     -11.062  12.004  35.297  1.00  0.00    -0.646 OA
HETATM   20  O6  UNL     1     -11.762  13.473  36.875  1.00  0.00    -0.646 OA
ENDBRANCH  17  18
BRANCH  17  21
HETATM   21  C25 UNL     1     -10.382  14.940  34.274  1.00  0.00    -0.021 C 
HETATM   22  C26 UNL     1     -10.573  16.195  33.423  1.00  0.00     0.017 C 
HETATM   23  C27 UNL     1      -9.790  15.421  35.569  1.00  0.00     0.017 C 
HETATM   24  C28 UNL     1      -9.361  14.100  33.515  1.00  0.00     0.017 C 
ENDBRANCH  17  21
ENDBRANCH  15  17
ENDBRANCH  12  13
BRANCH  12  25
HETATM   25  C29 UNL     1     -14.008  11.022  31.951  1.00  0.00    -0.022 C 
HETATM   26  C30 UNL     1     -15.416  10.519  31.739  1.00  0.00     0.017 C 
HETATM   27  C31 UNL     1     -13.114  10.420  30.916  1.00  0.00     0.017 C 
HETATM   28  C32 UNL     1     -13.593  10.506  33.324  1.00  0.00     0.017 C 
ENDBRANCH  12  25
ENDBRANCH  10  12
ENDBRANCH   7   8
BRANCH   1  29
HETATM   29  C5  UNL     1      -9.809  15.098  27.238  1.00  0.00     0.258 C 
BRANCH  29  30
HETATM   30  C4  UNL     1      -8.792  15.038  28.321  1.00  0.00     0.053 C 
BRANCH  30  31
HETATM   31  C2  UNL     1      -8.218  16.314  28.806  1.00  0.00    -0.019 C 
HETATM   32  C1  UNL     1      -8.356  16.362  30.338  1.00  0.00     0.009 C 
HETATM   33  C3  UNL     1      -6.754  16.499  28.516  1.00  0.00     0.009 C 
ENDBRANCH  30  31
ENDBRANCH  29  30
BRANCH  29  34
HETATM   34  N1  UNL     1      -9.626  16.250  26.463  1.00  0.00    -0.400 NA
HETATM   35  C6  UNL     1      -9.450  17.364  25.712  1.00  0.00     0.288 C 
HETATM   36  O1  UNL     1     -10.147  18.418  25.795  1.00  0.00    -0.258 OA
BRANCH  35  37
HETATM   37  C7  UNL     1      -8.377  17.444  24.642  1.00  0.00     0.128 C 
BRANCH  37  38
HETATM   38  C8  UNL     1      -8.680  16.460  23.534  1.00  0.00    -0.032 C 
HETATM   39  C9  UNL     1      -7.926  15.135  23.724  1.00  0.00     0.016 C 
HETATM   40  C10 UNL     1     -10.118  16.165  23.329  1.00  0.00     0.016 C 
BRANCH  38  41
HETATM   41  C11 UNL     1      -8.086  17.005  22.224  1.00  0.00    -0.044 C 
HETATM   42  C12 UNL     1      -7.398  18.337  22.514  1.00  0.00     0.015 C 
HETATM   43  C13 UNL     1      -7.001  16.080  21.708  1.00  0.00     0.015 C 
HETATM   44  C14 UNL     1      -9.091  17.245  21.157  1.00  0.00     0.015 C 
ENDBRANCH  38  41
ENDBRANCH  37  38
ENDBRANCH  35  37
ENDBRANCH  29  34
ENDBRANCH   1  29
TORSDOF 14
ENDMDL
MODEL 2
REMARK VINA RESULT: -8.929436364      3.105      6.474
REMARK  14 active torsions:
REMARK  status: ('A' for Active; 'I' for Inactive)
REMARK    1  A    between atoms: C2_2  and  C4_4 
REMARK    2  A    between atoms: C4_4  and  C5_5 
REMARK    3  A    between atoms: C5_5  and  N1_6 
REMARK    4  A    between atoms: C5_5  and  C15_17 
REMARK       I    between atoms: N1_6  and  C6_7 
REMARK    5  A    between atoms: C6_7  and  C7_9 
REMARK    6  A    between atoms: C7_9  and  C8_10 
REMARK    7  A    between atoms: C8_10  and  C11_13 
REMARK       I    between atoms: C15_17  and  N2_19 
REMARK    8  A    between atoms: C19_23  and  C20_24 
REMARK       I    between atoms: C20_24  and  N3_26 
REMARK    9  A    between atoms: N3_26  and  C21_28 
REMARK   10  A    between atoms: C21_28  and  C22_29 
REMARK   11  A    between atoms: C21_28  and  C29_41 
REMARK       I    between atoms: C22_29  and  N4_31 
REMARK   12  A    between atoms: N4_31  and  C23_33 
REMARK   13  A    between atoms: C23_33  and  C24_34 
REMARK   14  A    between atoms: C23_33  and  C25_37 
ROOT
HETATM    1  C15 UNL     1      -7.664  16.487  24.981  1.00  0.00     0.256 C 
HETATM    2  O2  UNL     1      -7.438  15.383  24.489  1.00  0.00    -0.270 OA
HETATM    3  N2  UNL     1      -7.807  16.749  26.353  1.00  0.00    -0.336 N 
HETATM    4  C16 UNL     1      -8.294  17.979  26.956  1.00  0.00     0.127 C 
HETATM    5  C17 UNL     1      -7.227  18.311  27.997  1.00  0.00     0.022 C 
HETATM    6  C18 UNL     1      -6.462  17.037  28.162  1.00  0.00     0.037 C 
HETATM    7  C19 UNL     1      -7.291  15.933  27.438  1.00  0.00     0.179 C 
ENDROOT
BRANCH   7   8
HETATM    8  C20 UNL     1      -8.147  15.224  28.333  1.00  0.00     0.241 C 
HETATM    9  O3  UNL     1      -8.413  13.992  28.039  1.00  0.00    -0.271 OA
HETATM   10  N3  UNL     1      -8.682  15.760  29.489  1.00  0.00    -0.345 N 
ATOM     11  H3  UNL     1      -8.512  16.744  29.700  1.00  0.00     0.163 HD
BRANCH  10  12
HETATM   12  C21 UNL     1      -9.490  14.961  30.427  1.00  0.00     0.184 C 
BRANCH  12  13
HETATM   13  C22 UNL     1     -10.827  14.778  29.903  1.00  0.00     0.242 C 
HETATM   14  O4  UNL     1     -11.401  15.806  29.372  1.00  0.00    -0.271 OA
HETATM   15  N4  UNL     1     -11.620  13.617  29.880  1.00  0.00    -0.344 N 
ATOM     16  H4  UNL     1     -11.248  12.746  30.258  1.00  0.00     0.163 HD
BRANCH  15  17
HETATM   17  C23 UNL     1     -12.987  13.644  29.316  1.00  0.00     0.193 C 
BRANCH  17  18
HETATM   18  C24 UNL     1     -13.014  12.761  28.098  1.00  0.00     0.197 C 
HETATM   19  O5  UNL     1     -13.988  12.748  27.327  1.00  0.00    -0.646 OA
HETATM   20  O6  UNL     1     -11.931  11.945  27.841  1.00  0.00    -0.646 OA
ENDBRANCH  17  18
BRANCH  17  21
HETATM   21  C25 UNL     1     -13.975  13.172  30.328  1.00  0.00    -0.021 C 
HETATM   22  C26 UNL     1     -13.527  13.432  31.765  1.00  0.00     0.017 C 
HETATM   23  C27 UNL     1     -15.292  13.883  30.184  1.00  0.00     0.017 C 
HETATM   24  C28 UNL     1     -14.185  11.665  30.245  1.00  0.00     0.017 C 
ENDBRANCH  17  21
ENDBRANCH  15  17
ENDBRANCH  12  13
BRANCH  12  25
HETATM   25  C29 UNL     1      -9.454  15.617  31.793  1.00  0.00    -0.022 C 
HETATM   26  C30 UNL     1      -8.777  14.670  32.753  1.00  0.00     0.017 C 
HETATM   27  C31 UNL     1      -8.718  16.918  31.790  1.00  0.00     0.017 C 
HETATM   28  C32 UNL     1     -10.852  15.843  32.359  1.00  0.00     0.017 C 
ENDBRANCH  12  25
ENDBRANCH  10  12
ENDBRANCH   7   8
BRANCH   1  29
HETATM   29  C5  UNL     1      -7.751  17.646  23.928  1.00  0.00     0.258 C 
BRANCH  29  30
HETATM   30  C4  UNL     1      -8.050  16.921  22.664  1.00  0.00     0.053 C 
BRANCH  30  31
HETATM   31  C2  UNL     1      -9.436  16.977  22.144  1.00  0.00    -0.019 C 
HETATM   32  C1  UNL     1      -9.402  16.695  20.632  1.00  0.00     0.009 C 
HETATM   33  C3  UNL     1     -10.372  15.959  22.735  1.00  0.00     0.009 C 
ENDBRANCH  30  31
ENDBRANCH  29  30
BRANCH  29  34
HETATM   34  N1  UNL     1      -6.493  18.258  23.853  1.00  0.00    -0.400 NA
HETATM   35  C6  UNL     1      -5.277  18.850  23.780  1.00  0.00     0.288 C 
HETATM   36  O1  UNL     1      -5.019  20.035  24.145  1.00  0.00    -0.258 OA
BRANCH  35  37
HETATM   37  C7  UNL     1      -4.072  18.129  23.204  1.00  0.00     0.128 C 
BRANCH  37  38
HETATM   38  C8  UNL     1      -3.107  17.771  24.312  1.00  0.00    -0.032 C 
HETATM   39  C9  UNL     1      -2.454  19.019  24.926  1.00  0.00     0.016 C 
HETATM   40  C10 UNL     1      -3.679  16.947  25.403  1.00  0.00     0.016 C 
BRANCH  38  41
HETATM   41  C11 UNL     1      -1.911  17.029  23.694  1.00  0.00    -0.044 C 
HETATM   42  C12 UNL     1      -0.661  17.890  23.861  1.00  0.00     0.015 C 
HETATM   43  C13 UNL     1      -1.634  15.744  24.451  1.00  0.00     0.015 C 
HETATM   44  C14 UNL     1      -2.061  16.737  22.246  1.00  0.00     0.015 C 
ENDBRANCH  38  41
ENDBRANCH  37  38
ENDBRANCH  35  37
ENDBRANCH  29  34
ENDBRANCH   1  29
TORSDOF 14
ENDMDL
MODEL 3
REMARK VINA RESULT: -8.772082597      1.724      3.108
REMARK  14 active torsions:
REMARK  status: ('A' for Active; 'I' for Inactive)
REMARK    1  A    between atoms: C2_2  and  C4_4 
REMARK    2  A    between atoms: C4_4  and  C5_5 
REMARK    3  A    between atoms: C5_5  and  N1_6 
REMARK    4  A    between atoms: C5_5  and  C15_17 
REMARK       I    between atoms: N1_6  and  C6_7 
REMARK    5  A    between atoms: C6_7  and  C7_9 
REMARK    6  A    between atoms: C7_9  and  C8_10 
REMARK    7  A    between atoms: C8_10  and  C11_13 
REMARK       I    between atoms: C15_17  and  N2_19 
REMARK    8  A    between atoms: C19_23  and  C20_24 
REMARK       I    between atoms: C20_24  and  N3_26 
REMARK    9  A    between atoms: N3_26  and  C21_28 
REMARK   10  A    between atoms: C21_28  and  C22_29 
REMARK   11  A    between atoms: C21_28  and  C29_41 
REMARK       I    between atoms: C22_29  and  N4_31 
REMARK   12  A    between atoms: N4_31  and  C23_33 
REMARK   13  A    between atoms: C23_33  and  C24_34 
REMARK   14  A    between atoms: C23_33  and  C25_37 
ROOT
HETATM    1  C15 UNL     1      -8.246  15.117  28.515  1.00  0.00     0.256 C 
HETATM    2  O2  UNL     1      -8.171  13.893  28.437  1.00  0.00    -0.270 OA
HETATM    3  N2  UNL     1      -8.995  15.824  29.470  1.00  0.00    -0.336 N 
HETATM    4  C16 UNL     1      -9.294  17.247  29.460  1.00  0.00     0.127 C 
HETATM    5  C17 UNL     1      -8.896  17.702  30.863  1.00  0.00     0.022 C 
HETATM    6  C18 UNL     1      -8.800  16.434  31.649  1.00  0.00     0.037 C 
HETATM    7  C19 UNL     1      -9.429  15.319  30.761  1.00  0.00     0.179 C 
ENDROOT
BRANCH   7   8
HETATM    8  C20 UNL     1     -10.804  15.093  31.069  1.00  0.00     0.241 C 
HETATM    9  O3  UNL     1     -11.339  15.864  31.961  1.00  0.00    -0.271 OA
HETATM   10  N3  UNL     1     -11.591  14.131  30.467  1.00  0.00    -0.345 N 
ATOM     11  H3  UNL     1     -11.161  13.492  29.797  1.00  0.00     0.163 HD
BRANCH  10  12
HETATM   12  C21 UNL     1     -13.029  13.995  30.756  1.00  0.00     0.184 C 
BRANCH  12  13
HETATM   13  C22 UNL     1     -13.240  13.867  32.183  1.00  0.00     0.242 C 
HETATM   14  O4  UNL     1     -14.172  14.588  32.711  1.00  0.00    -0.271 OA
HETATM   15  N4  UNL     1     -12.567  13.051  33.110  1.00  0.00    -0.344 N 
ATOM     16  H4  UNL     1     -11.827  12.428  32.789  1.00  0.00     0.163 HD
BRANCH  15  17
HETATM   17  C23 UNL     1     -12.920  13.086  34.546  1.00  0.00     0.193 C 
BRANCH  17  18
HETATM   18  C24 UNL     1     -13.175  11.677  35.006  1.00  0.00     0.197 C 
HETATM   19  O5  UNL     1     -12.367  10.762  34.777  1.00  0.00    -0.646 OA
HETATM   20  O6  UNL     1     -14.341  11.400  35.691  1.00  0.00    -0.646 OA
ENDBRANCH  17  18
BRANCH  17  21
HETATM   21  C25 UNL     1     -11.816  13.704  35.336  1.00  0.00    -0.021 C 
HETATM   22  C26 UNL     1     -11.962  15.217  35.482  1.00  0.00     0.017 C 
HETATM   23  C27 UNL     1     -11.778  13.168  36.740  1.00  0.00     0.017 C 
HETATM   24  C28 UNL     1     -10.464  13.499  34.663  1.00  0.00     0.017 C 
ENDBRANCH  17  21
ENDBRANCH  15  17
ENDBRANCH  12  13
BRANCH  12  25
HETATM   25  C29 UNL     1     -13.589  12.839  29.951  1.00  0.00    -0.022 C 
HETATM   26  C30 UNL     1     -14.141  13.389  28.659  1.00  0.00     0.017 C 
HETATM   27  C31 UNL     1     -12.559  11.801  29.639  1.00  0.00     0.017 C 
HETATM   28  C32 UNL     1     -14.768  12.170  30.648  1.00  0.00     0.017 C 
ENDBRANCH  12  25
ENDBRANCH  10  12
ENDBRANCH   7   8
BRANCH   1  29
HETATM   29  C5  UNL     1      -7.381  15.877  27.450  1.00  0.00     0.258 C 
BRANCH  29  30
HETATM   30  C4  UNL     1      -6.657  16.884  28.271  1.00  0.00     0.053 C 
BRANCH  30  31
HETATM   31  C2  UNL     1      -5.681  17.763  27.587  1.00  0.00    -0.019 C 
HETATM   32  C1  UNL     1      -5.191  17.052  26.313  1.00  0.00     0.009 C 
HETATM   33  C3  UNL     1      -6.232  19.088  27.136  1.00  0.00     0.009 C 
ENDBRANCH  30  31
ENDBRANCH  29  30
BRANCH  29  34
HETATM   34  N1  UNL     1      -8.253  16.512  26.557  1.00  0.00    -0.400 NA
HETATM   35  C6  UNL     1      -9.097  17.126  25.693  1.00  0.00     0.288 C 
HETATM   36  O1  UNL     1     -10.333  17.317  25.891  1.00  0.00    -0.258 OA
BRANCH  35  37
HETATM   37  C7  UNL     1      -8.625  17.636  24.344  1.00  0.00     0.128 C 
BRANCH  37  38
HETATM   38  C8  UNL     1      -8.705  16.529  23.317  1.00  0.00    -0.032 C 
HETATM   39  C9  UNL     1      -7.845  15.319  23.713  1.00  0.00     0.016 C 
HETATM   40  C10 UNL     1     -10.075  16.058  23.005  1.00  0.00     0.016 C 
BRANCH  38  41
HETATM   41  C11 UNL     1      -8.034  17.016  22.023  1.00  0.00    -0.044 C 
HETATM   42  C12 UNL     1      -7.331  18.343  22.304  1.00  0.00     0.015 C 
HETATM   43  C13 UNL     1      -6.945  16.052  21.594  1.00  0.00     0.015 C 
HETATM   44  C14 UNL     1      -8.977  17.241  20.898  1.00  0.00     0.015 C 
ENDBRANCH  38  41
ENDBRANCH  37  38
ENDBRANCH  35  37
ENDBRANCH  29  34
ENDBRANCH   1  29
TORSDOF 14
ENDMDL
MODEL 4
REMARK VINA RESULT: -8.604539767      2.664      6.230
REMARK  14 active torsions:
REMARK  status: ('A' for Active; 'I' for Inactive)
REMARK    1  A    between atoms: C2_2  and  C4_4 
REMARK    2  A    between atoms: C4_4  and  C5_5 
REMARK    3  A    between atoms: C5_5  and  N1_6 
REMARK    4  A    between atoms: C5_5  and  C15_17 
REMARK       I    between atoms: N1_6  and  C6_7 
REMARK    5  A    between atoms: C6_7  and  C7_9 
REMARK    6  A    between atoms: C7_9  and  C8_10 
REMARK    7  A    between atoms: C8_10  and  C11_13 
REMARK       I    between atoms: C15_17  and  N2_19 
REMARK    8  A    between atoms: C19_23  and  C20_24 
REMARK       I    between atoms: C20_24  and  N3_26 
REMARK    9  A    between atoms: N3_26  and  C21_28 
REMARK   10  A    between atoms: C21_28  and  C22_29 
REMARK   11  A    between atoms: C21_28  and  C29_41 
REMARK       I    between atoms: C22_29  and  N4_31 
REMARK   12  A    between atoms: N4_31  and  C23_33 
REMARK   13  A    between atoms: C23_33  and  C24_34 
REMARK   14  A    between atoms: C23_33  and  C25_37 
ROOT
HETATM    1  C15 UNL     1      -7.706  16.271  24.895  1.00  0.00     0.256 C 
HETATM    2  O2  UNL     1      -7.465  15.137  24.484  1.00  0.00    -0.270 OA
HETATM    3  N2  UNL     1      -7.888  16.623  26.242  1.00  0.00    -0.336 N 
HETATM    4  C16 UNL     1      -8.394  17.889  26.748  1.00  0.00     0.127 C 
HETATM    5  C17 UNL     1      -7.357  18.293  27.793  1.00  0.00     0.022 C 
HETATM    6  C18 UNL     1      -6.595  17.035  28.064  1.00  0.00     0.037 C 
HETATM    7  C19 UNL     1      -7.401  15.883  27.393  1.00  0.00     0.179 C 
ENDROOT
BRANCH   7   8
HETATM    8  C20 UNL     1      -8.281  15.232  28.310  1.00  0.00     0.241 C 
HETATM    9  O3  UNL     1      -8.768  14.090  27.945  1.00  0.00    -0.271 OA
HETATM   10  N3  UNL     1      -8.621  15.732  29.552  1.00  0.00    -0.345 N 
ATOM     11  H3  UNL     1      -8.276  16.653  29.823  1.00  0.00     0.163 HD
BRANCH  10  12
HETATM   12  C21 UNL     1      -9.464  14.982  30.499  1.00  0.00     0.184 C 
BRANCH  12  13
HETATM   13  C22 UNL     1     -10.801  14.829  29.963  1.00  0.00     0.242 C 
HETATM   14  O4  UNL     1     -11.405  15.898  29.566  1.00  0.00    -0.271 OA
HETATM   15  N4  UNL     1     -11.564  13.659  29.803  1.00  0.00    -0.344 N 
ATOM     16  H4  UNL     1     -11.167  12.758  30.069  1.00  0.00     0.163 HD
BRANCH  15  17
HETATM   17  C23 UNL     1     -12.936  13.719  29.254  1.00  0.00     0.193 C 
BRANCH  17  18
HETATM   18  C24 UNL     1     -12.996  12.841  28.033  1.00  0.00     0.197 C 
HETATM   19  O5  UNL     1     -13.986  12.839  27.282  1.00  0.00    -0.646 OA
HETATM   20  O6  UNL     1     -11.926  12.016  27.751  1.00  0.00    -0.646 OA
ENDBRANCH  17  18
BRANCH  17  21
HETATM   21  C25 UNL     1     -13.923  13.266  30.275  1.00  0.00    -0.021 C 
HETATM   22  C26 UNL     1     -13.471  13.545  31.707  1.00  0.00     0.017 C 
HETATM   23  C27 UNL     1     -15.238  13.980  30.124  1.00  0.00     0.017 C 
HETATM   24  C28 UNL     1     -14.140  11.758  30.214  1.00  0.00     0.017 C 
ENDBRANCH  17  21
ENDBRANCH  15  17
ENDBRANCH  12  13
BRANCH  12  25
HETATM   25  C29 UNL     1      -9.423  15.668  31.850  1.00  0.00    -0.022 C 
HETATM   26  C30 UNL     1      -8.694  14.765  32.815  1.00  0.00     0.017 C 
HETATM   27  C31 UNL     1      -8.731  16.992  31.803  1.00  0.00     0.017 C 
HETATM   28  C32 UNL     1     -10.815  15.860  32.441  1.00  0.00     0.017 C 
ENDBRANCH  12  25
ENDBRANCH  10  12
ENDBRANCH   7   8
BRANCH   1  29
HETATM   29  C5  UNL     1      -7.766  17.356  23.765  1.00  0.00     0.258 C 
BRANCH  29  30
HETATM   30  C4  UNL     1      -8.288  16.593  22.601  1.00  0.00     0.053 C 
BRANCH  30  31
HETATM   31  C2  UNL     1      -9.684  16.845  22.176  1.00  0.00    -0.019 C 
HETATM   32  C1  UNL     1      -9.785  16.600  20.660  1.00  0.00     0.009 C 
HETATM   33  C3  UNL     1     -10.709  15.946  22.810  1.00  0.00     0.009 C 
ENDBRANCH  30  31
ENDBRANCH  29  30
BRANCH  29  34
HETATM   34  N1  UNL     1      -6.459  17.793  23.515  1.00  0.00    -0.400 NA
HETATM   35  C6  UNL     1      -5.194  18.215  23.273  1.00  0.00     0.288 C 
HETATM   36  O1  UNL     1      -4.660  19.247  23.777  1.00  0.00    -0.258 OA
BRANCH  35  37
HETATM   37  C7  UNL     1      -4.276  17.478  22.316  1.00  0.00     0.128 C 
BRANCH  37  38
HETATM   38  C8  UNL     1      -4.889  17.446  20.934  1.00  0.00    -0.032 C 
HETATM   39  C9  UNL     1      -5.521  16.080  20.621  1.00  0.00     0.016 C 
HETATM   40  C10 UNL     1      -5.889  18.505  20.664  1.00  0.00     0.016 C 
BRANCH  38  41
HETATM   41  C11 UNL     1      -3.758  17.543  19.898  1.00  0.00    -0.044 C 
HETATM   42  C12 UNL     1      -2.532  18.161  20.567  1.00  0.00     0.015 C 
HETATM   43  C13 UNL     1      -3.332  16.161  19.444  1.00  0.00     0.015 C 
HETATM   44  C14 UNL     1      -4.091  18.379  18.716  1.00  0.00     0.015 C 
ENDBRANCH  38  41
ENDBRANCH  37  38
ENDBRANCH  35  37
ENDBRANCH  29  34
ENDBRANCH   1  29
TORSDOF 14
ENDMDL
MODEL 5
REMARK VINA RESULT: -8.408341693      3.588     11.316
REMARK  14 active torsions:
REMARK  status: ('A' for Active; 'I' for Inactive)
REMARK    1  A    between atoms: C2_2  and  C4_4 
REMARK    2  A    between atoms: C4_4  and  C5_5 
REMARK    3  A    between atoms: C5_5  and  N1_6 
REMARK    4  A    between atoms: C5_5  and  C15_17 
REMARK       I    between atoms: N1_6  and  C6_7 
REMARK    5  A    between atoms: C6_7  and  C7_9 
REMARK    6  A    between atoms: C7_9  and  C8_10 
REMARK    7  A    between atoms: C8_10  and  C11_13 
REMARK       I    between atoms: C15_17  and  N2_19 
REMARK    8  A    between atoms: C19_23  and  C20_24 
REMARK       I    between atoms: C20_24  and  N3_26 
REMARK    9  A    between atoms: N3_26  and  C21_28 
REMARK   10  A    between atoms: C21_28  and  C22_29 
REMARK   11  A    between atoms: C21_28  and  C29_41 
REMARK       I    between atoms: C22_29  and  N4_31 
REMARK   12  A    between atoms: N4_31  and  C23_33 
REMARK   13  A    between atoms: C23_33  and  C24_34 
REMARK   14  A    between atoms: C23_33  and  C25_37 
ROOT
HETATM    1  C15 UNL     1      -8.952  14.688  27.326  1.00  0.00     0.256 C 
HETATM    2  O2  UNL     1      -7.881  14.115  27.518  1.00  0.00    -0.270 OA
HETATM    3  N2  UNL     1      -9.192  15.644  26.325  1.00  0.00    -0.336 N 
HETATM    4  C16 UNL     1     -10.358  16.503  26.207  1.00  0.00     0.127 C 
HETATM    5  C17 UNL     1     -10.801  16.302  24.759  1.00  0.00     0.022 C 
HETATM    6  C18 UNL     1      -9.617  15.676  24.094  1.00  0.00     0.037 C 
HETATM    7  C19 UNL     1      -8.432  15.805  25.098  1.00  0.00     0.179 C 
ENDROOT
BRANCH   7   8
HETATM    8  C20 UNL     1      -7.630  16.958  24.843  1.00  0.00     0.241 C 
HETATM    9  O3  UNL     1      -8.176  18.112  25.060  1.00  0.00    -0.271 OA
HETATM   10  N3  UNL     1      -6.321  16.916  24.405  1.00  0.00    -0.345 N 
ATOM     11  H3  UNL     1      -5.903  16.011  24.189  1.00  0.00     0.163 HD
BRANCH  10  12
HETATM   12  C21 UNL     1      -5.506  18.133  24.240  1.00  0.00     0.184 C 
BRANCH  12  13
HETATM   13  C22 UNL     1      -4.904  18.155  22.922  1.00  0.00     0.242 C 
HETATM   14  O4  UNL     1      -5.108  19.202  22.196  1.00  0.00    -0.271 OA
HETATM   15  N4  UNL     1      -4.106  17.181  22.296  1.00  0.00    -0.344 N 
ATOM     16  H4  UNL     1      -3.870  16.325  22.796  1.00  0.00     0.163 HD
BRANCH  15  17
HETATM   17  C23 UNL     1      -3.604  17.385  20.920  1.00  0.00     0.193 C 
BRANCH  17  18
HETATM   18  C24 UNL     1      -2.275  16.691  20.792  1.00  0.00     0.197 C 
HETATM   19  O5  UNL     1      -2.083  15.561  21.272  1.00  0.00    -0.646 OA
HETATM   20  O6  UNL     1      -1.248  17.333  20.131  1.00  0.00    -0.646 OA
ENDBRANCH  17  18
BRANCH  17  21
HETATM   21  C25 UNL     1      -4.576  16.843  19.928  1.00  0.00    -0.021 C 
HETATM   22  C26 UNL     1      -3.939  15.869  18.939  1.00  0.00     0.017 C 
HETATM   23  C27 UNL     1      -5.675  16.068  20.601  1.00  0.00     0.017 C 
HETATM   24  C28 UNL     1      -5.172  17.950  19.066  1.00  0.00     0.017 C 
ENDBRANCH  17  21
ENDBRANCH  15  17
ENDBRANCH  12  13
BRANCH  12  25
HETATM   25  C29 UNL     1      -4.500  18.212  25.371  1.00  0.00    -0.022 C 
HETATM   26  C30 UNL     1      -5.128  18.986  26.505  1.00  0.00     0.017 C 
HETATM   27  C31 UNL     1      -4.085  16.866  25.870  1.00  0.00     0.017 C 
HETATM   28  C32 UNL     1      -3.255  19.000  24.979  1.00  0.00     0.017 C 
ENDBRANCH  12  25
ENDBRANCH  10  12
ENDBRANCH   7   8
BRANCH   1  29
HETATM   29  C5  UNL     1     -10.099  14.234  28.295  1.00  0.00     0.258 C 
BRANCH  29  30
HETATM   30  C4  UNL     1     -11.240  14.005  27.370  1.00  0.00     0.053 C 
BRANCH  30  31
HETATM   31  C2  UNL     1     -12.453  13.351  27.914  1.00  0.00    -0.019 C 
HETATM   32  C1  UNL     1     -13.565  14.406  28.035  1.00  0.00     0.009 C 
HETATM   33  C3  UNL     1     -13.016  12.252  27.056  1.00  0.00     0.009 C 
ENDBRANCH  30  31
ENDBRANCH  29  30
BRANCH  29  34
HETATM   34  N1  UNL     1     -10.380  15.299  29.161  1.00  0.00    -0.400 NA
HETATM   35  C6  UNL     1     -10.651  16.328  29.999  1.00  0.00     0.288 C 
HETATM   36  O1  UNL     1     -10.618  17.554  29.684  1.00  0.00    -0.258 OA
BRANCH  35  37
HETATM   37  C7  UNL     1     -11.007  16.098  31.456  1.00  0.00     0.128 C 
BRANCH  37  38
HETATM   38  C8  UNL     1      -9.747  15.896  32.269  1.00  0.00    -0.032 C 
HETATM   39  C9  UNL     1      -9.026  14.593  31.890  1.00  0.00     0.016 C 
HETATM   40  C10 UNL     1      -8.775  17.013  32.211  1.00  0.00     0.016 C 
BRANCH  38  41
HETATM   41  C11 UNL     1     -10.147  15.651  33.733  1.00  0.00    -0.044 C 
HETATM   42  C12 UNL     1     -11.670  15.701  33.841  1.00  0.00     0.015 C 
HETATM   43  C13 UNL     1      -9.745  14.255  34.167  1.00  0.00     0.015 C 
HETATM   44  C14 UNL     1      -9.599  16.650  34.686  1.00  0.00     0.015 C 
ENDBRANCH  38  41
ENDBRANCH  37  38
ENDBRANCH  35  37
ENDBRANCH  29  34
ENDBRANCH   1  29
TORSDOF 14
ENDMDL
