MODEL 1
REMARK VINA RESULT: -5.476411127      0.000      0.000
REMARK  0 active torsions:
REMARK  status: ('A' for Active; 'I' for Inactive)
ROOT
HETATM    1  C1  UNL     1     115.902   7.345  49.085  1.00  0.00     0.262 C 
HETATM    2  C2  UNL     1     114.772   6.429  48.600  1.00  0.00     0.198 C 
HETATM    3  O1  UNL     1     113.997   7.232  47.765  1.00  0.00    -0.349 OA
HETATM    4  C3  UNL     1     114.404   8.523  47.906  1.00  0.00     0.276 C 
HETATM    5  C4  UNL     1     113.278   9.527  47.975  1.00  0.00     0.239 C 
HETATM    6  O2  UNL     1     113.809  10.670  48.535  1.00  0.00    -0.384 OA
HETATM    7  C5  UNL     1     114.810  11.256  47.809  1.00  0.00     0.202 C 
HETATM    8  C6  UNL     1     115.607  10.370  46.938  1.00  0.00     0.180 A 
HETATM    9  O3  UNL     1     114.876   9.847  45.839  1.00  0.00    -0.368 OA
HETATM   10  C7  UNL     1     115.336   9.004  46.824  1.00  0.00     0.218 A 
HETATM   11  N1  UNL     1     115.161   8.612  49.160  1.00  0.00    -0.036 N 
ATOM     12  H11 UNL     1     115.723   9.453  49.284  1.00  0.00     0.281 HD
ATOM     13  H12 UNL     1     114.610   8.760  50.006  1.00  0.00     0.281 HD
ENDROOT
TORSDOF 0
ENDMDL
MODEL 2
REMARK VINA RESULT: -5.451480747      1.442      2.245
REMARK  0 active torsions:
REMARK  status: ('A' for Active; 'I' for Inactive)
ROOT
HETATM    1  C1  UNL     1     114.578   6.833  48.661  1.00  0.00     0.262 C 
HETATM    2  C2  UNL     1     116.100   6.691  48.781  1.00  0.00     0.198 C 
HETATM    3  O1  UNL     1     116.600   7.953  48.467  1.00  0.00    -0.349 OA
HETATM    4  C3  UNL     1     115.586   8.708  47.961  1.00  0.00     0.276 C 
HETATM    5  C4  UNL     1     115.968   9.542  46.762  1.00  0.00     0.239 C 
HETATM    6  O2  UNL     1     114.789   9.884  46.134  1.00  0.00    -0.384 OA
HETATM    7  C5  UNL     1     113.937  10.648  46.885  1.00  0.00     0.202 C 
HETATM    8  C6  UNL     1     114.027  10.500  48.351  1.00  0.00     0.180 A 
HETATM    9  O3  UNL     1     115.238  10.999  48.899  1.00  0.00    -0.368 OA
HETATM   10  C7  UNL     1     114.960   9.653  48.954  1.00  0.00     0.218 A 
HETATM   11  N1  UNL     1     114.519   7.791  47.548  1.00  0.00    -0.036 N 
ATOM     12  H11 UNL     1     113.609   8.215  47.370  1.00  0.00     0.281 HD
ATOM     13  H12 UNL     1     114.605   7.396  46.611  1.00  0.00     0.281 HD
ENDROOT
TORSDOF 0
ENDMDL
MODEL 3
REMARK VINA RESULT: -5.426572565      1.702      2.712
REMARK  0 active torsions:
REMARK  status: ('A' for Active; 'I' for Inactive)
ROOT
HETATM    1  C1  UNL     1     111.885   8.432  48.249  1.00  0.00     0.262 C 
HETATM    2  C2  UNL     1     112.076   8.475  49.770  1.00  0.00     0.198 C 
HETATM    3  O1  UNL     1     113.296   9.122  49.957  1.00  0.00    -0.349 OA
HETATM    4  C3  UNL     1     113.917   9.232  48.751  1.00  0.00     0.276 C 
HETATM    5  C4  UNL     1     115.398   8.936  48.783  1.00  0.00     0.239 C 
HETATM    6  O2  UNL     1     115.770   8.669  47.482  1.00  0.00    -0.384 OA
HETATM    7  C5  UNL     1     115.599   9.710  46.609  1.00  0.00     0.202 C 
HETATM    8  C6  UNL     1     114.540  10.684  46.934  1.00  0.00     0.180 A 
HETATM    9  O3  UNL     1     114.820  11.466  48.086  1.00  0.00    -0.368 OA
HETATM   10  C7  UNL     1     113.768  10.580  48.094  1.00  0.00     0.218 A 
HETATM   11  N1  UNL     1     113.287   8.269  47.842  1.00  0.00    -0.036 N 
ATOM     12  H11 UNL     1     113.483   8.396  46.849  1.00  0.00     0.281 HD
ATOM     13  H12 UNL     1     113.655   7.317  47.872  1.00  0.00     0.281 HD
ENDROOT
TORSDOF 0
ENDMDL
MODEL 4
REMARK VINA RESULT: -5.287015361      1.845      2.407
REMARK  0 active torsions:
REMARK  status: ('A' for Active; 'I' for Inactive)
ROOT
HETATM    1  C1  UNL     1     112.038   8.181  50.069  1.00  0.00     0.262 C 
HETATM    2  C2  UNL     1     111.063   8.073  48.890  1.00  0.00     0.198 C 
HETATM    3  O1  UNL     1     111.761   8.598  47.804  1.00  0.00    -0.349 OA
HETATM    4  C3  UNL     1     112.895   9.195  48.264  1.00  0.00     0.276 C 
HETATM    5  C4  UNL     1     113.208  10.522  47.614  1.00  0.00     0.239 C 
HETATM    6  O2  UNL     1     114.087  11.170  48.456  1.00  0.00    -0.384 OA
HETATM    7  C5  UNL     1     115.285  10.533  48.640  1.00  0.00     0.202 C 
HETATM    8  C6  UNL     1     115.288   9.065  48.487  1.00  0.00     0.180 A 
HETATM    9  O3  UNL     1     115.062   8.632  47.154  1.00  0.00    -0.368 OA
HETATM   10  C7  UNL     1     114.138   8.354  48.135  1.00  0.00     0.218 A 
HETATM   11  N1  UNL     1     112.715   9.432  49.700  1.00  0.00    -0.036 N 
ATOM     12  H11 UNL     1     113.559   9.655  50.226  1.00  0.00     0.281 HD
ATOM     13  H12 UNL     1     112.234  10.294  49.956  1.00  0.00     0.281 HD
ENDROOT
TORSDOF 0
ENDMDL
MODEL 5
REMARK VINA RESULT: -5.213910065      1.397      3.363
REMARK  0 active torsions:
REMARK  status: ('A' for Active; 'I' for Inactive)
ROOT
HETATM    1  C1  UNL     1     113.726  10.452  49.280  1.00  0.00     0.262 C 
HETATM    2  C2  UNL     1     113.430  10.949  47.859  1.00  0.00     0.198 C 
HETATM    3  O1  UNL     1     113.996   9.990  47.022  1.00  0.00    -0.349 OA
HETATM    4  C3  UNL     1     114.766   9.157  47.775  1.00  0.00     0.276 C 
HETATM    5  C4  UNL     1     116.091   8.797  47.148  1.00  0.00     0.239 C 
HETATM    6  O2  UNL     1     116.894   8.337  48.170  1.00  0.00    -0.384 OA
HETATM    7  C5  UNL     1     116.439   7.208  48.796  1.00  0.00     0.202 C 
HETATM    8  C6  UNL     1     114.980   6.983  48.787  1.00  0.00     0.180 A 
HETATM    9  O3  UNL     1     114.459   6.691  47.499  1.00  0.00    -0.368 OA
HETATM   10  C7  UNL     1     114.101   7.855  48.140  1.00  0.00     0.218 A 
HETATM   11  N1  UNL     1     115.041   9.839  49.044  1.00  0.00    -0.036 N 
ATOM     12  H11 UNL     1     115.404   9.255  49.796  1.00  0.00     0.281 HD
ATOM     13  H12 UNL     1     115.839  10.475  49.047  1.00  0.00     0.281 HD
ENDROOT
TORSDOF 0
ENDMDL
