MODEL 1
REMARK VINA RESULT: -4.517189327      0.000      0.000
REMARK  0 active torsions:
REMARK  status: ('A' for Active; 'I' for Inactive)
ROOT
HETATM    1  N1  UNL     1     117.279   8.281  47.819  1.00  0.00    -0.195 NA
HETATM    2  C1  UNL     1     116.372   8.831  48.273  1.00  0.00     0.092 C 
HETATM    3  C2  UNL     1     115.248   9.540  48.851  1.00  0.00     0.298 C 
HETATM    4  S1  UNL     1     113.877   8.379  49.211  1.00  0.00    -0.112 SA
HETATM    5  C3  UNL     1     112.608   9.002  48.044  1.00  0.00     0.208 C 
HETATM    6  N2  UNL     1     112.786  10.451  48.133  1.00  0.00    -0.308 N 
ATOM      7  H2  UNL     1     112.118  11.172  48.402  1.00  0.00     0.173 HD
HETATM    8  S2  UNL     1     114.455  10.605  47.651  1.00  0.00     0.253 S 
HETATM    9  O1  UNL     1     114.565  10.048  46.275  1.00  0.00    -0.204 OA
HETATM   10  O2  UNL     1     114.897  12.010  47.778  1.00  0.00    -0.204 OA
ENDROOT
TORSDOF 0
ENDMDL
MODEL 2
REMARK VINA RESULT: -4.472158982      2.492      3.003
REMARK  0 active torsions:
REMARK  status: ('A' for Active; 'I' for Inactive)
ROOT
HETATM    1  N1  UNL     1     117.035  10.500  45.572  1.00  0.00    -0.195 NA
HETATM    2  C1  UNL     1     116.036  10.200  46.065  1.00  0.00     0.092 C 
HETATM    3  C2  UNL     1     114.777   9.808  46.665  1.00  0.00     0.298 C 
HETATM    4  S1  UNL     1     114.176  11.114  47.800  1.00  0.00    -0.112 SA
HETATM    5  C3  UNL     1     114.268  10.223  49.399  1.00  0.00     0.208 C 
HETATM    6  N2  UNL     1     113.815   8.881  49.036  1.00  0.00    -0.308 N 
ATOM      7  H2  UNL     1     113.028   8.340  49.395  1.00  0.00     0.173 HD
HETATM    8  S2  UNL     1     114.991   8.458  47.819  1.00  0.00     0.253 S 
HETATM    9  O1  UNL     1     116.328   8.507  48.470  1.00  0.00    -0.204 OA
HETATM   10  O2  UNL     1     114.655   7.151  47.214  1.00  0.00    -0.204 OA
ENDROOT
TORSDOF 0
ENDMDL
MODEL 3
REMARK VINA RESULT: -4.371243733      2.746      4.374
REMARK  0 active torsions:
REMARK  status: ('A' for Active; 'I' for Inactive)
ROOT
HETATM    1  N1  UNL     1     111.534   8.547  47.843  1.00  0.00    -0.195 NA
HETATM    2  C1  UNL     1     112.477   8.368  48.484  1.00  0.00     0.092 C 
HETATM    3  C2  UNL     1     113.646   8.133  49.306  1.00  0.00     0.298 C 
HETATM    4  S1  UNL     1     114.955   9.355  48.920  1.00  0.00    -0.112 SA
HETATM    5  C3  UNL     1     116.240   8.247  48.227  1.00  0.00     0.208 C 
HETATM    6  N2  UNL     1     116.144   7.074  49.095  1.00  0.00    -0.308 N 
ATOM      7  H2  UNL     1     116.856   6.642  49.685  1.00  0.00     0.173 HD
HETATM    8  S2  UNL     1     114.479   6.618  48.845  1.00  0.00     0.253 S 
HETATM    9  O1  UNL     1     114.320   6.331  47.394  1.00  0.00    -0.204 OA
HETATM   10  O2  UNL     1     114.118   5.492  49.733  1.00  0.00    -0.204 OA
ENDROOT
TORSDOF 0
ENDMDL
MODEL 4
REMARK VINA RESULT: -4.352925389      2.158      2.289
REMARK  0 active torsions:
REMARK  status: ('A' for Active; 'I' for Inactive)
ROOT
HETATM    1  N1  UNL     1     114.291   6.446  47.569  1.00  0.00    -0.195 NA
HETATM    2  C1  UNL     1     114.734   7.453  47.918  1.00  0.00     0.092 C 
HETATM    3  C2  UNL     1     115.311   8.707  48.356  1.00  0.00     0.298 C 
HETATM    4  S1  UNL     1     114.073   9.695  49.275  1.00  0.00    -0.112 SA
HETATM    5  C3  UNL     1     113.891  11.125  48.144  1.00  0.00     0.208 C 
HETATM    6  N2  UNL     1     115.266  11.347  47.697  1.00  0.00    -0.308 N 
ATOM      7  H2  UNL     1     115.851  12.178  47.784  1.00  0.00     0.173 HD
HETATM    8  S2  UNL     1     115.629   9.801  46.976  1.00  0.00     0.253 S 
HETATM    9  O1  UNL     1     114.646   9.591  45.879  1.00  0.00    -0.204 OA
HETATM   10  O2  UNL     1     117.043   9.757  46.546  1.00  0.00    -0.204 OA
ENDROOT
TORSDOF 0
ENDMDL
MODEL 5
REMARK VINA RESULT: -4.343707407      2.294      3.527
REMARK  0 active torsions:
REMARK  status: ('A' for Active; 'I' for Inactive)
ROOT
HETATM    1  N1  UNL     1     112.617   9.075  50.056  1.00  0.00    -0.195 NA
HETATM    2  C1  UNL     1     113.639   9.355  49.599  1.00  0.00     0.092 C 
HETATM    3  C2  UNL     1     114.933   9.698  49.045  1.00  0.00     0.298 C 
HETATM    4  S1  UNL     1     114.757  11.003  47.772  1.00  0.00    -0.112 SA
HETATM    5  C3  UNL     1     115.287  10.078  46.282  1.00  0.00     0.208 C 
HETATM    6  N2  UNL     1     116.397   9.273  46.790  1.00  0.00    -0.308 N 
ATOM      7  H2  UNL     1     117.372   9.248  46.492  1.00  0.00     0.173 HD
HETATM    8  S2  UNL     1     115.594   8.368  48.047  1.00  0.00     0.253 S 
HETATM    9  O1  UNL     1     114.507   7.587  47.395  1.00  0.00    -0.204 OA
HETATM   10  O2  UNL     1     116.573   7.547  48.792  1.00  0.00    -0.204 OA
ENDROOT
TORSDOF 0
ENDMDL
