MODEL 1
REMARK VINA RESULT: -4.382812882      0.000      0.000
REMARK  0 active torsions:
REMARK  status: ('A' for Active; 'I' for Inactive)
ROOT
HETATM    1  O1  UNL     1     116.162   7.815  48.567  1.00  0.00    -0.205 OA
HETATM    2  S1  UNL     1     114.802   7.876  47.997  1.00  0.00     0.235 S 
HETATM    3  O2  UNL     1     114.318   6.561  47.452  1.00  0.00    -0.205 OA
HETATM    4  C1  UNL     1     113.578   8.417  49.175  1.00  0.00     0.165 C 
HETATM    5  C2  UNL     1     114.008   9.747  49.766  1.00  0.00     0.029 C 
HETATM    6  C3  UNL     1     113.713  10.792  48.682  1.00  0.00     0.099 C 
HETATM    7  S2  UNL     1     115.043  10.623  47.450  1.00  0.00    -0.045 SA
HETATM    8  N1  UNL     1     114.815   9.029  46.690  1.00  0.00    -0.258 N 
ATOM      9  H1  UNL     1     114.713   8.831  45.694  1.00  0.00     0.186 HD
ENDROOT
TORSDOF 0
ENDMDL
MODEL 2
REMARK VINA RESULT: -4.319061421      2.099      2.482
REMARK  0 active torsions:
REMARK  status: ('A' for Active; 'I' for Inactive)
ROOT
HETATM    1  O1  UNL     1     114.480   6.869  47.359  1.00  0.00    -0.205 OA
HETATM    2  S1  UNL     1     115.205   7.728  48.315  1.00  0.00     0.235 S 
HETATM    3  O2  UNL     1     116.040   6.961  49.302  1.00  0.00    -0.205 OA
HETATM    4  C1  UNL     1     116.300   8.886  47.516  1.00  0.00     0.165 C 
HETATM    5  C2  UNL     1     115.515   9.698  46.503  1.00  0.00     0.029 C 
HETATM    6  C3  UNL     1     114.715  10.717  47.324  1.00  0.00     0.099 C 
HETATM    7  S2  UNL     1     113.319   9.796  48.043  1.00  0.00    -0.045 SA
HETATM    8  N1  UNL     1     114.028   8.652  49.210  1.00  0.00    -0.258 N 
ATOM      9  H1  UNL     1     113.794   8.558  50.198  1.00  0.00     0.186 HD
ENDROOT
TORSDOF 0
ENDMDL
MODEL 3
REMARK VINA RESULT: -4.244720741      3.039      3.568
REMARK  0 active torsions:
REMARK  status: ('A' for Active; 'I' for Inactive)
ROOT
HETATM    1  O1  UNL     1     113.863  11.280  49.256  1.00  0.00    -0.205 OA
HETATM    2  S1  UNL     1     113.582  10.746  47.909  1.00  0.00     0.235 S 
HETATM    3  O2  UNL     1     112.931  11.742  46.990  1.00  0.00    -0.205 OA
HETATM    4  C1  UNL     1     115.045  10.165  47.073  1.00  0.00     0.165 C 
HETATM    5  C2  UNL     1     115.752   9.150  47.951  1.00  0.00     0.029 C 
HETATM    6  C3  UNL     1     114.931   7.860  47.831  1.00  0.00     0.099 C 
HETATM    7  S2  UNL     1     113.457   8.107  48.870  1.00  0.00    -0.045 SA
HETATM    8  N1  UNL     1     112.503   9.388  48.081  1.00  0.00    -0.258 N 
ATOM      9  H1  UNL     1     111.527   9.336  47.790  1.00  0.00     0.186 HD
ENDROOT
TORSDOF 0
ENDMDL
MODEL 4
REMARK VINA RESULT: -4.188718791      2.249      2.510
REMARK  0 active torsions:
REMARK  status: ('A' for Active; 'I' for Inactive)
ROOT
HETATM    1  O1  UNL     1     114.147   6.372  47.305  1.00  0.00    -0.205 OA
HETATM    2  S1  UNL     1     114.468   6.707  48.707  1.00  0.00     0.235 S 
HETATM    3  O2  UNL     1     114.446   5.521  49.630  1.00  0.00    -0.205 OA
HETATM    4  C1  UNL     1     116.073   7.462  48.889  1.00  0.00     0.165 C 
HETATM    5  C2  UNL     1     116.161   8.673  47.980  1.00  0.00     0.029 C 
HETATM    6  C3  UNL     1     115.346   9.771  48.676  1.00  0.00     0.099 C 
HETATM    7  S2  UNL     1     113.598   9.360  48.379  1.00  0.00    -0.045 SA
HETATM    8  N1  UNL     1     113.283   7.853  49.273  1.00  0.00    -0.258 N 
ATOM      9  H1  UNL     1     112.558   7.693  49.973  1.00  0.00     0.186 HD
ENDROOT
TORSDOF 0
ENDMDL
MODEL 5
REMARK VINA RESULT: -4.121784456      2.354      2.558
REMARK  0 active torsions:
REMARK  status: ('A' for Active; 'I' for Inactive)
ROOT
HETATM    1  O1  UNL     1     113.660   9.146  49.648  1.00  0.00    -0.205 OA
HETATM    2  S1  UNL     1     113.355   9.032  48.208  1.00  0.00     0.235 S 
HETATM    3  O2  UNL     1     111.982   8.488  47.925  1.00  0.00    -0.205 OA
HETATM    4  C1  UNL     1     113.470  10.589  47.348  1.00  0.00     0.165 C 
HETATM    5  C2  UNL     1     114.840  11.194  47.593  1.00  0.00     0.029 C 
HETATM    6  C3  UNL     1     115.804  10.404  46.700  1.00  0.00     0.099 C 
HETATM    7  S2  UNL     1     116.078   8.814  47.544  1.00  0.00    -0.045 SA
HETATM    8  N1  UNL     1     114.521   7.951  47.493  1.00  0.00    -0.258 N 
ATOM      9  H1  UNL     1     114.347   7.017  47.122  1.00  0.00     0.186 HD
ENDROOT
TORSDOF 0
ENDMDL
