MODEL 1
REMARK VINA RESULT: -5.609830622      0.000      0.000
REMARK  1 active torsions:
REMARK  status: ('A' for Active; 'I' for Inactive)
REMARK    1  A    between atoms: O1_1  and  C1_3 
ROOT
HETATM    1  C1  UNL     1     113.811   7.279  48.355  1.00  0.00     0.204 C 
HETATM    2  C2  UNL     1     112.393   7.774  48.545  1.00  0.00     0.204 C 
HETATM    3  O2  UNL     1     112.338   8.432  49.737  1.00  0.00    -0.388 OA
HETATM    4  C3  UNL     1     113.178   9.485  49.898  1.00  0.00     0.173 C 
HETATM    5  C4  UNL     1     114.539   9.363  49.334  1.00  0.00     0.097 C 
HETATM    6  C5  UNL     1     114.637   8.532  48.088  1.00  0.00     0.194 C 
HETATM    7  O3  UNL     1     115.949   8.207  47.833  1.00  0.00    -0.350 OA
HETATM    8  C6  UNL     1     116.481   9.219  47.036  1.00  0.00     0.198 C 
HETATM    9  C7  UNL     1     115.270   9.941  46.535  1.00  0.00     0.198 C 
HETATM   10  O4  UNL     1     114.159   9.242  46.991  1.00  0.00    -0.350 OA
ENDROOT
BRANCH   1  11
HETATM   11  O1  UNL     1     113.942   6.328  47.386  1.00  0.00    -0.388 OA
ATOM     12  H1  UNL     1     114.304   5.506  47.696  1.00  0.00     0.210 HD
ENDBRANCH   1  11
TORSDOF 1
ENDMDL
MODEL 2
REMARK VINA RESULT: -5.397346187      1.612      3.812
REMARK  1 active torsions:
REMARK  status: ('A' for Active; 'I' for Inactive)
REMARK    1  A    between atoms: O1_1  and  C1_3 
ROOT
HETATM    1  C1  UNL     1     114.017  10.687  48.869  1.00  0.00     0.204 C 
HETATM    2  C2  UNL     1     114.349  11.182  47.478  1.00  0.00     0.204 C 
HETATM    3  O2  UNL     1     115.493  10.561  47.077  1.00  0.00    -0.388 OA
HETATM    4  C3  UNL     1     115.479   9.205  47.050  1.00  0.00     0.173 C 
HETATM    5  C4  UNL     1     114.760   8.508  48.138  1.00  0.00     0.097 C 
HETATM    6  C5  UNL     1     113.568   9.242  48.681  1.00  0.00     0.194 C 
HETATM    7  O3  UNL     1     113.174   8.692  49.878  1.00  0.00    -0.350 OA
HETATM    8  C6  UNL     1     112.253   7.686  49.591  1.00  0.00     0.198 C 
HETATM    9  C7  UNL     1     111.861   7.966  48.175  1.00  0.00     0.198 C 
HETATM   10  O4  UNL     1     112.496   9.144  47.800  1.00  0.00    -0.350 OA
ENDROOT
BRANCH   1  11
HETATM   11  O1  UNL     1     113.103  11.455  49.529  1.00  0.00    -0.388 OA
ATOM     12  H1  UNL     1     112.421  11.811  48.973  1.00  0.00     0.210 HD
ENDBRANCH   1  11
TORSDOF 1
ENDMDL
MODEL 3
REMARK VINA RESULT: -5.284842313      1.476      3.847
REMARK  1 active torsions:
REMARK  status: ('A' for Active; 'I' for Inactive)
REMARK    1  A    between atoms: O1_1  and  C1_3 
ROOT
HETATM    1  C1  UNL     1     114.921  10.850  47.882  1.00  0.00     0.204 C 
HETATM    2  C2  UNL     1     115.474  10.317  46.578  1.00  0.00     0.204 C 
HETATM    3  O2  UNL     1     116.542   9.523  46.870  1.00  0.00    -0.388 OA
HETATM    4  C3  UNL     1     116.317   8.470  47.694  1.00  0.00     0.173 C 
HETATM    5  C4  UNL     1     115.384   8.674  48.824  1.00  0.00     0.097 C 
HETATM    6  C5  UNL     1     114.273   9.647  48.559  1.00  0.00     0.194 C 
HETATM    7  O3  UNL     1     113.671  10.016  49.740  1.00  0.00    -0.350 OA
HETATM    8  C6  UNL     1     112.638   9.112  49.981  1.00  0.00     0.198 C 
HETATM    9  C7  UNL     1     112.449   8.438  48.659  1.00  0.00     0.198 C 
HETATM   10  O4  UNL     1     113.298   9.065  47.755  1.00  0.00    -0.350 OA
ENDROOT
BRANCH   1  11
HETATM   11  O1  UNL     1     114.075  11.909  47.736  1.00  0.00    -0.388 OA
ATOM     12  H1  UNL     1     114.320  12.673  48.244  1.00  0.00     0.210 HD
ENDBRANCH   1  11
TORSDOF 1
ENDMDL
MODEL 4
REMARK VINA RESULT: -5.229942236      1.560      2.864
REMARK  1 active torsions:
REMARK  status: ('A' for Active; 'I' for Inactive)
REMARK    1  A    between atoms: O1_1  and  C1_3 
ROOT
HETATM    1  C1  UNL     1     114.387   9.925  47.053  1.00  0.00     0.204 C 
HETATM    2  C2  UNL     1     114.860  11.177  47.757  1.00  0.00     0.204 C 
HETATM    3  O2  UNL     1     113.930  11.506  48.696  1.00  0.00    -0.388 OA
HETATM    4  C3  UNL     1     113.652  10.572  49.639  1.00  0.00     0.173 C 
HETATM    5  C4  UNL     1     113.605   9.158  49.207  1.00  0.00     0.097 C 
HETATM    6  C5  UNL     1     114.536   8.809  48.082  1.00  0.00     0.194 C 
HETATM    7  O3  UNL     1     114.193   7.593  47.539  1.00  0.00    -0.350 OA
HETATM    8  C6  UNL     1     114.892   6.612  48.240  1.00  0.00     0.198 C 
HETATM    9  C7  UNL     1     115.950   7.386  48.961  1.00  0.00     0.198 C 
HETATM   10  O4  UNL     1     115.843   8.708  48.548  1.00  0.00    -0.350 OA
ENDROOT
BRANCH   1  11
HETATM   11  O1  UNL     1     115.032   9.668  45.880  1.00  0.00    -0.388 OA
ATOM     12  H1  UNL     1     115.278   8.758  45.763  1.00  0.00     0.210 HD
ENDBRANCH   1  11
TORSDOF 1
ENDMDL
MODEL 5
REMARK VINA RESULT: -5.198609300      1.530      2.857
REMARK  1 active torsions:
REMARK  status: ('A' for Active; 'I' for Inactive)
REMARK    1  A    between atoms: O1_1  and  C1_3 
ROOT
HETATM    1  C1  UNL     1     114.585   6.965  47.860  1.00  0.00     0.204 C 
HETATM    2  C2  UNL     1     115.285   6.250  48.996  1.00  0.00     0.204 C 
HETATM    3  O2  UNL     1     116.621   6.251  48.729  1.00  0.00    -0.388 OA
HETATM    4  C3  UNL     1     117.214   7.459  48.563  1.00  0.00     0.173 C 
HETATM    5  C4  UNL     1     116.450   8.501  47.843  1.00  0.00     0.097 C 
HETATM    6  C5  UNL     1     114.962   8.434  48.024  1.00  0.00     0.194 C 
HETATM    7  O3  UNL     1     114.331   9.208  47.079  1.00  0.00    -0.350 OA
HETATM    8  C6  UNL     1     114.201  10.490  47.610  1.00  0.00     0.198 C 
HETATM    9  C7  UNL     1     114.452  10.289  49.071  1.00  0.00     0.198 C 
HETATM   10  O4  UNL     1     114.602   8.923  49.276  1.00  0.00    -0.350 OA
ENDROOT
BRANCH   1  11
HETATM   11  O1  UNL     1     113.239   6.754  47.815  1.00  0.00    -0.388 OA
ATOM     12  H1  UNL     1     112.856   6.874  46.955  1.00  0.00     0.210 HD
ENDBRANCH   1  11
TORSDOF 1
ENDMDL
