MODEL 1
REMARK VINA RESULT: -8.792471798      0.000      0.000
REMARK  8 active torsions:
REMARK  status: ('A' for Active; 'I' for Inactive)
REMARK    1  A    between atoms: N1_1  and  N2_4 
REMARK    2  A    between atoms: C1_5  and  N3_6 
REMARK    3  A    between atoms: N3_6  and  C2_8 
REMARK    4  A    between atoms: C2_8  and  C3_9 
REMARK    5  A    between atoms: C3_9  and  N4_10 
REMARK    6  A    between atoms: N4_10  and  C4_12 
REMARK    7  A    between atoms: C4_12  and  C5_13 
REMARK       I    between atoms: C5_13  and  N5_15 
REMARK    8  A    between atoms: N5_15  and  N6_17 
REMARK       I    between atoms: N6_17  and  C6_19 
ROOT
HETATM    1  N2  UNL     1     -24.825  37.816  45.655  1.00  0.00    -0.052 N 
HETATM    2  C1  UNL     1     -25.788  37.256  46.366  1.00  0.00     0.702 A 
HETATM    3  N7  UNL     1     -26.601  36.330  45.761  1.00  0.00    -0.188 N 
ATOM      4  H7  UNL     1     -27.346  35.895  46.306  1.00  0.00     0.184 HD
HETATM    5  C7  UNL     1     -26.448  35.985  44.492  1.00  0.00     0.082 A 
HETATM    6  C8  UNL     1     -27.286  35.042  43.900  1.00  0.00     0.038 A 
HETATM    7  C9  UNL     1     -27.075  34.727  42.589  1.00  0.00     0.077 A 
HETATM    8  C10 UNL     1     -26.051  35.341  41.886  1.00  0.00     0.245 A 
HETATM    9  O4  UNL     1     -25.843  35.060  40.668  1.00  0.00    -0.268 OA
HETATM   10  N8  UNL     1     -25.257  36.242  42.465  1.00  0.00    -0.317 N 
ATOM     11  H8  UNL     1     -24.511  36.679  41.924  1.00  0.00     0.169 HD
HETATM   12  C11 UNL     1     -25.431  36.583  43.762  1.00  0.00     0.134 A 
HETATM   13  C12 UNL     1     -24.604  37.514  44.352  1.00  0.00     0.310 A 
HETATM   14  O5  UNL     1     -23.689  38.049  43.684  1.00  0.00    -0.263 OA
ENDROOT
BRANCH   2  15
HETATM   15  N3  UNL     1     -25.982  37.511  47.588  1.00  0.00    -0.223 N 
ATOM     16  H3  UNL     1     -26.354  38.448  47.739  1.00  0.00     0.177 HD
BRANCH  15  17
HETATM   17  C2  UNL     1     -25.804  36.799  48.786  1.00  0.00     0.157 C 
BRANCH  17  18
HETATM   18  C3  UNL     1     -24.282  36.563  49.042  1.00  0.00     0.134 C 
BRANCH  18  19
HETATM   19  N4  UNL     1     -23.824  35.453  48.277  1.00  0.00    -0.412 N 
ATOM     20  H4  UNL     1     -24.415  34.636  48.127  1.00  0.00     0.153 HD
BRANCH  19  21
HETATM   21  C4  UNL     1     -22.518  35.523  47.728  1.00  0.00     0.219 C 
BRANCH  21  22
HETATM   22  C5  UNL     1     -21.559  34.650  48.481  1.00  0.00     0.253 C 
HETATM   23  O1  UNL     1     -21.707  33.412  48.400  1.00  0.00    -0.270 OA
HETATM   24  N5  UNL     1     -20.532  35.255  49.241  1.00  0.00    -0.264 N 
ATOM     25  H5  UNL     1     -20.490  36.274  49.260  1.00  0.00     0.190 HD
BRANCH  24  26
HETATM   26  N6  UNL     1     -19.576  34.552  49.964  1.00  0.00    -0.241 N 
HETATM   27  C6  UNL     1     -19.848  34.025  51.247  1.00  0.00     0.303 C 
HETATM   28  O2  UNL     1     -20.934  34.120  51.858  1.00  0.00    -0.628 OA
HETATM   29  O3  UNL     1     -18.824  33.332  51.909  1.00  0.00    -0.628 OA
ATOM     30  H6  UNL     1     -18.651  34.412  49.557  1.00  0.00     0.193 HD
ENDBRANCH  24  26
ENDBRANCH  21  22
ENDBRANCH  19  21
ENDBRANCH  18  19
ENDBRANCH  17  18
ENDBRANCH  15  17
ENDBRANCH   2  15
BRANCH   1  31
HETATM   31  N1  UNL     1     -23.947  38.789  46.173  1.00  0.00    -0.321 N 
ATOM     32  H12 UNL     1     -24.418  39.579  46.613  1.00  0.00     0.178 HD
ATOM     33  H11 UNL     1     -22.931  38.709  46.125  1.00  0.00     0.178 HD
ENDBRANCH   1  31
TORSDOF 8
ENDMDL
MODEL 2
REMARK VINA RESULT: -8.721341803      2.730      7.127
REMARK  8 active torsions:
REMARK  status: ('A' for Active; 'I' for Inactive)
REMARK    1  A    between atoms: N1_1  and  N2_4 
REMARK    2  A    between atoms: C1_5  and  N3_6 
REMARK    3  A    between atoms: N3_6  and  C2_8 
REMARK    4  A    between atoms: C2_8  and  C3_9 
REMARK    5  A    between atoms: C3_9  and  N4_10 
REMARK    6  A    between atoms: N4_10  and  C4_12 
REMARK    7  A    between atoms: C4_12  and  C5_13 
REMARK       I    between atoms: C5_13  and  N5_15 
REMARK    8  A    between atoms: N5_15  and  N6_17 
REMARK       I    between atoms: N6_17  and  C6_19 
ROOT
HETATM    1  N2  UNL     1     -23.822  35.403  47.488  1.00  0.00    -0.052 N 
HETATM    2  C1  UNL     1     -24.058  36.315  48.413  1.00  0.00     0.702 A 
HETATM    3  N7  UNL     1     -23.115  36.527  49.387  1.00  0.00    -0.188 N 
ATOM      4  H7  UNL     1     -23.293  37.230  50.104  1.00  0.00     0.184 HD
HETATM    5  C7  UNL     1     -21.980  35.846  49.424  1.00  0.00     0.082 A 
HETATM    6  C8  UNL     1     -21.037  36.080  50.423  1.00  0.00     0.038 A 
HETATM    7  C9  UNL     1     -19.885  35.347  50.405  1.00  0.00     0.077 A 
HETATM    8  C10 UNL     1     -19.683  34.402  49.412  1.00  0.00     0.245 A 
HETATM    9  O4  UNL     1     -18.620  33.712  49.381  1.00  0.00    -0.268 OA
HETATM   10  N8  UNL     1     -20.595  34.188  48.462  1.00  0.00    -0.317 N 
ATOM     11  H8  UNL     1     -20.420  33.486  47.744  1.00  0.00     0.169 HD
HETATM   12  C11 UNL     1     -21.748  34.893  48.443  1.00  0.00     0.134 A 
HETATM   13  C12 UNL     1     -22.684  34.666  47.457  1.00  0.00     0.310 A 
HETATM   14  O5  UNL     1     -22.466  33.802  46.577  1.00  0.00    -0.263 OA
ENDROOT
BRANCH   2  15
HETATM   15  N3  UNL     1     -25.103  37.025  48.432  1.00  0.00    -0.223 N 
ATOM     16  H3  UNL     1     -24.931  37.987  48.139  1.00  0.00     0.177 HD
BRANCH  15  17
HETATM   17  C2  UNL     1     -26.449  36.794  48.764  1.00  0.00     0.157 C 
BRANCH  17  18
HETATM   18  C3  UNL     1     -27.358  37.088  47.529  1.00  0.00     0.134 C 
BRANCH  18  19
HETATM   19  N4  UNL     1     -26.959  38.303  46.906  1.00  0.00    -0.412 N 
ATOM     20  H4  UNL     1     -27.114  39.204  47.359  1.00  0.00     0.153 HD
BRANCH  19  21
HETATM   21  C4  UNL     1     -26.338  38.221  45.634  1.00  0.00     0.219 C 
BRANCH  21  22
HETATM   22  C5  UNL     1     -24.979  38.856  45.643  1.00  0.00     0.253 C 
HETATM   23  O1  UNL     1     -24.002  38.141  45.951  1.00  0.00    -0.270 OA
HETATM   24  N5  UNL     1     -24.858  40.222  45.302  1.00  0.00    -0.264 N 
ATOM     25  H5  UNL     1     -25.710  40.734  45.073  1.00  0.00     0.190 HD
BRANCH  24  26
HETATM   26  N6  UNL     1     -23.653  40.913  45.258  1.00  0.00    -0.241 N 
HETATM   27  C6  UNL     1     -22.609  40.539  44.384  1.00  0.00     0.303 C 
HETATM   28  O2  UNL     1     -22.642  39.586  43.576  1.00  0.00    -0.628 OA
HETATM   29  O3  UNL     1     -21.424  41.289  44.407  1.00  0.00    -0.628 OA
ATOM     30  H6  UNL     1     -23.519  41.714  45.876  1.00  0.00     0.193 HD
ENDBRANCH  24  26
ENDBRANCH  21  22
ENDBRANCH  19  21
ENDBRANCH  18  19
ENDBRANCH  17  18
ENDBRANCH  15  17
ENDBRANCH   2  15
BRANCH   1  31
HETATM   31  N1  UNL     1     -24.730  35.094  46.455  1.00  0.00    -0.321 N 
ATOM     32  H12 UNL     1     -25.391  35.842  46.248  1.00  0.00     0.178 HD
ATOM     33  H11 UNL     1     -24.723  34.208  45.949  1.00  0.00     0.178 HD
ENDBRANCH   1  31
TORSDOF 8
ENDMDL
MODEL 3
REMARK VINA RESULT: -8.653461959      2.511      7.902
REMARK  8 active torsions:
REMARK  status: ('A' for Active; 'I' for Inactive)
REMARK    1  A    between atoms: N1_1  and  N2_4 
REMARK    2  A    between atoms: C1_5  and  N3_6 
REMARK    3  A    between atoms: N3_6  and  C2_8 
REMARK    4  A    between atoms: C2_8  and  C3_9 
REMARK    5  A    between atoms: C3_9  and  N4_10 
REMARK    6  A    between atoms: N4_10  and  C4_12 
REMARK    7  A    between atoms: C4_12  and  C5_13 
REMARK       I    between atoms: C5_13  and  N5_15 
REMARK    8  A    between atoms: N5_15  and  N6_17 
REMARK       I    between atoms: N6_17  and  C6_19 
ROOT
HETATM    1  N2  UNL     1     -23.877  35.347  47.330  1.00  0.00    -0.052 N 
HETATM    2  C1  UNL     1     -24.161  36.310  48.189  1.00  0.00     0.702 A 
HETATM    3  N7  UNL     1     -23.257  36.595  49.182  1.00  0.00    -0.188 N 
ATOM      4  H7  UNL     1     -23.472  37.338  49.849  1.00  0.00     0.184 HD
HETATM    5  C7  UNL     1     -22.115  35.937  49.301  1.00  0.00     0.082 A 
HETATM    6  C8  UNL     1     -21.213  36.246  50.317  1.00  0.00     0.038 A 
HETATM    7  C9  UNL     1     -20.051  35.532  50.386  1.00  0.00     0.077 A 
HETATM    8  C10 UNL     1     -19.799  34.532  49.460  1.00  0.00     0.245 A 
HETATM    9  O4  UNL     1     -18.726  33.860  49.510  1.00  0.00    -0.268 OA
HETATM   10  N8  UNL     1     -20.672  34.247  48.493  1.00  0.00    -0.317 N 
ATOM     11  H8  UNL     1     -20.460  33.506  47.825  1.00  0.00     0.169 HD
HETATM   12  C11 UNL     1     -21.833  34.930  48.389  1.00  0.00     0.134 A 
HETATM   13  C12 UNL     1     -22.728  34.629  47.386  1.00  0.00     0.310 A 
HETATM   14  O5  UNL     1     -22.466  33.718  46.568  1.00  0.00    -0.263 OA
ENDROOT
BRANCH   2  15
HETATM   15  N3  UNL     1     -25.216  37.003  48.128  1.00  0.00    -0.223 N 
ATOM     16  H3  UNL     1     -25.320  37.632  48.923  1.00  0.00     0.177 HD
BRANCH  15  17
HETATM   17  C2  UNL     1     -26.279  37.104  47.215  1.00  0.00     0.157 C 
BRANCH  17  18
HETATM   18  C3  UNL     1     -25.799  37.832  45.920  1.00  0.00     0.134 C 
BRANCH  18  19
HETATM   19  N4  UNL     1     -25.029  38.980  46.260  1.00  0.00    -0.412 N 
ATOM     20  H4  UNL     1     -25.428  39.736  46.816  1.00  0.00     0.153 HD
BRANCH  19  21
HETATM   21  C4  UNL     1     -23.688  39.036  45.802  1.00  0.00     0.219 C 
BRANCH  21  22
HETATM   22  C5  UNL     1     -23.594  39.702  44.461  1.00  0.00     0.253 C 
HETATM   23  O1  UNL     1     -22.528  39.578  43.820  1.00  0.00    -0.270 OA
HETATM   24  N5  UNL     1     -24.703  40.432  43.977  1.00  0.00    -0.264 N 
ATOM     25  H5  UNL     1     -25.531  40.490  44.570  1.00  0.00     0.190 HD
BRANCH  24  26
HETATM   26  N6  UNL     1     -24.740  41.074  42.745  1.00  0.00    -0.241 N 
HETATM   27  C6  UNL     1     -25.046  40.384  41.552  1.00  0.00     0.303 C 
HETATM   28  O2  UNL     1     -25.312  39.166  41.463  1.00  0.00    -0.628 OA
HETATM   29  O3  UNL     1     -25.056  41.109  40.351  1.00  0.00    -0.628 OA
ATOM     30  H6  UNL     1     -24.540  42.074  42.703  1.00  0.00     0.193 HD
ENDBRANCH  24  26
ENDBRANCH  21  22
ENDBRANCH  19  21
ENDBRANCH  18  19
ENDBRANCH  17  18
ENDBRANCH  15  17
ENDBRANCH   2  15
BRANCH   1  31
HETATM   31  N1  UNL     1     -24.742  34.963  46.286  1.00  0.00    -0.321 N 
ATOM     32  H12 UNL     1     -25.021  35.731  45.676  1.00  0.00     0.178 HD
ATOM     33  H11 UNL     1     -25.054  34.002  46.143  1.00  0.00     0.178 HD
ENDBRANCH   1  31
TORSDOF 8
ENDMDL
MODEL 4
REMARK VINA RESULT: -8.610495266      1.200      1.303
REMARK  8 active torsions:
REMARK  status: ('A' for Active; 'I' for Inactive)
REMARK    1  A    between atoms: N1_1  and  N2_4 
REMARK    2  A    between atoms: C1_5  and  N3_6 
REMARK    3  A    between atoms: N3_6  and  C2_8 
REMARK    4  A    between atoms: C2_8  and  C3_9 
REMARK    5  A    between atoms: C3_9  and  N4_10 
REMARK    6  A    between atoms: N4_10  and  C4_12 
REMARK    7  A    between atoms: C4_12  and  C5_13 
REMARK       I    between atoms: C5_13  and  N5_15 
REMARK    8  A    between atoms: N5_15  and  N6_17 
REMARK       I    between atoms: N6_17  and  C6_19 
ROOT
HETATM    1  N2  UNL     1     -24.962  38.008  45.520  1.00  0.00    -0.052 N 
HETATM    2  C1  UNL     1     -25.960  37.502  46.221  1.00  0.00     0.702 A 
HETATM    3  N7  UNL     1     -26.753  36.542  45.643  1.00  0.00    -0.188 N 
ATOM      4  H7  UNL     1     -27.526  36.149  46.180  1.00  0.00     0.184 HD
HETATM    5  C7  UNL     1     -26.544  36.111  44.409  1.00  0.00     0.082 A 
HETATM    6  C8  UNL     1     -27.362  35.134  43.843  1.00  0.00     0.038 A 
HETATM    7  C9  UNL     1     -27.094  34.730  42.567  1.00  0.00     0.077 A 
HETATM    8  C10 UNL     1     -26.033  35.289  41.873  1.00  0.00     0.245 A 
HETATM    9  O4  UNL     1     -25.771  34.926  40.688  1.00  0.00    -0.268 OA
HETATM   10  N8  UNL     1     -25.259  36.223  42.427  1.00  0.00    -0.317 N 
ATOM     11  H8  UNL     1     -24.486  36.619  41.893  1.00  0.00     0.169 HD
HETATM   12  C11 UNL     1     -25.489  36.652  43.687  1.00  0.00     0.134 A 
HETATM   13  C12 UNL     1     -24.684  37.617  44.252  1.00  0.00     0.310 A 
HETATM   14  O5  UNL     1     -23.734  38.100  43.592  1.00  0.00    -0.263 OA
ENDROOT
BRANCH   2  15
HETATM   15  N3  UNL     1     -26.209  37.840  47.412  1.00  0.00    -0.223 N 
ATOM     16  H3  UNL     1     -26.354  38.844  47.514  1.00  0.00     0.177 HD
BRANCH  15  17
HETATM   17  C2  UNL     1     -26.332  37.150  48.630  1.00  0.00     0.157 C 
BRANCH  17  18
HETATM   18  C3  UNL     1     -24.916  36.820  49.199  1.00  0.00     0.134 C 
BRANCH  18  19
HETATM   19  N4  UNL     1     -24.365  35.698  48.519  1.00  0.00    -0.412 N 
ATOM     20  H4  UNL     1     -24.788  34.773  48.599  1.00  0.00     0.153 HD
BRANCH  19  21
HETATM   21  C4  UNL     1     -23.208  35.907  47.727  1.00  0.00     0.219 C 
BRANCH  21  22
HETATM   22  C5  UNL     1     -22.126  34.925  48.063  1.00  0.00     0.253 C 
HETATM   23  O1  UNL     1     -22.048  33.883  47.378  1.00  0.00    -0.270 OA
HETATM   24  N5  UNL     1     -21.243  35.215  49.128  1.00  0.00    -0.264 N 
ATOM     25  H5  UNL     1     -21.384  36.085  49.642  1.00  0.00     0.190 HD
BRANCH  24  26
HETATM   26  N6  UNL     1     -20.193  34.392  49.520  1.00  0.00    -0.241 N 
HETATM   27  C6  UNL     1     -18.966  34.364  48.822  1.00  0.00     0.303 C 
HETATM   28  O2  UNL     1     -18.685  35.048  47.814  1.00  0.00    -0.628 OA
HETATM   29  O3  UNL     1     -17.961  33.501  49.283  1.00  0.00    -0.628 OA
ATOM     30  H6  UNL     1     -20.314  33.791  50.336  1.00  0.00     0.193 HD
ENDBRANCH  24  26
ENDBRANCH  21  22
ENDBRANCH  19  21
ENDBRANCH  18  19
ENDBRANCH  17  18
ENDBRANCH  15  17
ENDBRANCH   2  15
BRANCH   1  31
HETATM   31  N1  UNL     1     -24.100  39.009  46.011  1.00  0.00    -0.321 N 
ATOM     32  H12 UNL     1     -23.895  38.926  47.006  1.00  0.00     0.178 HD
ATOM     33  H11 UNL     1     -23.706  39.745  45.425  1.00  0.00     0.178 HD
ENDBRANCH   1  31
TORSDOF 8
ENDMDL
MODEL 5
REMARK VINA RESULT: -8.605190397      1.798      7.519
REMARK  8 active torsions:
REMARK  status: ('A' for Active; 'I' for Inactive)
REMARK    1  A    between atoms: N1_1  and  N2_4 
REMARK    2  A    between atoms: C1_5  and  N3_6 
REMARK    3  A    between atoms: N3_6  and  C2_8 
REMARK    4  A    between atoms: C2_8  and  C3_9 
REMARK    5  A    between atoms: C3_9  and  N4_10 
REMARK    6  A    between atoms: N4_10  and  C4_12 
REMARK    7  A    between atoms: C4_12  and  C5_13 
REMARK       I    between atoms: C5_13  and  N5_15 
REMARK    8  A    between atoms: N5_15  and  N6_17 
REMARK       I    between atoms: N6_17  and  C6_19 
ROOT
HETATM    1  N2  UNL     1     -23.891  35.352  46.920  1.00  0.00    -0.052 N 
HETATM    2  C1  UNL     1     -24.229  36.390  47.664  1.00  0.00     0.702 A 
HETATM    3  N7  UNL     1     -23.440  36.715  48.740  1.00  0.00    -0.188 N 
ATOM      4  H7  UNL     1     -23.697  37.515  49.318  1.00  0.00     0.184 HD
HETATM    5  C7  UNL     1     -22.356  36.020  49.049  1.00  0.00     0.082 A 
HETATM    6  C8  UNL     1     -21.571  36.370  50.146  1.00  0.00     0.038 A 
HETATM    7  C9  UNL     1     -20.464  35.617  50.412  1.00  0.00     0.077 A 
HETATM    8  C10 UNL     1     -20.152  34.538  49.601  1.00  0.00     0.245 A 
HETATM    9  O4  UNL     1     -19.129  33.827  49.834  1.00  0.00    -0.268 OA
HETATM   10  N8  UNL     1     -20.913  34.214  48.554  1.00  0.00    -0.317 N 
ATOM     11  H8  UNL     1     -20.659  33.415  47.975  1.00  0.00     0.169 HD
HETATM   12  C11 UNL     1     -22.016  34.934  48.256  1.00  0.00     0.134 A 
HETATM   13  C12 UNL     1     -22.796  34.593  47.172  1.00  0.00     0.310 A 
HETATM   14  O5  UNL     1     -22.482  33.610  46.462  1.00  0.00    -0.263 OA
ENDROOT
BRANCH   2  15
HETATM   15  N3  UNL     1     -25.231  37.118  47.420  1.00  0.00    -0.223 N 
ATOM     16  H3  UNL     1     -25.992  36.975  48.083  1.00  0.00     0.177 HD
BRANCH  15  17
HETATM   17  C2  UNL     1     -25.539  38.081  46.443  1.00  0.00     0.157 C 
BRANCH  17  18
HETATM   18  C3  UNL     1     -24.240  38.835  46.015  1.00  0.00     0.134 C 
BRANCH  18  19
HETATM   19  N4  UNL     1     -24.455  39.518  44.784  1.00  0.00    -0.412 N 
ATOM     20  H4  UNL     1     -25.075  40.326  44.730  1.00  0.00     0.153 HD
BRANCH  19  21
HETATM   21  C4  UNL     1     -23.777  39.037  43.635  1.00  0.00     0.219 C 
BRANCH  21  22
HETATM   22  C5  UNL     1     -24.694  38.250  42.746  1.00  0.00     0.253 C 
HETATM   23  O1  UNL     1     -25.185  38.830  41.754  1.00  0.00    -0.270 OA
HETATM   24  N5  UNL     1     -24.959  36.898  43.058  1.00  0.00    -0.264 N 
ATOM     25  H5  UNL     1     -24.524  36.506  43.893  1.00  0.00     0.190 HD
BRANCH  24  26
HETATM   26  N6  UNL     1     -25.775  36.066  42.300  1.00  0.00    -0.241 N 
HETATM   27  C6  UNL     1     -26.827  35.323  42.880  1.00  0.00     0.303 C 
HETATM   28  O2  UNL     1     -27.141  35.326  44.090  1.00  0.00    -0.628 OA
HETATM   29  O3  UNL     1     -27.599  34.504  42.043  1.00  0.00    -0.628 OA
ATOM     30  H6  UNL     1     -25.609  35.990  41.296  1.00  0.00     0.193 HD
ENDBRANCH  24  26
ENDBRANCH  21  22
ENDBRANCH  19  21
ENDBRANCH  18  19
ENDBRANCH  17  18
ENDBRANCH  15  17
ENDBRANCH   2  15
BRANCH   1  31
HETATM   31  N1  UNL     1     -24.640  34.922  45.806  1.00  0.00    -0.321 N 
ATOM     32  H12 UNL     1     -24.752  35.633  45.084  1.00  0.00     0.178 HD
ATOM     33  H11 UNL     1     -25.027  33.982  45.720  1.00  0.00     0.178 HD
ENDBRANCH   1  31
TORSDOF 8
ENDMDL
