MODEL 1
REMARK VINA RESULT: -7.306270415      0.000      0.000
REMARK  3 active torsions:
REMARK  status: ('A' for Active; 'I' for Inactive)
REMARK       I    between atoms: C1_2  and  N1_3 
REMARK    1  A    between atoms: C1_2  and  C5_17 
REMARK    2  A    between atoms: N1_3  and  N2_5 
REMARK    3  A    between atoms: C2_7  and  C3_8 
ROOT
HETATM    1  N2  UNL     1     -14.240 -27.489 -24.381  1.00  0.00    -0.307 N 
ATOM      2  H2  UNL     1     -13.302 -27.845 -24.199  1.00  0.00     0.186 HD
HETATM    3  C2  UNL     1     -14.679 -26.522 -23.656  1.00  0.00     0.143 C 
ENDROOT
BRANCH   1   4
HETATM    4  N1  UNL     1     -14.987 -28.074 -25.406  1.00  0.00    -0.265 N 
HETATM    5  C1  UNL     1     -14.371 -28.401 -26.617  1.00  0.00     0.286 C 
HETATM    6  O1  UNL     1     -13.129 -28.172 -26.801  1.00  0.00    -0.264 OA
ATOM      7  H1  UNL     1     -15.981 -28.263 -25.271  1.00  0.00     0.190 HD
BRANCH   5   8
HETATM    8  C5  UNL     1     -15.106 -29.018 -27.731  1.00  0.00     0.102 A 
HETATM    9  C6  UNL     1     -16.462 -29.224 -27.716  1.00  0.00     0.035 A 
HETATM   10  C7  UNL     1     -17.171 -29.804 -28.759  1.00  0.00     0.004 A 
HETATM   11  C8  UNL     1     -16.448 -30.191 -29.864  1.00  0.00     0.017 A 
HETATM   12  C9  UNL     1     -15.080 -29.985 -29.882  1.00  0.00     0.088 A 
HETATM   13  N6  UNL     1     -14.436 -29.419 -28.850  1.00  0.00    -0.361 N 
ATOM     14  H6  UNL     1     -13.426 -29.286 -28.903  1.00  0.00     0.165 HD
ENDBRANCH   5   8
ENDBRANCH   1   4
BRANCH   3  15
HETATM   15  C3  UNL     1     -13.863 -25.951 -22.605  1.00  0.00     0.135 A 
HETATM   16  N3  UNL     1     -13.519 -24.649 -22.453  1.00  0.00    -0.280 N 
HETATM   17  N4  UNL     1     -12.769 -24.511 -21.382  1.00  0.00    -0.239 N 
ATOM     18  H3  UNL     1     -13.799 -23.892 -23.077  1.00  0.00     0.189 HD
HETATM   19  N5  UNL     1     -12.588 -25.674 -20.795  1.00  0.00    -0.250 N 
ATOM     20  H4  UNL     1     -12.383 -23.627 -21.052  1.00  0.00     0.208 HD
HETATM   21  C4  UNL     1     -13.260 -26.590 -21.537  1.00  0.00     0.290 A 
ATOM     22  H5  UNL     1     -12.048 -25.852 -19.948  1.00  0.00     0.192 HD
HETATM   23  O2  UNL     1     -13.339 -27.810 -21.317  1.00  0.00    -0.264 OA
ENDBRANCH   3  15
TORSDOF 3
ENDMDL
MODEL 2
REMARK VINA RESULT: -7.256001136      2.909      7.510
REMARK  3 active torsions:
REMARK  status: ('A' for Active; 'I' for Inactive)
REMARK       I    between atoms: C1_2  and  N1_3 
REMARK    1  A    between atoms: C1_2  and  C5_17 
REMARK    2  A    between atoms: N1_3  and  N2_5 
REMARK    3  A    between atoms: C2_7  and  C3_8 
ROOT
HETATM    1  N2  UNL     1     -12.658 -29.175 -27.648  1.00  0.00    -0.307 N 
ATOM      2  H2  UNL     1     -13.156 -30.065 -27.641  1.00  0.00     0.186 HD
HETATM    3  C2  UNL     1     -11.908 -28.902 -28.656  1.00  0.00     0.143 C 
ENDROOT
BRANCH   1   4
HETATM    4  N1  UNL     1     -12.821 -28.312 -26.562  1.00  0.00    -0.265 N 
HETATM    5  C1  UNL     1     -14.087 -27.799 -26.264  1.00  0.00     0.286 C 
HETATM    6  O1  UNL     1     -15.102 -28.111 -26.974  1.00  0.00    -0.264 OA
ATOM      7  H1  UNL     1     -12.018 -28.056 -25.986  1.00  0.00     0.190 HD
BRANCH   5   8
HETATM    8  C5  UNL     1     -14.320 -26.887 -25.136  1.00  0.00     0.102 A 
HETATM    9  C6  UNL     1     -15.027 -25.716 -25.246  1.00  0.00     0.035 A 
HETATM   10  C7  UNL     1     -15.255 -24.845 -24.190  1.00  0.00     0.004 A 
HETATM   11  C8  UNL     1     -14.731 -25.197 -22.967  1.00  0.00     0.017 A 
HETATM   12  C9  UNL     1     -14.018 -26.376 -22.853  1.00  0.00     0.088 A 
HETATM   13  N6  UNL     1     -13.822 -27.189 -23.902  1.00  0.00    -0.361 N 
ATOM     14  H6  UNL     1     -13.290 -28.050 -23.775  1.00  0.00     0.165 HD
ENDBRANCH   5   8
ENDBRANCH   1   4
BRANCH   3  15
HETATM   15  C3  UNL     1     -11.773 -29.833 -29.756  1.00  0.00     0.135 A 
HETATM   16  N3  UNL     1     -10.623 -30.260 -30.329  1.00  0.00    -0.280 N 
HETATM   17  N4  UNL     1     -10.897 -31.103 -31.300  1.00  0.00    -0.239 N 
ATOM     18  H3  UNL     1      -9.685 -29.972 -30.049  1.00  0.00     0.189 HD
HETATM   19  N5  UNL     1     -12.197 -31.267 -31.412  1.00  0.00    -0.250 N 
ATOM     20  H4  UNL     1     -10.200 -31.565 -31.885  1.00  0.00     0.208 HD
HETATM   21  C4  UNL     1     -12.768 -30.486 -30.460  1.00  0.00     0.290 A 
ATOM     22  H5  UNL     1     -12.681 -31.864 -32.083  1.00  0.00     0.192 HD
HETATM   23  O2  UNL     1     -13.983 -30.359 -30.235  1.00  0.00    -0.264 OA
ENDBRANCH   3  15
TORSDOF 3
ENDMDL
MODEL 3
REMARK VINA RESULT: -7.235123130      1.099      1.344
REMARK  3 active torsions:
REMARK  status: ('A' for Active; 'I' for Inactive)
REMARK       I    between atoms: C1_2  and  N1_3 
REMARK    1  A    between atoms: C1_2  and  C5_17 
REMARK    2  A    between atoms: N1_3  and  N2_5 
REMARK    3  A    between atoms: C2_7  and  C3_8 
ROOT
HETATM    1  N2  UNL     1     -14.163 -27.345 -24.459  1.00  0.00    -0.307 N 
ATOM      2  H2  UNL     1     -13.287 -26.904 -24.740  1.00  0.00     0.186 HD
HETATM    3  C2  UNL     1     -14.512 -27.283 -23.224  1.00  0.00     0.143 C 
ENDROOT
BRANCH   1   4
HETATM    4  N1  UNL     1     -14.927 -27.988 -25.436  1.00  0.00    -0.265 N 
HETATM    5  C1  UNL     1     -14.366 -28.267 -26.687  1.00  0.00     0.286 C 
HETATM    6  O1  UNL     1     -13.161 -27.942 -26.949  1.00  0.00    -0.264 OA
ATOM      7  H1  UNL     1     -15.892 -28.254 -25.238  1.00  0.00     0.190 HD
BRANCH   5   8
HETATM    8  C5  UNL     1     -15.121 -28.940 -27.753  1.00  0.00     0.102 A 
HETATM    9  C6  UNL     1     -16.479 -29.130 -27.711  1.00  0.00     0.035 A 
HETATM   10  C7  UNL     1     -17.206 -29.763 -28.709  1.00  0.00     0.004 A 
HETATM   11  C8  UNL     1     -16.500 -30.223 -29.797  1.00  0.00     0.017 A 
HETATM   12  C9  UNL     1     -15.131 -30.034 -29.843  1.00  0.00     0.088 A 
HETATM   13  N6  UNL     1     -14.469 -29.414 -28.854  1.00  0.00    -0.361 N 
ATOM     14  H6  UNL     1     -13.459 -29.295 -28.926  1.00  0.00     0.165 HD
ENDBRANCH   5   8
ENDBRANCH   1   4
BRANCH   3  15
HETATM   15  C3  UNL     1     -13.682 -26.603 -22.250  1.00  0.00     0.135 A 
HETATM   16  N3  UNL     1     -13.024 -27.160 -21.206  1.00  0.00    -0.280 N 
HETATM   17  N4  UNL     1     -12.374 -26.229 -20.544  1.00  0.00    -0.239 N 
ATOM     18  H3  UNL     1     -13.031 -28.153 -20.970  1.00  0.00     0.189 HD
HETATM   19  N5  UNL     1     -12.566 -25.052 -21.099  1.00  0.00    -0.250 N 
ATOM     20  H4  UNL     1     -11.802 -26.395 -19.716  1.00  0.00     0.208 HD
HETATM   21  C4  UNL     1     -13.379 -25.256 -22.166  1.00  0.00     0.290 A 
ATOM     22  H5  UNL     1     -12.180 -24.161 -20.787  1.00  0.00     0.192 HD
HETATM   23  O2  UNL     1     -13.797 -24.394 -22.956  1.00  0.00    -0.264 OA
ENDBRANCH   3  15
TORSDOF 3
ENDMDL
MODEL 4
REMARK VINA RESULT: -7.077530534      4.647      5.413
REMARK  3 active torsions:
REMARK  status: ('A' for Active; 'I' for Inactive)
REMARK       I    between atoms: C1_2  and  N1_3 
REMARK    1  A    between atoms: C1_2  and  C5_17 
REMARK    2  A    between atoms: N1_3  and  N2_5 
REMARK    3  A    between atoms: C2_7  and  C3_8 
ROOT
HETATM    1  N2  UNL     1     -13.749 -28.919 -27.712  1.00  0.00    -0.307 N 
ATOM      2  H2  UNL     1     -13.493 -28.208 -28.397  1.00  0.00     0.186 HD
HETATM    3  C2  UNL     1     -12.810 -29.545 -27.097  1.00  0.00     0.143 C 
ENDROOT
BRANCH   1   4
HETATM    4  N1  UNL     1     -15.106 -29.167 -27.486  1.00  0.00    -0.265 N 
HETATM    5  C1  UNL     1     -15.872 -29.795 -28.473  1.00  0.00     0.286 C 
HETATM    6  O1  UNL     1     -15.348 -30.148 -29.581  1.00  0.00    -0.264 OA
ATOM      7  H1  UNL     1     -15.537 -28.890 -26.604  1.00  0.00     0.190 HD
BRANCH   5   8
HETATM    8  C5  UNL     1     -17.302 -30.081 -28.292  1.00  0.00     0.102 A 
HETATM    9  C6  UNL     1     -18.222 -29.128 -27.930  1.00  0.00     0.035 A 
HETATM   10  C7  UNL     1     -19.575 -29.382 -27.756  1.00  0.00     0.004 A 
HETATM   11  C8  UNL     1     -19.998 -30.675 -27.964  1.00  0.00     0.017 A 
HETATM   12  C9  UNL     1     -19.074 -31.637 -28.329  1.00  0.00     0.088 A 
HETATM   13  N6  UNL     1     -17.774 -31.346 -28.486  1.00  0.00    -0.361 N 
ATOM     14  H6  UNL     1     -17.125 -32.085 -28.757  1.00  0.00     0.165 HD
ENDBRANCH   5   8
ENDBRANCH   1   4
BRANCH   3  15
HETATM   15  C3  UNL     1     -11.418 -29.250 -27.369  1.00  0.00     0.135 A 
HETATM   16  N3  UNL     1     -10.383 -29.318 -26.498  1.00  0.00    -0.280 N 
HETATM   17  N4  UNL     1      -9.269 -28.977 -27.107  1.00  0.00    -0.239 N 
ATOM     18  H3  UNL     1     -10.457 -29.593 -25.518  1.00  0.00     0.189 HD
HETATM   19  N5  UNL     1      -9.506 -28.677 -28.365  1.00  0.00    -0.250 N 
ATOM     20  H4  UNL     1      -8.349 -28.949 -26.666  1.00  0.00     0.208 HD
HETATM   21  C4  UNL     1     -10.840 -28.839 -28.556  1.00  0.00     0.290 A 
ATOM     22  H5  UNL     1      -8.822 -28.380 -29.061  1.00  0.00     0.192 HD
HETATM   23  O2  UNL     1     -11.466 -28.655 -29.613  1.00  0.00    -0.264 OA
ENDBRANCH   3  15
TORSDOF 3
ENDMDL
MODEL 5
REMARK VINA RESULT: -7.033819735      4.315      5.473
REMARK  3 active torsions:
REMARK  status: ('A' for Active; 'I' for Inactive)
REMARK       I    between atoms: C1_2  and  N1_3 
REMARK    1  A    between atoms: C1_2  and  C5_17 
REMARK    2  A    between atoms: N1_3  and  N2_5 
REMARK    3  A    between atoms: C2_7  and  C3_8 
ROOT
HETATM    1  N2  UNL     1     -13.103 -28.948 -27.784  1.00  0.00    -0.307 N 
ATOM      2  H2  UNL     1     -12.663 -28.028 -27.786  1.00  0.00     0.186 HD
HETATM    3  C2  UNL     1     -12.367 -29.979 -27.564  1.00  0.00     0.143 C 
ENDROOT
BRANCH   1   4
HETATM    4  N1  UNL     1     -14.478 -29.029 -28.020  1.00  0.00    -0.265 N 
HETATM    5  C1  UNL     1     -15.380 -28.684 -27.008  1.00  0.00     0.286 C 
HETATM    6  O1  UNL     1     -14.963 -28.293 -25.867  1.00  0.00    -0.264 OA
ATOM      7  H1  UNL     1     -14.824 -29.339 -28.928  1.00  0.00     0.190 HD
BRANCH   5   8
HETATM    8  C5  UNL     1     -16.835 -28.749 -27.198  1.00  0.00     0.102 A 
HETATM    9  C6  UNL     1     -17.436 -29.519 -28.162  1.00  0.00     0.035 A 
HETATM   10  C7  UNL     1     -18.808 -29.593 -28.353  1.00  0.00     0.004 A 
HETATM   11  C8  UNL     1     -19.596 -28.837 -27.515  1.00  0.00     0.017 A 
HETATM   12  C9  UNL     1     -18.994 -28.059 -26.543  1.00  0.00     0.088 A 
HETATM   13  N6  UNL     1     -17.661 -28.020 -26.393  1.00  0.00    -0.361 N 
ATOM     14  H6  UNL     1     -17.257 -27.433 -25.663  1.00  0.00     0.165 HD
ENDBRANCH   5   8
ENDBRANCH   1   4
BRANCH   3  15
HETATM   15  C3  UNL     1     -10.945 -29.839 -27.325  1.00  0.00     0.135 A 
HETATM   16  N3  UNL     1     -10.213 -30.457 -26.368  1.00  0.00    -0.280 N 
HETATM   17  N4  UNL     1      -8.956 -30.082 -26.461  1.00  0.00    -0.239 N 
ATOM     18  H3  UNL     1     -10.581 -31.113 -25.678  1.00  0.00     0.189 HD
HETATM   19  N5  UNL     1      -8.803 -29.229 -27.450  1.00  0.00    -0.250 N 
ATOM     20  H4  UNL     1      -8.205 -30.408 -25.852  1.00  0.00     0.208 HD
HETATM   21  C4  UNL     1     -10.029 -29.059 -28.007  1.00  0.00     0.290 A 
ATOM     22  H5  UNL     1      -7.934 -28.782 -27.741  1.00  0.00     0.192 HD
HETATM   23  O2  UNL     1     -10.311 -28.330 -28.971  1.00  0.00    -0.264 OA
ENDBRANCH   3  15
TORSDOF 3
ENDMDL
