MODEL 1
REMARK VINA RESULT: -8.055487090      0.000      0.000
REMARK  6 active torsions:
REMARK  status: ('A' for Active; 'I' for Inactive)
REMARK    1  A    between atoms: C2_2  and  O2_4 
REMARK    2  A    between atoms: O2_4  and  N1_5 
REMARK       I    between atoms: C3_7  and  N2_8 
REMARK       I    between atoms: C3_7  and  N5_21 
REMARK    3  A    between atoms: N3_10  and  C4_12 
REMARK    4  A    between atoms: C7_18  and  O3_19 
REMARK    5  A    between atoms: N5_21  and  C8_23 
REMARK    6  A    between atoms: C8_23  and  C9_24 
ROOT
HETATM    1  N1  UNL     1      15.866  -2.205   9.467  1.00  0.00    -0.087 N 
ATOM      2  H1  UNL     1      16.324  -2.451  10.344  1.00  0.00     0.214 HD
HETATM    3  C3  UNL     1      14.941  -2.962   8.937  1.00  0.00     0.713 C 
HETATM    4  N2  UNL     1      14.559  -4.163   9.599  1.00  0.00    -0.130 N 
ATOM      5  H2  UNL     1      13.566  -4.386   9.674  1.00  0.00     0.205 HD
HETATM    6  N3  UNL     1      15.398  -4.960  10.095  1.00  0.00    -0.276 N 
ATOM      7  H3  UNL     1      16.403  -4.791  10.052  1.00  0.00     0.188 HD
HETATM    8  N5  UNL     1      14.290  -2.649   7.725  1.00  0.00    -0.223 N 
ATOM      9  H5  UNL     1      14.052  -1.682   7.504  1.00  0.00     0.177 HD
ENDROOT
BRANCH   1  10
HETATM   10  O2  UNL     1      16.187  -1.059   8.776  1.00  0.00    -0.185 OA
BRANCH  10  11
HETATM   11  C2  UNL     1      17.025  -0.140   9.376  1.00  0.00     0.278 C 
HETATM   12  C1  UNL     1      18.250   0.375   8.731  1.00  0.00     0.128 C 
HETATM   13  O1  UNL     1      16.737   0.281  10.523  1.00  0.00    -0.264 OA
ENDBRANCH  10  11
ENDBRANCH   1  10
BRANCH   8  14
HETATM   14  C8  UNL     1      13.965  -3.706   6.803  1.00  0.00     0.142 C 
BRANCH  14  15
HETATM   15  C9  UNL     1      14.461  -3.358   5.423  1.00  0.00    -0.004 C 
HETATM   16  C10 UNL     1      13.430  -2.541   4.707  1.00  0.00     0.011 C 
HETATM   17  C11 UNL     1      15.789  -2.640   5.565  1.00  0.00     0.011 C 
ENDBRANCH  14  15
ENDBRANCH   8  14
BRANCH   6  18
HETATM   18  C4  UNL     1      14.837  -6.135  10.732  1.00  0.00     0.143 A 
HETATM   19  S1  UNL     1      13.315  -6.864  10.531  1.00  0.00    -0.037 SA
HETATM   20  C5  UNL     1      13.506  -8.147  11.635  1.00  0.00     0.148 A 
HETATM   21  S2  UNL     1      12.436  -9.352  12.036  1.00  0.00    -0.052 SA
HETATM   22  N4  UNL     1      14.733  -7.965  12.114  1.00  0.00    -0.315 N 
HETATM   23  C6  UNL     1      15.264  -8.923  13.134  1.00  0.00     0.160 C 
HETATM   24  C7  UNL     1      15.432  -6.940  11.665  1.00  0.00     0.179 A 
BRANCH  24  25
HETATM   25  O3  UNL     1      16.764  -6.649  12.114  1.00  0.00    -0.344 OA
ATOM     26  H3  UNL     1      17.107  -7.083  12.887  1.00  0.00     0.219 HD
ENDBRANCH  24  25
ENDBRANCH   6  18
TORSDOF 6
ENDMDL
MODEL 2
REMARK VINA RESULT: -7.925070350      0.916      1.159
REMARK  6 active torsions:
REMARK  status: ('A' for Active; 'I' for Inactive)
REMARK    1  A    between atoms: C2_2  and  O2_4 
REMARK    2  A    between atoms: O2_4  and  N1_5 
REMARK       I    between atoms: C3_7  and  N2_8 
REMARK       I    between atoms: C3_7  and  N5_21 
REMARK    3  A    between atoms: N3_10  and  C4_12 
REMARK    4  A    between atoms: C7_18  and  O3_19 
REMARK    5  A    between atoms: N5_21  and  C8_23 
REMARK    6  A    between atoms: C8_23  and  C9_24 
ROOT
HETATM    1  N1  UNL     1      16.443  -2.246   9.009  1.00  0.00    -0.087 N 
ATOM      2  H1  UNL     1      16.971  -2.498   9.844  1.00  0.00     0.214 HD
HETATM    3  C3  UNL     1      15.441  -2.970   8.584  1.00  0.00     0.713 C 
HETATM    4  N2  UNL     1      15.072  -4.142   9.304  1.00  0.00    -0.130 N 
ATOM      5  H2  UNL     1      14.082  -4.320   9.477  1.00  0.00     0.205 HD
HETATM    6  N3  UNL     1      15.920  -4.967   9.736  1.00  0.00    -0.276 N 
ATOM      7  H3  UNL     1      16.923  -4.843   9.594  1.00  0.00     0.188 HD
HETATM    8  N5  UNL     1      14.692  -2.649   7.433  1.00  0.00    -0.223 N 
ATOM      9  H5  UNL     1      14.476  -1.676   7.215  1.00  0.00     0.177 HD
ENDROOT
BRANCH   1  10
HETATM   10  O2  UNL     1      16.746  -1.128   8.268  1.00  0.00    -0.185 OA
BRANCH  10  11
HETATM   11  C2  UNL     1      18.067  -0.891   7.940  1.00  0.00     0.278 C 
HETATM   12  C1  UNL     1      18.735   0.405   8.176  1.00  0.00     0.128 C 
HETATM   13  O1  UNL     1      18.735  -1.816   7.417  1.00  0.00    -0.264 OA
ENDBRANCH  10  11
ENDBRANCH   1  10
BRANCH   8  14
HETATM   14  C8  UNL     1      14.236  -3.706   6.568  1.00  0.00     0.142 C 
BRANCH  14  15
HETATM   15  C9  UNL     1      14.527  -3.358   5.130  1.00  0.00    -0.004 C 
HETATM   16  C10 UNL     1      13.320  -2.724   4.510  1.00  0.00     0.011 C 
HETATM   17  C11 UNL     1      15.748  -2.459   5.099  1.00  0.00     0.011 C 
ENDBRANCH  14  15
ENDBRANCH   8  14
BRANCH   6  18
HETATM   18  C4  UNL     1      15.373  -6.105  10.447  1.00  0.00     0.143 A 
HETATM   19  S1  UNL     1      13.859  -6.865  10.292  1.00  0.00    -0.037 SA
HETATM   20  C5  UNL     1      14.065  -8.071  11.476  1.00  0.00     0.148 A 
HETATM   21  S2  UNL     1      13.009  -9.261  11.953  1.00  0.00    -0.052 SA
HETATM   22  N4  UNL     1      15.288  -7.844  11.944  1.00  0.00    -0.315 N 
HETATM   23  C6  UNL     1      15.829  -8.727  13.024  1.00  0.00     0.160 C 
HETATM   24  C7  UNL     1      15.976  -6.840  11.430  1.00  0.00     0.179 A 
BRANCH  24  25
HETATM   25  O3  UNL     1      17.303  -6.506  11.861  1.00  0.00    -0.344 OA
ATOM     26  H3  UNL     1      17.490  -5.631  12.181  1.00  0.00     0.219 HD
ENDBRANCH  24  25
ENDBRANCH   6  18
TORSDOF 6
ENDMDL
MODEL 3
REMARK VINA RESULT: -7.877842876      1.524      1.806
REMARK  6 active torsions:
REMARK  status: ('A' for Active; 'I' for Inactive)
REMARK    1  A    between atoms: C2_2  and  O2_4 
REMARK    2  A    between atoms: O2_4  and  N1_5 
REMARK       I    between atoms: C3_7  and  N2_8 
REMARK       I    between atoms: C3_7  and  N5_21 
REMARK    3  A    between atoms: N3_10  and  C4_12 
REMARK    4  A    between atoms: C7_18  and  O3_19 
REMARK    5  A    between atoms: N5_21  and  C8_23 
REMARK    6  A    between atoms: C8_23  and  C9_24 
ROOT
HETATM    1  N1  UNL     1      15.697  -2.141   9.483  1.00  0.00    -0.087 N 
ATOM      2  H1  UNL     1      16.042  -2.399  10.407  1.00  0.00     0.214 HD
HETATM    3  C3  UNL     1      14.795  -2.853   8.861  1.00  0.00     0.713 C 
HETATM    4  N2  UNL     1      14.276  -4.021   9.487  1.00  0.00    -0.130 N 
ATOM      5  H2  UNL     1      13.269  -4.189   9.454  1.00  0.00     0.205 HD
HETATM    6  N3  UNL     1      15.010  -4.856  10.079  1.00  0.00    -0.276 N 
ATOM      7  H3  UNL     1      16.021  -4.744  10.145  1.00  0.00     0.188 HD
HETATM    8  N5  UNL     1      14.299  -2.522   7.583  1.00  0.00    -0.223 N 
ATOM      9  H5  UNL     1      14.142  -1.547   7.328  1.00  0.00     0.177 HD
ENDROOT
BRANCH   1  10
HETATM   10  O2  UNL     1      16.157  -1.025   8.823  1.00  0.00    -0.185 OA
BRANCH  10  11
HETATM   11  C2  UNL     1      17.025  -0.177   9.483  1.00  0.00     0.278 C 
HETATM   12  C1  UNL     1      18.227   0.399   8.847  1.00  0.00     0.128 C 
HETATM   13  O1  UNL     1      16.787   0.120  10.679  1.00  0.00    -0.264 OA
ENDBRANCH  10  11
ENDBRANCH   1  10
BRANCH   8  14
HETATM   14  C8  UNL     1      14.018  -3.573   6.639  1.00  0.00     0.142 C 
BRANCH  14  15
HETATM   15  C9  UNL     1      14.522  -3.188   5.272  1.00  0.00    -0.004 C 
HETATM   16  C10 UNL     1      13.497  -2.346   4.576  1.00  0.00     0.011 C 
HETATM   17  C11 UNL     1      15.852  -2.480   5.440  1.00  0.00     0.011 C 
ENDBRANCH  14  15
ENDBRANCH   8  14
BRANCH   6  18
HETATM   18  C4  UNL     1      14.317  -5.989  10.661  1.00  0.00     0.143 A 
HETATM   19  S1  UNL     1      14.655  -6.866  12.078  1.00  0.00    -0.037 SA
HETATM   20  C5  UNL     1      13.373  -7.983  11.989  1.00  0.00     0.148 A 
HETATM   21  S2  UNL     1      12.986  -9.218  13.032  1.00  0.00    -0.052 SA
HETATM   22  N4  UNL     1      12.734  -7.639  10.876  1.00  0.00    -0.315 N 
HETATM   23  C6  UNL     1      11.523  -8.415  10.462  1.00  0.00     0.160 C 
HETATM   24  C7  UNL     1      13.202  -6.619  10.179  1.00  0.00     0.179 A 
BRANCH  24  25
HETATM   25  O3  UNL     1      12.593  -6.163   8.963  1.00  0.00    -0.344 OA
ATOM     26  H3  UNL     1      12.127  -5.335   8.949  1.00  0.00     0.219 HD
ENDBRANCH  24  25
ENDBRANCH   6  18
TORSDOF 6
ENDMDL
MODEL 4
REMARK VINA RESULT: -7.864990010      1.050      1.238
REMARK  6 active torsions:
REMARK  status: ('A' for Active; 'I' for Inactive)
REMARK    1  A    between atoms: C2_2  and  O2_4 
REMARK    2  A    between atoms: O2_4  and  N1_5 
REMARK       I    between atoms: C3_7  and  N2_8 
REMARK       I    between atoms: C3_7  and  N5_21 
REMARK    3  A    between atoms: N3_10  and  C4_12 
REMARK    4  A    between atoms: C7_18  and  O3_19 
REMARK    5  A    between atoms: N5_21  and  C8_23 
REMARK    6  A    between atoms: C8_23  and  C9_24 
ROOT
HETATM    1  N1  UNL     1      15.424  -2.538   9.725  1.00  0.00    -0.087 N 
ATOM      2  H1  UNL     1      15.819  -2.684  10.654  1.00  0.00     0.214 HD
HETATM    3  C3  UNL     1      14.546  -3.359   9.213  1.00  0.00     0.713 C 
HETATM    4  N2  UNL     1      14.126  -4.491   9.968  1.00  0.00    -0.130 N 
ATOM      5  H2  UNL     1      13.132  -4.721   9.995  1.00  0.00     0.205 HD
HETATM    6  N3  UNL     1      14.934  -5.219  10.604  1.00  0.00    -0.276 N 
ATOM      7  H3  UNL     1      15.938  -5.040  10.614  1.00  0.00     0.188 HD
HETATM    8  N5  UNL     1      13.982  -3.184   7.932  1.00  0.00    -0.223 N 
ATOM      9  H5  UNL     1      13.753  -2.249   7.594  1.00  0.00     0.177 HD
ENDROOT
BRANCH   1  10
HETATM   10  O2  UNL     1      15.785  -1.465   8.943  1.00  0.00    -0.185 OA
BRANCH  10  11
HETATM   11  C2  UNL     1      16.740  -0.589   9.424  1.00  0.00     0.278 C 
HETATM   12  C1  UNL     1      17.930  -0.190   8.646  1.00  0.00     0.128 C 
HETATM   13  O1  UNL     1      16.593  -0.108  10.574  1.00  0.00    -0.264 OA
ENDBRANCH  10  11
ENDBRANCH   1  10
BRANCH   8  14
HETATM   14  C8  UNL     1      13.733  -4.336   7.105  1.00  0.00     0.142 C 
BRANCH  14  15
HETATM   15  C9  UNL     1      14.896  -4.566   6.175  1.00  0.00    -0.004 C 
HETATM   16  C10 UNL     1      15.539  -3.255   5.838  1.00  0.00     0.011 C 
HETATM   17  C11 UNL     1      15.851  -5.537   6.841  1.00  0.00     0.011 C 
ENDBRANCH  14  15
ENDBRANCH   8  14
BRANCH   6  18
HETATM   18  C4  UNL     1      14.338  -6.330  11.319  1.00  0.00     0.143 A 
HETATM   19  S1  UNL     1      13.033  -7.333  10.888  1.00  0.00    -0.037 SA
HETATM   20  C5  UNL     1      13.022  -8.331  12.267  1.00  0.00     0.148 A 
HETATM   21  S2  UNL     1      12.017  -9.603  12.631  1.00  0.00    -0.052 SA
HETATM   22  N4  UNL     1      14.021  -7.857  13.004  1.00  0.00    -0.315 N 
HETATM   23  C6  UNL     1      14.322  -8.500  14.322  1.00  0.00     0.160 C 
HETATM   24  C7  UNL     1      14.709  -6.831  12.537  1.00  0.00     0.179 A 
BRANCH  24  25
HETATM   25  O3  UNL     1      15.804  -6.239  13.249  1.00  0.00    -0.344 OA
ATOM     26  H3  UNL     1      16.592  -6.745  13.409  1.00  0.00     0.219 HD
ENDBRANCH  24  25
ENDBRANCH   6  18
TORSDOF 6
ENDMDL
MODEL 5
REMARK VINA RESULT: -7.853331902      1.185      1.445
REMARK  6 active torsions:
REMARK  status: ('A' for Active; 'I' for Inactive)
REMARK    1  A    between atoms: C2_2  and  O2_4 
REMARK    2  A    between atoms: O2_4  and  N1_5 
REMARK       I    between atoms: C3_7  and  N2_8 
REMARK       I    between atoms: C3_7  and  N5_21 
REMARK    3  A    between atoms: N3_10  and  C4_12 
REMARK    4  A    between atoms: C7_18  and  O3_19 
REMARK    5  A    between atoms: N5_21  and  C8_23 
REMARK    6  A    between atoms: C8_23  and  C9_24 
ROOT
HETATM    1  N1  UNL     1      17.166  -2.910   8.983  1.00  0.00    -0.087 N 
ATOM      2  H1  UNL     1      17.519  -3.037   9.931  1.00  0.00     0.214 HD
HETATM    3  C3  UNL     1      16.246  -3.691   8.480  1.00  0.00     0.713 C 
HETATM    4  N2  UNL     1      15.720  -4.750   9.273  1.00  0.00    -0.130 N 
ATOM      5  H2  UNL     1      14.712  -4.906   9.276  1.00  0.00     0.205 HD
HETATM    6  N3  UNL     1      16.451  -5.501   9.972  1.00  0.00    -0.276 N 
ATOM      7  H3  UNL     1      17.465  -5.395  10.010  1.00  0.00     0.188 HD
HETATM    8  N5  UNL     1      15.739  -3.542   7.172  1.00  0.00    -0.223 N 
ATOM      9  H5  UNL     1      15.590  -2.611   6.782  1.00  0.00     0.177 HD
ENDROOT
BRANCH   1  10
HETATM   10  O2  UNL     1      17.631  -1.908   8.163  1.00  0.00    -0.185 OA
BRANCH  10  11
HETATM   11  C2  UNL     1      17.542  -0.601   8.602  1.00  0.00     0.278 C 
HETATM   12  C1  UNL     1      18.587   0.409   8.337  1.00  0.00     0.128 C 
HETATM   13  O1  UNL     1      16.530  -0.251   9.257  1.00  0.00    -0.264 OA
ENDBRANCH  10  11
ENDBRANCH   1  10
BRANCH   8  14
HETATM   14  C8  UNL     1      15.432  -4.714   6.394  1.00  0.00     0.142 C 
BRANCH  14  15
HETATM   15  C9  UNL     1      14.037  -4.609   5.831  1.00  0.00    -0.004 C 
HETATM   16  C10 UNL     1      13.054  -5.165   6.815  1.00  0.00     0.011 C 
HETATM   17  C11 UNL     1      13.773  -3.156   5.489  1.00  0.00     0.011 C 
ENDBRANCH  14  15
ENDBRANCH   8  14
BRANCH   6  18
HETATM   18  C4  UNL     1      15.752  -6.528  10.719  1.00  0.00     0.143 A 
HETATM   19  S1  UNL     1      14.231  -7.236  10.440  1.00  0.00    -0.037 SA
HETATM   20  C5  UNL     1      14.211  -8.309  11.762  1.00  0.00     0.148 A 
HETATM   21  S2  UNL     1      13.036  -9.392  12.214  1.00  0.00    -0.052 SA
HETATM   22  N4  UNL     1      15.373  -8.082  12.366  1.00  0.00    -0.315 N 
HETATM   23  C6  UNL     1      15.718  -8.861  13.597  1.00  0.00     0.160 C 
HETATM   24  C7  UNL     1      16.178  -7.173  11.847  1.00  0.00     0.179 A 
BRANCH  24  25
HETATM   25  O3  UNL     1      17.455  -6.848  12.416  1.00  0.00    -0.344 OA
ATOM     26  H3  UNL     1      18.248  -7.202  12.032  1.00  0.00     0.219 HD
ENDBRANCH  24  25
ENDBRANCH   6  18
TORSDOF 6
ENDMDL
