MODEL 1
REMARK VINA RESULT: -6.804823999      0.000      0.000
REMARK  4 active torsions:
REMARK  status: ('A' for Active; 'I' for Inactive)
REMARK    1  A    between atoms: C2_2  and  O1_3 
REMARK    2  A    between atoms: O1_3  and  C3_4 
REMARK    3  A    between atoms: C9_19  and  S2_20 
REMARK    4  A    between atoms: S2_20  and  C10_21 
ROOT
HETATM    1  C3  UNL     1      14.460  -6.495  12.015  1.00  0.00     0.155 C 
HETATM    2  C4  UNL     1      14.877  -6.248  10.581  1.00  0.00     0.092 C 
HETATM    3  C5  UNL     1      13.581  -6.257   9.841  1.00  0.00     0.231 C 
HETATM    4  N1  UNL     1      12.525  -6.088  10.817  1.00  0.00    -0.044 N 
ATOM      5  H11 UNL     1      11.596  -6.349  10.485  1.00  0.00     0.280 HD
ATOM      6  H12 UNL     1      12.292  -5.116  11.025  1.00  0.00     0.280 HD
HETATM    7  C6  UNL     1      12.989  -6.841  11.938  1.00  0.00     0.213 C 
HETATM    8  C7  UNL     1      12.810  -8.308  11.707  1.00  0.00     0.043 C 
HETATM    9  S1  UNL     1      13.336  -7.762   8.861  1.00  0.00    -0.048 SA
HETATM   10  C8  UNL     1      12.711  -6.897   7.432  1.00  0.00     0.141 C 
HETATM   11  N2  UNL     1      12.072  -7.400   6.467  1.00  0.00    -0.380 N 
ATOM     12  H21 UNL     1      11.715  -6.905   5.650  1.00  0.00     0.158 HD
ATOM     13  H22 UNL     1      11.789  -8.365   6.298  1.00  0.00     0.158 HD
HETATM   14  N3  UNL     1      13.095  -5.590   7.660  1.00  0.00    -0.332 N 
ATOM     15  H3  UNL     1      13.034  -4.910   6.901  1.00  0.00     0.168 HD
HETATM   16  C9  UNL     1      13.515  -5.227   8.774  1.00  0.00     0.101 C 
ENDROOT
BRANCH  16  17
HETATM   17  S2  UNL     1      14.050  -3.532   9.186  1.00  0.00    -0.065 SA
BRANCH  17  18
HETATM   18  C10 UNL     1      15.721  -3.317   8.533  1.00  0.00     0.061 A 
HETATM   19  C11 UNL     1      16.569  -2.260   8.478  1.00  0.00     0.084 A 
HETATM   20  S3  UNL     1      17.902  -2.919   7.714  1.00  0.00    -0.062 SA
HETATM   21  S4  UNL     1      16.692  -4.508   7.769  1.00  0.00    -0.045 SA
ENDBRANCH  17  18
ENDBRANCH  16  17
BRANCH   1  22
HETATM   22  O1  UNL     1      15.118  -7.570  12.589  1.00  0.00    -0.384 OA
BRANCH  22  23
HETATM   23  C2  UNL     1      15.714  -7.171  13.788  1.00  0.00     0.163 C 
HETATM   24  C1  UNL     1      14.993  -7.661  14.999  1.00  0.00     0.033 C 
ENDBRANCH  22  23
ENDBRANCH   1  22
TORSDOF 4
ENDMDL
MODEL 2
REMARK VINA RESULT: -6.674320003      0.958      1.117
REMARK  4 active torsions:
REMARK  status: ('A' for Active; 'I' for Inactive)
REMARK    1  A    between atoms: C2_2  and  O1_3 
REMARK    2  A    between atoms: O1_3  and  C3_4 
REMARK    3  A    between atoms: C9_19  and  S2_20 
REMARK    4  A    between atoms: S2_20  and  C10_21 
ROOT
HETATM    1  C3  UNL     1      14.268  -6.249  12.015  1.00  0.00     0.155 C 
HETATM    2  C4  UNL     1      14.766  -6.064  10.597  1.00  0.00     0.092 C 
HETATM    3  C5  UNL     1      13.513  -6.107   9.786  1.00  0.00     0.231 C 
HETATM    4  N1  UNL     1      12.404  -5.897  10.692  1.00  0.00    -0.044 N 
ATOM      5  H11 UNL     1      11.495  -6.174  10.321  1.00  0.00     0.280 HD
ATOM      6  H12 UNL     1      12.161  -4.918  10.845  1.00  0.00     0.280 HD
HETATM    7  C6  UNL     1      12.803  -6.601  11.870  1.00  0.00     0.213 C 
HETATM    8  C7  UNL     1      12.637  -8.077  11.692  1.00  0.00     0.043 C 
HETATM    9  S1  UNL     1      13.323  -7.653   8.859  1.00  0.00    -0.048 SA
HETATM   10  C8  UNL     1      12.779  -6.852   7.361  1.00  0.00     0.141 C 
HETATM   11  N2  UNL     1      12.196  -7.397   6.384  1.00  0.00    -0.380 N 
ATOM     12  H21 UNL     1      11.885  -6.938   5.528  1.00  0.00     0.158 HD
ATOM     13  H22 UNL     1      11.921  -8.368   6.242  1.00  0.00     0.158 HD
HETATM   14  N3  UNL     1      13.152  -5.535   7.554  1.00  0.00    -0.332 N 
ATOM     15  H3  UNL     1      13.134  -4.889   6.765  1.00  0.00     0.168 HD
HETATM   16  C9  UNL     1      13.508  -5.124   8.674  1.00  0.00     0.101 C 
ENDROOT
BRANCH  16  17
HETATM   17  S2  UNL     1      14.021  -3.412   9.041  1.00  0.00    -0.065 SA
BRANCH  17  18
HETATM   18  C10 UNL     1      15.740  -3.235   8.513  1.00  0.00     0.061 A 
HETATM   19  C11 UNL     1      16.666  -4.113   8.053  1.00  0.00     0.084 A 
HETATM   20  S3  UNL     1      17.991  -3.125   7.800  1.00  0.00    -0.062 SA
HETATM   21  S4  UNL     1      16.665  -1.790   8.473  1.00  0.00    -0.045 SA
ENDBRANCH  17  18
ENDBRANCH  16  17
BRANCH   1  22
HETATM   22  O1  UNL     1      14.892  -7.298  12.671  1.00  0.00    -0.384 OA
BRANCH  22  23
HETATM   23  C2  UNL     1      16.234  -7.357  12.291  1.00  0.00     0.163 C 
HETATM   24  C1  UNL     1      16.981  -8.480  12.931  1.00  0.00     0.033 C 
ENDBRANCH  22  23
ENDBRANCH   1  22
TORSDOF 4
ENDMDL
MODEL 3
REMARK VINA RESULT: -6.659457306      1.188      1.271
REMARK  4 active torsions:
REMARK  status: ('A' for Active; 'I' for Inactive)
REMARK    1  A    between atoms: C2_2  and  O1_3 
REMARK    2  A    between atoms: O1_3  and  C3_4 
REMARK    3  A    between atoms: C9_19  and  S2_20 
REMARK    4  A    between atoms: S2_20  and  C10_21 
ROOT
HETATM    1  C3  UNL     1      14.545  -6.643  12.030  1.00  0.00     0.155 C 
HETATM    2  C4  UNL     1      14.780  -6.500  10.541  1.00  0.00     0.092 C 
HETATM    3  C5  UNL     1      13.398  -6.387   9.986  1.00  0.00     0.231 C 
HETATM    4  N1  UNL     1      12.516  -6.060  11.087  1.00  0.00    -0.044 N 
ATOM      5  H11 UNL     1      11.527  -6.225  10.899  1.00  0.00     0.280 HD
ATOM      6  H12 UNL     1      12.423  -5.062  11.273  1.00  0.00     0.280 HD
HETATM    7  C6  UNL     1      13.049  -6.820  12.173  1.00  0.00     0.213 C 
HETATM    8  C7  UNL     1      12.680  -8.265  12.046  1.00  0.00     0.043 C 
HETATM    9  S1  UNL     1      12.855  -7.889   9.130  1.00  0.00    -0.048 SA
HETATM   10  C8  UNL     1      12.131  -7.011   7.755  1.00  0.00     0.141 C 
HETATM   11  N2  UNL     1      11.312  -7.472   6.915  1.00  0.00    -0.380 N 
ATOM     12  H21 UNL     1      10.898  -6.970   6.129  1.00  0.00     0.158 HD
ATOM     13  H22 UNL     1      10.903  -8.404   6.837  1.00  0.00     0.158 HD
HETATM   14  N3  UNL     1      12.684  -5.749   7.860  1.00  0.00    -0.332 N 
ATOM     15  H3  UNL     1      12.591  -5.096   7.082  1.00  0.00     0.168 HD
HETATM   16  C9  UNL     1      13.295  -5.396   8.886  1.00  0.00     0.101 C 
ENDROOT
BRANCH  16  17
HETATM   17  S2  UNL     1      14.064  -3.760   9.130  1.00  0.00    -0.065 SA
BRANCH  17  18
HETATM   18  C10 UNL     1      14.729  -3.230   7.536  1.00  0.00     0.061 A 
HETATM   19  C11 UNL     1      14.154  -2.900   6.352  1.00  0.00     0.084 A 
HETATM   20  S3  UNL     1      15.483  -2.530   5.408  1.00  0.00    -0.062 SA
HETATM   21  S4  UNL     1      16.381  -3.006   7.128  1.00  0.00    -0.045 SA
ENDBRANCH  17  18
ENDBRANCH  16  17
BRANCH   1  22
HETATM   22  O1  UNL     1      15.156  -7.765  12.565  1.00  0.00    -0.384 OA
BRANCH  22  23
HETATM   23  C2  UNL     1      16.193  -7.375  13.416  1.00  0.00     0.163 C 
HETATM   24  C1  UNL     1      15.725  -6.990  14.780  1.00  0.00     0.033 C 
ENDBRANCH  22  23
ENDBRANCH   1  22
TORSDOF 4
ENDMDL
MODEL 4
REMARK VINA RESULT: -6.647799704      1.344      1.612
REMARK  4 active torsions:
REMARK  status: ('A' for Active; 'I' for Inactive)
REMARK    1  A    between atoms: C2_2  and  O1_3 
REMARK    2  A    between atoms: O1_3  and  C3_4 
REMARK    3  A    between atoms: C9_19  and  S2_20 
REMARK    4  A    between atoms: S2_20  and  C10_21 
ROOT
HETATM    1  C3  UNL     1      15.094  -6.819  11.219  1.00  0.00     0.155 C 
HETATM    2  C4  UNL     1      14.746  -7.363   9.850  1.00  0.00     0.092 C 
HETATM    3  C5  UNL     1      13.772  -6.362   9.321  1.00  0.00     0.231 C 
HETATM    4  N1  UNL     1      13.902  -5.166  10.127  1.00  0.00    -0.044 N 
ATOM      5  H11 UNL     1      13.118  -4.518  10.052  1.00  0.00     0.280 HD
ATOM      6  H12 UNL     1      14.612  -4.510   9.800  1.00  0.00     0.280 HD
HETATM    7  C6  UNL     1      14.126  -5.677  11.442  1.00  0.00     0.213 C 
HETATM    8  C7  UNL     1      12.853  -6.183  12.043  1.00  0.00     0.043 C 
HETATM    9  S1  UNL     1      12.065  -6.970   9.316  1.00  0.00    -0.048 SA
HETATM   10  C8  UNL     1      11.694  -6.328   7.693  1.00  0.00     0.141 C 
HETATM   11  N2  UNL     1      10.548  -6.162   7.193  1.00  0.00    -0.380 N 
ATOM     12  H21 UNL     1      10.336  -5.795   6.266  1.00  0.00     0.158 HD
ATOM     13  H22 UNL     1       9.625  -6.351   7.586  1.00  0.00     0.158 HD
HETATM   14  N3  UNL     1      12.943  -6.073   7.161  1.00  0.00    -0.332 N 
ATOM     15  H3  UNL     1      13.032  -5.880   6.163  1.00  0.00     0.168 HD
HETATM   16  C9  UNL     1      13.961  -6.076   7.877  1.00  0.00     0.101 C 
ENDROOT
BRANCH  16  17
HETATM   17  S2  UNL     1      15.656  -5.754   7.282  1.00  0.00    -0.065 SA
BRANCH  17  18
HETATM   18  C10 UNL     1      16.083  -4.062   7.749  1.00  0.00     0.061 A 
HETATM   19  C11 UNL     1      17.191  -3.498   8.291  1.00  0.00     0.084 A 
HETATM   20  S3  UNL     1      16.750  -1.889   8.398  1.00  0.00    -0.062 SA
HETATM   21  S4  UNL     1      15.093  -2.668   7.599  1.00  0.00    -0.045 SA
ENDBRANCH  17  18
ENDBRANCH  16  17
BRANCH   1  22
HETATM   22  O1  UNL     1      14.896  -7.744  12.231  1.00  0.00    -0.384 OA
BRANCH  22  23
HETATM   23  C2  UNL     1      15.969  -7.701  13.124  1.00  0.00     0.163 C 
HETATM   24  C1  UNL     1      15.570  -7.323  14.511  1.00  0.00     0.033 C 
ENDBRANCH  22  23
ENDBRANCH   1  22
TORSDOF 4
ENDMDL
MODEL 5
REMARK VINA RESULT: -6.578435162      2.828      4.472
REMARK  4 active torsions:
REMARK  status: ('A' for Active; 'I' for Inactive)
REMARK    1  A    between atoms: C2_2  and  O1_3 
REMARK    2  A    between atoms: O1_3  and  C3_4 
REMARK    3  A    between atoms: C9_19  and  S2_20 
REMARK    4  A    between atoms: S2_20  and  C10_21 
ROOT
HETATM    1  C3  UNL     1      11.714  -8.084   9.560  1.00  0.00     0.155 C 
HETATM    2  C4  UNL     1      12.456  -6.836   9.988  1.00  0.00     0.092 C 
HETATM    3  C5  UNL     1      13.661  -7.376  10.685  1.00  0.00     0.231 C 
HETATM    4  N1  UNL     1      13.796  -8.765  10.301  1.00  0.00    -0.044 N 
ATOM      5  H11 UNL     1      14.401  -9.316  10.909  1.00  0.00     0.280 HD
ATOM      6  H12 UNL     1      14.335  -8.919   9.449  1.00  0.00     0.280 HD
HETATM    7  C6  UNL     1      12.443  -9.222  10.239  1.00  0.00     0.213 C 
HETATM    8  C7  UNL     1      11.892  -9.449  11.611  1.00  0.00     0.043 C 
HETATM    9  S1  UNL     1      13.576  -7.197  12.487  1.00  0.00    -0.048 SA
HETATM   10  C8  UNL     1      15.267  -6.656  12.653  1.00  0.00     0.141 C 
HETATM   11  N2  UNL     1      15.949  -6.630  13.714  1.00  0.00    -0.380 N 
ATOM     12  H21 UNL     1      16.916  -6.321  13.809  1.00  0.00     0.158 HD
ATOM     13  H22 UNL     1      15.695  -6.897  14.665  1.00  0.00     0.158 HD
HETATM   14  N3  UNL     1      15.611  -6.294  11.365  1.00  0.00    -0.332 N 
ATOM     15  H3  UNL     1      16.468  -5.763  11.205  1.00  0.00     0.168 HD
HETATM   16  C9  UNL     1      14.894  -6.603  10.396  1.00  0.00     0.101 C 
ENDROOT
BRANCH  16  17
HETATM   17  S2  UNL     1      15.250  -6.177   8.657  1.00  0.00    -0.065 SA
BRANCH  17  18
HETATM   18  C10 UNL     1      15.393  -4.379   8.558  1.00  0.00     0.061 A 
HETATM   19  C11 UNL     1      16.441  -3.538   8.367  1.00  0.00     0.084 A 
HETATM   20  S3  UNL     1      15.701  -2.040   8.412  1.00  0.00    -0.062 SA
HETATM   21  S4  UNL     1      14.124  -3.232   8.697  1.00  0.00    -0.045 SA
ENDBRANCH  17  18
ENDBRANCH  16  17
BRANCH   1  22
HETATM   22  O1  UNL     1      10.399  -8.103   9.996  1.00  0.00    -0.384 OA
BRANCH  22  23
HETATM   23  C2  UNL     1       9.607  -8.785   9.071  1.00  0.00     0.163 C 
HETATM   24  C1  UNL     1       8.434  -9.472   9.688  1.00  0.00     0.033 C 
ENDBRANCH  22  23
ENDBRANCH   1  22
TORSDOF 4
ENDMDL
