MODEL 1
REMARK VINA RESULT: -7.684706609      0.000      0.000
REMARK  6 active torsions:
REMARK  status: ('A' for Active; 'I' for Inactive)
REMARK    1  A    between atoms: S1_2  and  C2_3 
REMARK    2  A    between atoms: C4_5  and  C5_6 
REMARK    3  A    between atoms: C5_6  and  N1_7 
REMARK    4  A    between atoms: N1_7  and  O1_9 
REMARK    5  A    between atoms: O1_9  and  C6_10 
REMARK    6  A    between atoms: C6_10  and  C9_14 
ROOT
HETATM    1  C6  UNL     1      27.248  43.573  10.795  1.00  0.00     0.090 C 
HETATM    2  C7  UNL     1      26.172  44.261  10.595  1.00  0.00     0.128 C 
HETATM    3  C8  UNL     1      25.189  44.005   9.592  1.00  0.00     0.090 C 
HETATM    4  N2  UNL     1      24.356  43.822   8.776  1.00  0.00    -0.192 NA
ENDROOT
BRANCH   1   5
HETATM    5  O1  UNL     1      28.067  44.051  11.878  1.00  0.00    -0.242 OA
BRANCH   5   6
HETATM    6  N1  UNL     1      27.529  44.787  12.874  1.00  0.00    -0.271 N 
ATOM      7  H1  UNL     1      26.514  44.761  12.980  1.00  0.00     0.194 HD
BRANCH   6   8
HETATM    8  C5  UNL     1      28.183  45.509  13.693  1.00  0.00     0.128 C 
BRANCH   8   9
HETATM    9  C4  UNL     1      27.841  46.944  13.912  1.00  0.00     0.014 A 
HETATM   10  C3  UNL     1      27.783  47.506  15.132  1.00  0.00     0.041 A 
HETATM   11  C2  UNL     1      27.459  48.827  15.203  1.00  0.00     0.043 A 
HETATM   12  S2  UNL     1      27.241  49.268  13.571  1.00  0.00    -0.068 SA
HETATM   13  C15 UNL     1      27.567  47.763  12.843  1.00  0.00     0.100 A 
HETATM   14  N3  UNL     1      27.562  47.412  11.448  1.00  0.00    -0.093 NA
BRANCH  11  15
HETATM   15  S1  UNL     1      27.304  49.848  16.695  1.00  0.00    -0.127 SA
HETATM   16  C1  UNL     1      26.057  51.119  16.403  1.00  0.00     0.096 C 
ENDBRANCH  11  15
ENDBRANCH   8   9
ENDBRANCH   6   8
ENDBRANCH   5   6
ENDBRANCH   1   5
BRANCH   1  17
HETATM   17  C9  UNL     1      27.803  42.401  10.136  1.00  0.00     0.046 C 
HETATM   18  C10 UNL     1      27.046  41.129  10.193  1.00  0.00     0.011 C 
HETATM   19  C11 UNL     1      27.673  40.109   9.239  1.00  0.00     0.001 C 
HETATM   20  C12 UNL     1      29.108  40.450   8.933  1.00  0.00     0.000 C 
HETATM   21  C13 UNL     1      29.851  40.974  10.137  1.00  0.00     0.001 C 
HETATM   22  C14 UNL     1      29.233  42.246  10.649  1.00  0.00     0.011 C 
ENDBRANCH   1  17
TORSDOF 6
ENDMDL
MODEL 2
REMARK VINA RESULT: -7.682660956      2.031      2.693
REMARK  6 active torsions:
REMARK  status: ('A' for Active; 'I' for Inactive)
REMARK    1  A    between atoms: S1_2  and  C2_3 
REMARK    2  A    between atoms: C4_5  and  C5_6 
REMARK    3  A    between atoms: C5_6  and  N1_7 
REMARK    4  A    between atoms: N1_7  and  O1_9 
REMARK    5  A    between atoms: O1_9  and  C6_10 
REMARK    6  A    between atoms: C6_10  and  C9_14 
ROOT
HETATM    1  C6  UNL     1      26.144  42.955   9.658  1.00  0.00     0.090 C 
HETATM    2  C7  UNL     1      25.097  43.145   8.925  1.00  0.00     0.128 C 
HETATM    3  C8  UNL     1      24.809  42.487   7.690  1.00  0.00     0.090 C 
HETATM    4  N2  UNL     1      24.539  41.963   6.667  1.00  0.00    -0.192 NA
ENDROOT
BRANCH   1   5
HETATM    5  O1  UNL     1      26.182  43.751  10.858  1.00  0.00    -0.242 OA
BRANCH   5   6
HETATM    6  N1  UNL     1      25.792  45.043  10.838  1.00  0.00    -0.271 N 
ATOM      7  H1  UNL     1      24.793  45.230  10.745  1.00  0.00     0.194 HD
BRANCH   6   8
HETATM    8  C5  UNL     1      26.568  46.048  10.925  1.00  0.00     0.128 C 
BRANCH   8   9
HETATM    9  C4  UNL     1      27.158  46.465  12.230  1.00  0.00     0.014 A 
HETATM   10  C3  UNL     1      27.603  45.588  13.147  1.00  0.00     0.041 A 
HETATM   11  C2  UNL     1      28.121  46.092  14.301  1.00  0.00     0.043 A 
HETATM   12  S2  UNL     1      27.982  47.778  14.094  1.00  0.00    -0.068 SA
HETATM   13  C15 UNL     1      27.270  47.797  12.547  1.00  0.00     0.100 A 
HETATM   14  N3  UNL     1      26.873  48.925  11.747  1.00  0.00    -0.093 NA
BRANCH  11  15
HETATM   15  S1  UNL     1      28.792  45.164  15.709  1.00  0.00    -0.127 SA
HETATM   16  C1  UNL     1      30.566  45.478  15.820  1.00  0.00     0.096 C 
ENDBRANCH  11  15
ENDBRANCH   8   9
ENDBRANCH   6   8
ENDBRANCH   5   6
ENDBRANCH   1   5
BRANCH   1  17
HETATM   17  C9  UNL     1      27.305  42.090   9.511  1.00  0.00     0.046 C 
HETATM   18  C10 UNL     1      27.114  40.625   9.595  1.00  0.00     0.011 C 
HETATM   19  C11 UNL     1      28.398  39.908   9.169  1.00  0.00     0.001 C 
HETATM   20  C12 UNL     1      29.600  40.808   9.298  1.00  0.00     0.000 C 
HETATM   21  C13 UNL     1      29.545  41.677  10.530  1.00  0.00     0.001 C 
HETATM   22  C14 UNL     1      28.354  42.596  10.500  1.00  0.00     0.011 C 
ENDBRANCH   1  17
TORSDOF 6
ENDMDL
MODEL 3
REMARK VINA RESULT: -7.647500567      1.492      2.327
REMARK  6 active torsions:
REMARK  status: ('A' for Active; 'I' for Inactive)
REMARK    1  A    between atoms: S1_2  and  C2_3 
REMARK    2  A    between atoms: C4_5  and  C5_6 
REMARK    3  A    between atoms: C5_6  and  N1_7 
REMARK    4  A    between atoms: N1_7  and  O1_9 
REMARK    5  A    between atoms: O1_9  and  C6_10 
REMARK    6  A    between atoms: C6_10  and  C9_14 
ROOT
HETATM    1  C6  UNL     1      27.281  43.487  10.733  1.00  0.00     0.090 C 
HETATM    2  C7  UNL     1      26.216  44.190  10.530  1.00  0.00     0.128 C 
HETATM    3  C8  UNL     1      25.237  43.951   9.519  1.00  0.00     0.090 C 
HETATM    4  N2  UNL     1      24.407  43.783   8.696  1.00  0.00    -0.192 NA
ENDROOT
BRANCH   1   5
HETATM    5  O1  UNL     1      28.100  43.949  11.824  1.00  0.00    -0.242 OA
BRANCH   5   6
HETATM    6  N1  UNL     1      27.549  44.230  13.025  1.00  0.00    -0.271 N 
ATOM      7  H1  UNL     1      26.726  43.694  13.300  1.00  0.00     0.194 HD
BRANCH   6   8
HETATM    8  C5  UNL     1      27.974  45.108  13.842  1.00  0.00     0.128 C 
BRANCH   8   9
HETATM    9  C4  UNL     1      27.621  46.549  13.690  1.00  0.00     0.014 A 
HETATM   10  C3  UNL     1      26.840  47.011  12.699  1.00  0.00     0.041 A 
HETATM   11  C2  UNL     1      26.589  48.350  12.666  1.00  0.00     0.043 A 
HETATM   12  S2  UNL     1      27.443  48.945  14.015  1.00  0.00    -0.068 SA
HETATM   13  C15 UNL     1      28.096  47.478  14.585  1.00  0.00     0.100 A 
HETATM   14  N3  UNL     1      28.942  47.245  15.725  1.00  0.00    -0.093 NA
BRANCH  11  15
HETATM   15  S1  UNL     1      25.581  49.256  11.459  1.00  0.00    -0.127 SA
HETATM   16  C1  UNL     1      24.350  48.131  10.769  1.00  0.00     0.096 C 
ENDBRANCH  11  15
ENDBRANCH   8   9
ENDBRANCH   6   8
ENDBRANCH   5   6
ENDBRANCH   1   5
BRANCH   1  17
HETATM   17  C9  UNL     1      27.825  42.310  10.073  1.00  0.00     0.046 C 
HETATM   18  C10 UNL     1      27.065  41.041  10.144  1.00  0.00     0.011 C 
HETATM   19  C11 UNL     1      27.678  40.015   9.187  1.00  0.00     0.001 C 
HETATM   20  C12 UNL     1      29.111  40.351   8.862  1.00  0.00     0.000 C 
HETATM   21  C13 UNL     1      29.869  40.878  10.055  1.00  0.00     0.001 C 
HETATM   22  C14 UNL     1      29.262  42.154  10.569  1.00  0.00     0.011 C 
ENDBRANCH   1  17
TORSDOF 6
ENDMDL
MODEL 4
REMARK VINA RESULT: -7.588630108      1.315      1.786
REMARK  6 active torsions:
REMARK  status: ('A' for Active; 'I' for Inactive)
REMARK    1  A    between atoms: S1_2  and  C2_3 
REMARK    2  A    between atoms: C4_5  and  C5_6 
REMARK    3  A    between atoms: C5_6  and  N1_7 
REMARK    4  A    between atoms: N1_7  and  O1_9 
REMARK    5  A    between atoms: O1_9  and  C6_10 
REMARK    6  A    between atoms: C6_10  and  C9_14 
ROOT
HETATM    1  C6  UNL     1      26.894  42.799  10.844  1.00  0.00     0.090 C 
HETATM    2  C7  UNL     1      25.804  43.420  10.533  1.00  0.00     0.128 C 
HETATM    3  C8  UNL     1      25.157  43.387   9.261  1.00  0.00     0.090 C 
HETATM    4  N2  UNL     1      24.594  43.381   8.223  1.00  0.00    -0.192 NA
ENDROOT
BRANCH   1   5
HETATM    5  O1  UNL     1      27.329  43.006  12.201  1.00  0.00    -0.242 OA
BRANCH   5   6
HETATM    6  N1  UNL     1      27.204  44.217  12.786  1.00  0.00    -0.271 N 
ATOM      7  H1  UNL     1      26.354  44.392  13.323  1.00  0.00     0.194 HD
BRANCH   6   8
HETATM    8  C5  UNL     1      28.059  45.157  12.723  1.00  0.00     0.128 C 
BRANCH   8   9
HETATM    9  C4  UNL     1      27.906  46.405  13.525  1.00  0.00     0.014 A 
HETATM   10  C3  UNL     1      27.530  47.579  12.989  1.00  0.00     0.041 A 
HETATM   11  C2  UNL     1      27.425  48.649  13.826  1.00  0.00     0.043 A 
HETATM   12  S2  UNL     1      27.850  48.005  15.345  1.00  0.00    -0.068 SA
HETATM   13  C15 UNL     1      28.149  46.395  14.878  1.00  0.00     0.100 A 
HETATM   14  N3  UNL     1      28.559  45.278  15.687  1.00  0.00    -0.093 NA
BRANCH  11  15
HETATM   15  S1  UNL     1      26.946  50.345  13.395  1.00  0.00    -0.127 SA
HETATM   16  C1  UNL     1      27.653  51.476  14.611  1.00  0.00     0.096 C 
ENDBRANCH  11  15
ENDBRANCH   8   9
ENDBRANCH   6   8
ENDBRANCH   5   6
ENDBRANCH   1   5
BRANCH   1  17
HETATM   17  C9  UNL     1      27.779  41.926  10.089  1.00  0.00     0.046 C 
HETATM   18  C10 UNL     1      27.442  40.488   9.989  1.00  0.00     0.011 C 
HETATM   19  C11 UNL     1      28.351  39.812   8.959  1.00  0.00     0.001 C 
HETATM   20  C12 UNL     1      29.617  40.600   8.740  1.00  0.00     0.000 C 
HETATM   21  C13 UNL     1      30.163  41.189  10.017  1.00  0.00     0.001 C 
HETATM   22  C14 UNL     1      29.188  42.154  10.635  1.00  0.00     0.011 C 
ENDBRANCH   1  17
TORSDOF 6
ENDMDL
MODEL 5
REMARK VINA RESULT: -7.549101513      2.762      3.914
REMARK  6 active torsions:
REMARK  status: ('A' for Active; 'I' for Inactive)
REMARK    1  A    between atoms: S1_2  and  C2_3 
REMARK    2  A    between atoms: C4_5  and  C5_6 
REMARK    3  A    between atoms: C5_6  and  N1_7 
REMARK    4  A    between atoms: N1_7  and  O1_9 
REMARK    5  A    between atoms: O1_9  and  C6_10 
REMARK    6  A    between atoms: C6_10  and  C9_14 
ROOT
HETATM    1  C6  UNL     1      27.201  42.189  10.489  1.00  0.00     0.090 C 
HETATM    2  C7  UNL     1      28.433  42.380  10.830  1.00  0.00     0.128 C 
HETATM    3  C8  UNL     1      29.570  41.738  10.252  1.00  0.00     0.090 C 
HETATM    4  N2  UNL     1      30.533  41.228   9.798  1.00  0.00    -0.192 NA
ENDROOT
BRANCH   1   5
HETATM    5  O1  UNL     1      26.250  42.970  11.236  1.00  0.00    -0.242 OA
BRANCH   5   6
HETATM    6  N1  UNL     1      26.431  44.298  11.403  1.00  0.00    -0.271 N 
ATOM      7  H1  UNL     1      26.973  44.598  12.214  1.00  0.00     0.194 HD
BRANCH   6   8
HETATM    8  C5  UNL     1      25.982  45.205  10.632  1.00  0.00     0.128 C 
BRANCH   8   9
HETATM    9  C4  UNL     1      25.817  46.612  11.098  1.00  0.00     0.014 A 
HETATM   10  C3  UNL     1      24.623  47.227  11.164  1.00  0.00     0.041 A 
HETATM   11  C2  UNL     1      24.601  48.515  11.607  1.00  0.00     0.043 A 
HETATM   12  S2  UNL     1      26.240  48.851  11.925  1.00  0.00    -0.068 SA
HETATM   13  C15 UNL     1      26.910  47.347  11.488  1.00  0.00     0.100 A 
HETATM   14  N3  UNL     1      28.286  46.927  11.513  1.00  0.00    -0.093 NA
BRANCH  11  15
HETATM   15  S1  UNL     1      23.153  49.591  11.800  1.00  0.00    -0.127 SA
HETATM   16  C1  UNL     1      23.235  50.904  10.564  1.00  0.00     0.096 C 
ENDBRANCH  11  15
ENDBRANCH   8   9
ENDBRANCH   6   8
ENDBRANCH   5   6
ENDBRANCH   1   5
BRANCH   1  17
HETATM   17  C9  UNL     1      26.577  41.332   9.493  1.00  0.00     0.046 C 
HETATM   18  C10 UNL     1      27.326  40.152   9.003  1.00  0.00     0.011 C 
HETATM   19  C11 UNL     1      26.403  39.264   8.164  1.00  0.00     0.001 C 
HETATM   20  C12 UNL     1      25.222  40.038   7.637  1.00  0.00     0.000 C 
HETATM   21  C13 UNL     1      25.591  41.435   7.203  1.00  0.00     0.001 C 
HETATM   22  C14 UNL     1      26.122  42.243   8.355  1.00  0.00     0.011 C 
ENDBRANCH   1  17
TORSDOF 6
ENDMDL
