MODEL 1
REMARK VINA RESULT: -6.645063517      0.000      0.000
REMARK  20 active torsions:
REMARK  status: ('A' for Active; 'I' for Inactive)
REMARK    1  A    between atoms: C2_2  and  C3_3 
REMARK    2  A    between atoms: C3_3  and  C4_4 
REMARK    3  A    between atoms: C4_4  and  C5_5 
REMARK    4  A    between atoms: C5_5  and  C6_6 
REMARK    5  A    between atoms: C6_6  and  C7_7 
REMARK    6  A    between atoms: C7_7  and  C8_8 
REMARK    7  A    between atoms: C8_8  and  C9_9 
REMARK    8  A    between atoms: C9_9  and  C10_10 
REMARK    9  A    between atoms: C10_10  and  C11_11 
REMARK   10  A    between atoms: C11_11  and  O1_12 
REMARK   11  A    between atoms: C18_20  and  O2_21 
REMARK   12  A    between atoms: O2_21  and  O3_22 
REMARK   13  A    between atoms: O3_22  and  C19_23 
REMARK   14  A    between atoms: C21_28  and  O5_29 
REMARK   15  A    between atoms: O5_29  and  C22_30 
REMARK   16  A    between atoms: C24_33  and  C25_34 
REMARK   17  A    between atoms: C25_34  and  O7_35 
REMARK   18  A    between atoms: C26_37  and  O8_38 
REMARK   19  A    between atoms: C27_40  and  O9_41 
REMARK   20  A    between atoms: C29_44  and  O10_45 
ROOT
HETATM    1  C11 UNL     1      30.831  27.411  17.241  1.00  0.00     0.069 C 
HETATM    2  C12 UNL     1      29.556  26.601  17.526  1.00  0.00     0.017 C 
HETATM    3  C13 UNL     1      28.527  26.924  16.474  1.00  0.00     0.013 C 
HETATM    4  C14 UNL     1      29.772  25.141  17.631  1.00  0.00     0.007 C 
HETATM    5  C15 UNL     1      30.687  24.992  18.859  1.00  0.00     0.006 C 
HETATM    6  C16 UNL     1      32.039  25.463  18.310  1.00  0.00    -0.001 C 
HETATM    7  C17 UNL     1      32.399  24.511  17.227  1.00  0.00     0.040 C 
HETATM    8  C18 UNL     1      33.841  24.041  17.492  1.00  0.00     0.163 C 
HETATM    9  C28 UNL     1      34.710  25.077  16.844  1.00  0.00     0.067 C 
HETATM   10  C29 UNL     1      34.503  26.464  17.407  1.00  0.00     0.121 C 
HETATM   11  C30 UNL     1      33.224  27.099  16.992  1.00  0.00     0.044 C 
HETATM   12  C31 UNL     1      32.042  26.920  17.926  1.00  0.00    -0.007 C 
HETATM   13  C32 UNL     1      32.260  27.681  19.223  1.00  0.00     0.019 C 
ENDROOT
BRANCH   8  14
HETATM   14  O2  UNL     1      34.080  23.896  18.834  1.00  0.00    -0.233 OA
BRANCH  14  15
HETATM   15  O3  UNL     1      35.293  23.637  19.190  1.00  0.00    -0.202 OA
BRANCH  15  16
HETATM   16  C19 UNL     1      35.405  23.404  20.556  1.00  0.00     0.359 C 
HETATM   17  O4  UNL     1      36.004  22.085  20.635  1.00  0.00    -0.242 OA
HETATM   18  N1  UNL     1      37.375  22.278  20.451  1.00  0.00    -0.276 N 
HETATM   19  C20 UNL     1      37.714  23.474  20.777  1.00  0.00     0.124 C 
ATOM     20  H1  UNL     1      38.019  21.568  20.105  1.00  0.00     0.193 HD
HETATM   21  C21 UNL     1      36.497  24.170  21.222  1.00  0.00     0.225 C 
BRANCH  21  22
HETATM   22  O5  UNL     1      36.509  25.523  20.955  1.00  0.00    -0.343 OA
BRANCH  22  23
HETATM   23  C22 UNL     1      36.293  26.202  22.151  1.00  0.00     0.291 C 
HETATM   24  O6  UNL     1      35.009  26.032  22.656  1.00  0.00    -0.358 OA
HETATM   25  C23 UNL     1      34.043  26.802  22.064  1.00  0.00     0.180 C 
HETATM   26  C24 UNL     1      34.269  28.286  22.254  1.00  0.00     0.065 C 
HETATM   27  C26 UNL     1      35.694  28.602  22.644  1.00  0.00     0.159 C 
HETATM   28  C27 UNL     1      36.661  27.663  21.971  1.00  0.00     0.202 C 
BRANCH  26  29
HETATM   29  C25 UNL     1      33.372  28.855  23.359  1.00  0.00     0.173 C 
BRANCH  29  30
HETATM   30  O7  UNL     1      34.125  29.613  24.251  1.00  0.00    -0.400 OA
ATOM     31  H7  UNL     1      33.593  29.873  24.994  1.00  0.00     0.209 HD
ENDBRANCH  29  30
ENDBRANCH  26  29
BRANCH  27  32
HETATM   32  O8  UNL     1      35.984  29.893  22.187  1.00  0.00    -0.392 OA
ATOM     33  H8  UNL     1      36.492  29.810  21.388  1.00  0.00     0.210 HD
ENDBRANCH  27  32
BRANCH  28  34
HETATM   34  O9  UNL     1      37.938  27.943  22.476  1.00  0.00    -0.388 OA
ATOM     35  H9  UNL     1      38.419  28.536  21.911  1.00  0.00     0.210 HD
ENDBRANCH  28  34
ENDBRANCH  22  23
ENDBRANCH  21  22
ENDBRANCH  15  16
ENDBRANCH  14  15
ENDBRANCH   8  14
BRANCH  10  36
HETATM   36  O10 UNL     1      34.799  26.564  18.757  1.00  0.00    -0.395 OA
ATOM     37  H10 UNL     1      34.154  27.055  19.253  1.00  0.00     0.210 HD
ENDBRANCH  10  36
BRANCH   1  38
HETATM   38  C10 UNL     1      30.383  28.808  17.463  1.00  0.00     0.039 C 
BRANCH  38  39
HETATM   39  C9  UNL     1      30.692  29.843  16.459  1.00  0.00     0.003 C 
BRANCH  39  40
HETATM   40  C8  UNL     1      30.998  31.155  17.210  1.00  0.00     0.000 C 
BRANCH  40  41
HETATM   41  C7  UNL     1      32.463  31.289  17.537  1.00  0.00     0.000 C 
BRANCH  41  42
HETATM   42  C6  UNL     1      32.665  31.398  19.014  1.00  0.00     0.000 C 
BRANCH  42  43
HETATM   43  C5  UNL     1      33.922  30.659  19.496  1.00  0.00     0.000 C 
BRANCH  43  44
HETATM   44  C4  UNL     1      34.782  30.258  18.355  1.00  0.00     0.000 C 
BRANCH  44  45
HETATM   45  C3  UNL     1      36.169  29.843  18.639  1.00  0.00    -0.000 C 
BRANCH  45  46
HETATM   46  C2  UNL     1      36.995  29.189  17.613  1.00  0.00    -0.005 C 
HETATM   47  C1  UNL     1      36.621  29.476  16.194  1.00  0.00     0.005 C 
ENDBRANCH  45  46
ENDBRANCH  44  45
ENDBRANCH  43  44
ENDBRANCH  42  43
ENDBRANCH  41  42
ENDBRANCH  40  41
ENDBRANCH  39  40
ENDBRANCH  38  39
ENDBRANCH   1  38
BRANCH   1  48
HETATM   48  O1  UNL     1      31.030  27.242  15.862  1.00  0.00    -0.389 OA
ATOM     49  H1  UNL     1      31.953  27.382  15.684  1.00  0.00     0.210 HD
ENDBRANCH   1  48
TORSDOF 20
ENDMDL
MODEL 2
REMARK VINA RESULT: -6.372029125      1.146      2.148
REMARK  20 active torsions:
REMARK  status: ('A' for Active; 'I' for Inactive)
REMARK    1  A    between atoms: C2_2  and  C3_3 
REMARK    2  A    between atoms: C3_3  and  C4_4 
REMARK    3  A    between atoms: C4_4  and  C5_5 
REMARK    4  A    between atoms: C5_5  and  C6_6 
REMARK    5  A    between atoms: C6_6  and  C7_7 
REMARK    6  A    between atoms: C7_7  and  C8_8 
REMARK    7  A    between atoms: C8_8  and  C9_9 
REMARK    8  A    between atoms: C9_9  and  C10_10 
REMARK    9  A    between atoms: C10_10  and  C11_11 
REMARK   10  A    between atoms: C11_11  and  O1_12 
REMARK   11  A    between atoms: C18_20  and  O2_21 
REMARK   12  A    between atoms: O2_21  and  O3_22 
REMARK   13  A    between atoms: O3_22  and  C19_23 
REMARK   14  A    between atoms: C21_28  and  O5_29 
REMARK   15  A    between atoms: O5_29  and  C22_30 
REMARK   16  A    between atoms: C24_33  and  C25_34 
REMARK   17  A    between atoms: C25_34  and  O7_35 
REMARK   18  A    between atoms: C26_37  and  O8_38 
REMARK   19  A    between atoms: C27_40  and  O9_41 
REMARK   20  A    between atoms: C29_44  and  O10_45 
ROOT
HETATM    1  C11 UNL     1      30.976  27.041  16.859  1.00  0.00     0.069 C 
HETATM    2  C12 UNL     1      29.700  26.428  17.459  1.00  0.00     0.017 C 
HETATM    3  C13 UNL     1      28.563  26.628  16.493  1.00  0.00     0.013 C 
HETATM    4  C14 UNL     1      29.829  25.006  17.844  1.00  0.00     0.007 C 
HETATM    5  C15 UNL     1      30.891  25.021  18.959  1.00  0.00     0.006 C 
HETATM    6  C16 UNL     1      32.185  25.243  18.166  1.00  0.00    -0.001 C 
HETATM    7  C17 UNL     1      32.329  24.063  17.274  1.00  0.00     0.040 C 
HETATM    8  C18 UNL     1      33.759  23.522  17.460  1.00  0.00     0.163 C 
HETATM    9  C28 UNL     1      34.599  24.320  16.508  1.00  0.00     0.067 C 
HETATM   10  C29 UNL     1      34.565  25.804  16.785  1.00  0.00     0.121 C 
HETATM   11  C30 UNL     1      33.287  26.461  16.400  1.00  0.00     0.044 C 
HETATM   12  C31 UNL     1      32.234  26.586  17.483  1.00  0.00    -0.007 C 
HETATM   13  C32 UNL     1      32.677  27.569  18.555  1.00  0.00     0.019 C 
ENDROOT
BRANCH   8  14
HETATM   14  O2  UNL     1      34.168  23.628  18.763  1.00  0.00    -0.233 OA
BRANCH  14  15
HETATM   15  O3  UNL     1      35.398  23.334  19.020  1.00  0.00    -0.202 OA
BRANCH  15  16
HETATM   16  C19 UNL     1      35.633  23.185  20.381  1.00  0.00     0.359 C 
HETATM   17  O4  UNL     1      36.383  21.946  20.469  1.00  0.00    -0.242 OA
HETATM   18  N1  UNL     1      37.706  22.281  20.172  1.00  0.00    -0.276 N 
HETATM   19  C20 UNL     1      37.929  23.522  20.421  1.00  0.00     0.124 C 
ATOM     20  H1  UNL     1      38.401  21.630  19.808  1.00  0.00     0.193 HD
HETATM   21  C21 UNL     1      36.675  24.100  20.929  1.00  0.00     0.225 C 
BRANCH  21  22
HETATM   22  O5  UNL     1      36.513  25.430  20.605  1.00  0.00    -0.343 OA
BRANCH  22  23
HETATM   23  C22 UNL     1      36.270  26.136  21.780  1.00  0.00     0.291 C 
HETATM   24  O6  UNL     1      34.998  25.922  22.298  1.00  0.00    -0.358 OA
HETATM   25  C23 UNL     1      33.995  26.627  21.688  1.00  0.00     0.180 C 
HETATM   26  C24 UNL     1      34.152  28.124  21.830  1.00  0.00     0.065 C 
HETATM   27  C26 UNL     1      35.562  28.519  22.202  1.00  0.00     0.159 C 
HETATM   28  C27 UNL     1      36.569  27.606  21.553  1.00  0.00     0.202 C 
BRANCH  26  29
HETATM   29  C25 UNL     1      33.233  28.685  22.922  1.00  0.00     0.173 C 
BRANCH  29  30
HETATM   30  O7  UNL     1      33.987  29.157  23.993  1.00  0.00    -0.400 OA
ATOM     31  H7  UNL     1      34.312  28.431  24.513  1.00  0.00     0.209 HD
ENDBRANCH  29  30
ENDBRANCH  26  29
BRANCH  27  32
HETATM   32  O8  UNL     1      35.789  29.807  21.704  1.00  0.00    -0.392 OA
ATOM     33  H8  UNL     1      35.515  30.428  22.370  1.00  0.00     0.210 HD
ENDBRANCH  27  32
BRANCH  28  34
HETATM   34  O9  UNL     1      37.834  27.960  22.042  1.00  0.00    -0.388 OA
ATOM     35  H9  UNL     1      38.359  28.395  21.380  1.00  0.00     0.210 HD
ENDBRANCH  28  34
ENDBRANCH  22  23
ENDBRANCH  21  22
ENDBRANCH  15  16
ENDBRANCH  14  15
ENDBRANCH   8  14
BRANCH  10  36
HETATM   36  O10 UNL     1      35.048  26.147  18.038  1.00  0.00    -0.395 OA
ATOM     37  H10 UNL     1      34.654  26.934  18.396  1.00  0.00     0.210 HD
ENDBRANCH  10  36
BRANCH   1  38
HETATM   38  C10 UNL     1      30.659  28.490  16.832  1.00  0.00     0.039 C 
BRANCH  38  39
HETATM   39  C9  UNL     1      30.863  29.260  15.591  1.00  0.00     0.003 C 
BRANCH  39  40
HETATM   40  C8  UNL     1      31.593  30.566  15.960  1.00  0.00     0.000 C 
BRANCH  40  41
HETATM   41  C7  UNL     1      33.078  30.359  16.113  1.00  0.00     0.000 C 
BRANCH  41  42
HETATM   42  C6  UNL     1      33.554  30.909  17.419  1.00  0.00     0.000 C 
BRANCH  42  43
HETATM   43  C5  UNL     1      32.423  31.544  18.242  1.00  0.00     0.000 C 
BRANCH  43  44
HETATM   44  C4  UNL     1      32.400  31.013  19.627  1.00  0.00     0.000 C 
BRANCH  44  45
HETATM   45  C3  UNL     1      31.108  30.567  20.183  1.00  0.00    -0.000 C 
BRANCH  45  46
HETATM   46  C2  UNL     1      29.872  30.640  19.390  1.00  0.00    -0.005 C 
HETATM   47  C1  UNL     1      28.598  30.683  20.171  1.00  0.00     0.005 C 
ENDBRANCH  45  46
ENDBRANCH  44  45
ENDBRANCH  43  44
ENDBRANCH  42  43
ENDBRANCH  41  42
ENDBRANCH  40  41
ENDBRANCH  39  40
ENDBRANCH  38  39
ENDBRANCH   1  38
BRANCH   1  48
HETATM   48  O1  UNL     1      30.975  26.579  15.533  1.00  0.00    -0.389 OA
ATOM     49  H1  UNL     1      30.924  27.337  14.964  1.00  0.00     0.210 HD
ENDBRANCH   1  48
TORSDOF 20
ENDMDL
MODEL 3
REMARK VINA RESULT: -6.367032813      1.824      2.748
REMARK  20 active torsions:
REMARK  status: ('A' for Active; 'I' for Inactive)
REMARK    1  A    between atoms: C2_2  and  C3_3 
REMARK    2  A    between atoms: C3_3  and  C4_4 
REMARK    3  A    between atoms: C4_4  and  C5_5 
REMARK    4  A    between atoms: C5_5  and  C6_6 
REMARK    5  A    between atoms: C6_6  and  C7_7 
REMARK    6  A    between atoms: C7_7  and  C8_8 
REMARK    7  A    between atoms: C8_8  and  C9_9 
REMARK    8  A    between atoms: C9_9  and  C10_10 
REMARK    9  A    between atoms: C10_10  and  C11_11 
REMARK   10  A    between atoms: C11_11  and  O1_12 
REMARK   11  A    between atoms: C18_20  and  O2_21 
REMARK   12  A    between atoms: O2_21  and  O3_22 
REMARK   13  A    between atoms: O3_22  and  C19_23 
REMARK   14  A    between atoms: C21_28  and  O5_29 
REMARK   15  A    between atoms: O5_29  and  C22_30 
REMARK   16  A    between atoms: C24_33  and  C25_34 
REMARK   17  A    between atoms: C25_34  and  O7_35 
REMARK   18  A    between atoms: C26_37  and  O8_38 
REMARK   19  A    between atoms: C27_40  and  O9_41 
REMARK   20  A    between atoms: C29_44  and  O10_45 
ROOT
HETATM    1  C11 UNL     1      32.387  27.355  16.834  1.00  0.00     0.069 C 
HETATM    2  C12 UNL     1      31.298  27.422  17.917  1.00  0.00     0.017 C 
HETATM    3  C13 UNL     1      30.080  28.096  17.344  1.00  0.00     0.013 C 
HETATM    4  C14 UNL     1      30.952  26.115  18.517  1.00  0.00     0.007 C 
HETATM    5  C15 UNL     1      32.253  25.672  19.210  1.00  0.00     0.006 C 
HETATM    6  C16 UNL     1      33.120  25.243  18.019  1.00  0.00    -0.001 C 
HETATM    7  C17 UNL     1      32.411  24.103  17.381  1.00  0.00     0.040 C 
HETATM    8  C18 UNL     1      33.436  22.968  17.207  1.00  0.00     0.163 C 
HETATM    9  C28 UNL     1      34.110  23.254  15.898  1.00  0.00     0.067 C 
HETATM   10  C29 UNL     1      34.808  24.594  15.871  1.00  0.00     0.121 C 
HETATM   11  C30 UNL     1      33.883  25.755  15.789  1.00  0.00     0.044 C 
HETATM   12  C31 UNL     1      33.469  26.388  17.103  1.00  0.00    -0.007 C 
HETATM   13  C32 UNL     1      34.648  27.087  17.760  1.00  0.00     0.019 C 
ENDROOT
BRANCH   8  14
HETATM   14  O2  UNL     1      34.306  22.913  18.264  1.00  0.00    -0.233 OA
BRANCH  14  15
HETATM   15  O3  UNL     1      34.035  22.074  19.206  1.00  0.00    -0.202 OA
BRANCH  15  16
HETATM   16  C19 UNL     1      34.007  22.676  20.459  1.00  0.00     0.359 C 
HETATM   17  O4  UNL     1      34.006  21.557  21.382  1.00  0.00    -0.242 OA
HETATM   18  N1  UNL     1      35.339  21.154  21.491  1.00  0.00    -0.276 N 
HETATM   19  C20 UNL     1      36.132  22.124  21.206  1.00  0.00     0.124 C 
ATOM     20  H1  UNL     1      35.641  20.218  21.761  1.00  0.00     0.193 HD
HETATM   21  C21 UNL     1      35.300  23.290  20.874  1.00  0.00     0.225 C 
BRANCH  21  22
HETATM   22  O5  UNL     1      35.875  24.128  19.943  1.00  0.00    -0.343 OA
BRANCH  22  23
HETATM   23  C22 UNL     1      36.906  24.825  20.565  1.00  0.00     0.291 C 
HETATM   24  O6  UNL     1      36.590  25.242  21.854  1.00  0.00    -0.358 OA
HETATM   25  C23 UNL     1      35.810  26.364  21.928  1.00  0.00     0.180 C 
HETATM   26  C24 UNL     1      36.479  27.591  21.350  1.00  0.00     0.065 C 
HETATM   27  C26 UNL     1      37.631  27.238  20.438  1.00  0.00     0.159 C 
HETATM   28  C27 UNL     1      37.348  25.971  19.674  1.00  0.00     0.202 C 
BRANCH  26  29
HETATM   29  C25 UNL     1      37.048  28.493  22.451  1.00  0.00     0.173 C 
BRANCH  29  30
HETATM   30  O7  UNL     1      38.439  28.445  22.445  1.00  0.00    -0.400 OA
ATOM     31  H7  UNL     1      38.785  28.783  23.263  1.00  0.00     0.209 HD
ENDBRANCH  29  30
ENDBRANCH  26  29
BRANCH  27  32
HETATM   32  O8  UNL     1      37.761  28.268  19.499  1.00  0.00    -0.392 OA
ATOM     33  H8  UNL     1      37.415  27.951  18.672  1.00  0.00     0.210 HD
ENDBRANCH  27  32
BRANCH  28  34
HETATM   34  O9  UNL     1      38.504  25.650  18.949  1.00  0.00    -0.388 OA
ATOM     35  H9  UNL     1      39.292  25.919  19.406  1.00  0.00     0.210 HD
ENDBRANCH  28  34
ENDBRANCH  22  23
ENDBRANCH  21  22
ENDBRANCH  15  16
ENDBRANCH  14  15
ENDBRANCH   8  14
BRANCH  10  36
HETATM   36  O10 UNL     1      35.819  24.713  16.810  1.00  0.00    -0.395 OA
ATOM     37  H10 UNL     1      36.411  25.437  16.644  1.00  0.00     0.210 HD
ENDBRANCH  10  36
BRANCH   1  38
HETATM   38  C10 UNL     1      32.722  28.784  16.621  1.00  0.00     0.039 C 
BRANCH  38  39
HETATM   39  C9  UNL     1      32.772  29.327  15.251  1.00  0.00     0.003 C 
BRANCH  39  40
HETATM   40  C8  UNL     1      32.574  30.853  15.340  1.00  0.00     0.000 C 
BRANCH  40  41
HETATM   41  C7  UNL     1      32.770  31.367  16.743  1.00  0.00     0.000 C 
BRANCH  41  42
HETATM   42  C6  UNL     1      31.562  32.120  17.201  1.00  0.00     0.000 C 
BRANCH  42  43
HETATM   43  C5  UNL     1      31.200  31.823  18.664  1.00  0.00     0.000 C 
BRANCH  43  44
HETATM   44  C4  UNL     1      32.311  31.133  19.365  1.00  0.00     0.000 C 
BRANCH  44  45
HETATM   45  C3  UNL     1      31.981  29.990  20.238  1.00  0.00    -0.000 C 
BRANCH  45  46
HETATM   46  C2  UNL     1      33.016  29.043  20.678  1.00  0.00    -0.005 C 
HETATM   47  C1  UNL     1      33.097  28.802  22.151  1.00  0.00     0.005 C 
ENDBRANCH  45  46
ENDBRANCH  44  45
ENDBRANCH  43  44
ENDBRANCH  42  43
ENDBRANCH  41  42
ENDBRANCH  40  41
ENDBRANCH  39  40
ENDBRANCH  38  39
ENDBRANCH   1  38
BRANCH   1  48
HETATM   48  O1  UNL     1      31.696  26.905  15.697  1.00  0.00    -0.389 OA
ATOM     49  H1  UNL     1      32.294  26.370  15.189  1.00  0.00     0.210 HD
ENDBRANCH   1  48
TORSDOF 20
ENDMDL
MODEL 4
REMARK VINA RESULT: -6.339011449      3.847      6.803
REMARK  20 active torsions:
REMARK  status: ('A' for Active; 'I' for Inactive)
REMARK    1  A    between atoms: C2_2  and  C3_3 
REMARK    2  A    between atoms: C3_3  and  C4_4 
REMARK    3  A    between atoms: C4_4  and  C5_5 
REMARK    4  A    between atoms: C5_5  and  C6_6 
REMARK    5  A    between atoms: C6_6  and  C7_7 
REMARK    6  A    between atoms: C7_7  and  C8_8 
REMARK    7  A    between atoms: C8_8  and  C9_9 
REMARK    8  A    between atoms: C9_9  and  C10_10 
REMARK    9  A    between atoms: C10_10  and  C11_11 
REMARK   10  A    between atoms: C11_11  and  O1_12 
REMARK   11  A    between atoms: C18_20  and  O2_21 
REMARK   12  A    between atoms: O2_21  and  O3_22 
REMARK   13  A    between atoms: O3_22  and  C19_23 
REMARK   14  A    between atoms: C21_28  and  O5_29 
REMARK   15  A    between atoms: O5_29  and  C22_30 
REMARK   16  A    between atoms: C24_33  and  C25_34 
REMARK   17  A    between atoms: C25_34  and  O7_35 
REMARK   18  A    between atoms: C26_37  and  O8_38 
REMARK   19  A    between atoms: C27_40  and  O9_41 
REMARK   20  A    between atoms: C29_44  and  O10_45 
ROOT
HETATM    1  C11 UNL     1      31.582  30.273  18.991  1.00  0.00     0.069 C 
HETATM    2  C12 UNL     1      32.083  30.880  17.670  1.00  0.00     0.017 C 
HETATM    3  C13 UNL     1      31.358  32.176  17.423  1.00  0.00     0.013 C 
HETATM    4  C14 UNL     1      33.549  31.066  17.601  1.00  0.00     0.007 C 
HETATM    5  C15 UNL     1      34.107  29.634  17.681  1.00  0.00     0.006 C 
HETATM    6  C16 UNL     1      33.909  29.297  19.165  1.00  0.00    -0.001 C 
HETATM    7  C17 UNL     1      34.745  30.264  19.922  1.00  0.00     0.040 C 
HETATM    8  C18 UNL     1      35.595  29.453  20.917  1.00  0.00     0.163 C 
HETATM    9  C28 UNL     1      34.722  29.290  22.126  1.00  0.00     0.067 C 
HETATM   10  C29 UNL     1      33.430  28.564  21.832  1.00  0.00     0.121 C 
HETATM   11  C30 UNL     1      32.440  29.375  21.075  1.00  0.00     0.044 C 
HETATM   12  C31 UNL     1      32.458  29.234  19.566  1.00  0.00    -0.007 C 
HETATM   13  C32 UNL     1      31.981  27.852  19.148  1.00  0.00     0.019 C 
ENDROOT
BRANCH   8  14
HETATM   14  O2  UNL     1      35.997  28.261  20.375  1.00  0.00    -0.233 OA
BRANCH  14  15
HETATM   15  O3  UNL     1      37.140  28.243  19.777  1.00  0.00    -0.202 OA
BRANCH  15  16
HETATM   16  C19 UNL     1      37.083  27.599  18.546  1.00  0.00     0.359 C 
HETATM   17  O4  UNL     1      38.344  27.942  17.916  1.00  0.00    -0.242 OA
HETATM   18  N1  UNL     1      39.287  27.060  18.450  1.00  0.00    -0.276 N 
HETATM   19  C20 UNL     1      38.719  25.987  18.871  1.00  0.00     0.124 C 
ATOM     20  H1  UNL     1      40.289  27.243  18.498  1.00  0.00     0.193 HD
HETATM   21  C21 UNL     1      37.277  26.123  18.615  1.00  0.00     0.225 C 
BRANCH  21  22
HETATM   22  O5  UNL     1      36.491  25.472  19.543  1.00  0.00    -0.343 OA
BRANCH  22  23
HETATM   23  C22 UNL     1      36.779  24.112  19.477  1.00  0.00     0.291 C 
HETATM   24  O6  UNL     1      35.869  23.393  18.711  1.00  0.00    -0.358 OA
HETATM   25  C23 UNL     1      34.688  23.095  19.336  1.00  0.00     0.180 C 
HETATM   26  C24 UNL     1      34.866  22.203  20.544  1.00  0.00     0.065 C 
HETATM   27  C26 UNL     1      36.288  22.205  21.053  1.00  0.00     0.159 C 
HETATM   28  C27 UNL     1      36.922  23.561  20.884  1.00  0.00     0.202 C 
BRANCH  26  29
HETATM   29  C25 UNL     1      34.513  20.745  20.224  1.00  0.00     0.173 C 
BRANCH  29  30
HETATM   30  O7  UNL     1      34.158  20.067  21.387  1.00  0.00    -0.400 OA
ATOM     31  H7  UNL     1      33.454  20.522  21.833  1.00  0.00     0.209 HD
ENDBRANCH  29  30
ENDBRANCH  26  29
BRANCH  27  32
HETATM   32  O8  UNL     1      36.250  21.934  22.426  1.00  0.00    -0.392 OA
ATOM     33  H8  UNL     1      36.817  21.188  22.589  1.00  0.00     0.210 HD
ENDBRANCH  27  32
BRANCH  28  34
HETATM   34  O9  UNL     1      38.266  23.447  21.263  1.00  0.00    -0.388 OA
ATOM     35  H9  UNL     1      38.487  24.049  21.965  1.00  0.00     0.210 HD
ENDBRANCH  28  34
ENDBRANCH  22  23
ENDBRANCH  21  22
ENDBRANCH  15  16
ENDBRANCH  14  15
ENDBRANCH   8  14
BRANCH  10  36
HETATM   36  O10 UNL     1      33.612  27.272  21.365  1.00  0.00    -0.395 OA
ATOM     37  H10 UNL     1      33.153  26.614  21.874  1.00  0.00     0.210 HD
ENDBRANCH  10  36
BRANCH   1  38
HETATM   38  C10 UNL     1      30.168  29.946  18.682  1.00  0.00     0.039 C 
BRANCH  38  39
HETATM   39  C9  UNL     1      29.095  30.433  19.568  1.00  0.00     0.003 C 
BRANCH  39  40
HETATM   40  C8  UNL     1      27.787  29.727  19.159  1.00  0.00     0.000 C 
BRANCH  40  41
HETATM   41  C7  UNL     1      26.705  29.898  20.194  1.00  0.00     0.000 C 
BRANCH  41  42
HETATM   42  C6  UNL     1      27.105  30.922  21.208  1.00  0.00     0.000 C 
BRANCH  42  43
HETATM   43  C5  UNL     1      26.218  30.891  22.462  1.00  0.00     0.000 C 
BRANCH  43  44
HETATM   44  C4  UNL     1      24.975  30.115  22.224  1.00  0.00     0.000 C 
BRANCH  44  45
HETATM   45  C3  UNL     1      23.761  30.497  22.970  1.00  0.00    -0.000 C 
BRANCH  45  46
HETATM   46  C2  UNL     1      22.862  29.480  23.535  1.00  0.00    -0.005 C 
HETATM   47  C1  UNL     1      21.916  29.958  24.589  1.00  0.00     0.005 C 
ENDBRANCH  45  46
ENDBRANCH  44  45
ENDBRANCH  43  44
ENDBRANCH  42  43
ENDBRANCH  41  42
ENDBRANCH  40  41
ENDBRANCH  39  40
ENDBRANCH  38  39
ENDBRANCH   1  38
BRANCH   1  48
HETATM   48  O1  UNL     1      31.584  31.361  19.877  1.00  0.00    -0.389 OA
ATOM     49  H1  UNL     1      31.845  31.037  20.731  1.00  0.00     0.210 HD
ENDBRANCH   1  48
TORSDOF 20
ENDMDL
MODEL 5
REMARK VINA RESULT: -6.301954104      2.462      5.682
REMARK  20 active torsions:
REMARK  status: ('A' for Active; 'I' for Inactive)
REMARK    1  A    between atoms: C2_2  and  C3_3 
REMARK    2  A    between atoms: C3_3  and  C4_4 
REMARK    3  A    between atoms: C4_4  and  C5_5 
REMARK    4  A    between atoms: C5_5  and  C6_6 
REMARK    5  A    between atoms: C6_6  and  C7_7 
REMARK    6  A    between atoms: C7_7  and  C8_8 
REMARK    7  A    between atoms: C8_8  and  C9_9 
REMARK    8  A    between atoms: C9_9  and  C10_10 
REMARK    9  A    between atoms: C10_10  and  C11_11 
REMARK   10  A    between atoms: C11_11  and  O1_12 
REMARK   11  A    between atoms: C18_20  and  O2_21 
REMARK   12  A    between atoms: O2_21  and  O3_22 
REMARK   13  A    between atoms: O3_22  and  C19_23 
REMARK   14  A    between atoms: C21_28  and  O5_29 
REMARK   15  A    between atoms: O5_29  and  C22_30 
REMARK   16  A    between atoms: C24_33  and  C25_34 
REMARK   17  A    between atoms: C25_34  and  O7_35 
REMARK   18  A    between atoms: C26_37  and  O8_38 
REMARK   19  A    between atoms: C27_40  and  O9_41 
REMARK   20  A    between atoms: C29_44  and  O10_45 
ROOT
HETATM    1  C11 UNL     1      33.097  28.826  19.534  1.00  0.00     0.069 C 
HETATM    2  C12 UNL     1      32.231  27.743  18.871  1.00  0.00     0.017 C 
HETATM    3  C13 UNL     1      31.804  28.227  17.510  1.00  0.00     0.013 C 
HETATM    4  C14 UNL     1      32.873  26.414  18.787  1.00  0.00     0.007 C 
HETATM    5  C15 UNL     1      33.063  26.003  20.259  1.00  0.00     0.006 C 
HETATM    6  C16 UNL     1      34.241  26.887  20.688  1.00  0.00    -0.001 C 
HETATM    7  C17 UNL     1      35.392  26.479  19.843  1.00  0.00     0.040 C 
HETATM    8  C18 UNL     1      36.583  26.225  20.785  1.00  0.00     0.163 C 
HETATM    9  C28 UNL     1      37.221  27.569  20.971  1.00  0.00     0.067 C 
HETATM   10  C29 UNL     1      36.288  28.591  21.577  1.00  0.00     0.121 C 
HETATM   11  C30 UNL     1      35.241  29.081  20.642  1.00  0.00     0.044 C 
HETATM   12  C31 UNL     1      33.909  28.357  20.674  1.00  0.00    -0.007 C 
HETATM   13  C32 UNL     1      33.182  28.622  21.983  1.00  0.00     0.019 C 
ENDROOT
BRANCH   8  14
HETATM   14  O2  UNL     1      36.177  25.650  21.960  1.00  0.00    -0.233 OA
BRANCH  14  15
HETATM   15  O3  UNL     1      35.764  24.429  21.907  1.00  0.00    -0.202 OA
BRANCH  15  16
HETATM   16  C19 UNL     1      36.707  23.576  21.342  1.00  0.00     0.359 C 
HETATM   17  O4  UNL     1      36.967  22.606  22.389  1.00  0.00    -0.242 OA
HETATM   18  N1  UNL     1      35.928  21.676  22.311  1.00  0.00    -0.276 N 
HETATM   19  C20 UNL     1      35.421  21.657  21.131  1.00  0.00     0.124 C 
ATOM     20  H1  UNL     1      35.614  21.091  23.085  1.00  0.00     0.193 HD
HETATM   21  C21 UNL     1      36.155  22.641  20.321  1.00  0.00     0.225 C 
BRANCH  21  22
HETATM   22  O5  UNL     1      35.384  23.233  19.343  1.00  0.00    -0.343 OA
BRANCH  22  23
HETATM   23  C22 UNL     1      35.928  22.905  18.105  1.00  0.00     0.291 C 
HETATM   24  O6  UNL     1      36.186  24.013  17.306  1.00  0.00    -0.358 OA
HETATM   25  C23 UNL     1      35.094  24.537  16.667  1.00  0.00     0.180 C 
HETATM   26  C24 UNL     1      34.462  23.575  15.686  1.00  0.00     0.065 C 
HETATM   27  C26 UNL     1      34.872  22.144  15.944  1.00  0.00     0.159 C 
HETATM   28  C27 UNL     1      35.038  21.886  17.419  1.00  0.00     0.202 C 
BRANCH  26  29
HETATM   29  C25 UNL     1      34.865  23.897  14.243  1.00  0.00     0.173 C 
BRANCH  29  30
HETATM   30  O7  UNL     1      36.200  24.286  14.188  1.00  0.00    -0.400 OA
ATOM     31  H7  UNL     1      36.560  24.114  13.326  1.00  0.00     0.209 HD
ENDBRANCH  29  30
ENDBRANCH  26  29
BRANCH  27  32
HETATM   32  O8  UNL     1      33.837  21.317  15.492  1.00  0.00    -0.392 OA
ATOM     33  H8  UNL     1      33.116  21.393  16.106  1.00  0.00     0.210 HD
ENDBRANCH  27  32
BRANCH  28  34
HETATM   34  O9  UNL     1      35.532  20.582  17.564  1.00  0.00    -0.388 OA
ATOM     35  H9  UNL     1      34.934  19.936  17.206  1.00  0.00     0.210 HD
ENDBRANCH  28  34
ENDBRANCH  22  23
ENDBRANCH  21  22
ENDBRANCH  15  16
ENDBRANCH  14  15
ENDBRANCH   8  14
BRANCH  10  36
HETATM   36  O10 UNL     1      35.834  28.248  22.841  1.00  0.00    -0.395 OA
ATOM     37  H10 UNL     1      36.497  28.324  23.517  1.00  0.00     0.210 HD
ENDBRANCH  10  36
BRANCH   1  38
HETATM   38  C10 UNL     1      32.134  29.936  19.733  1.00  0.00     0.039 C 
BRANCH  38  39
HETATM   39  C9  UNL     1      32.522  31.314  19.379  1.00  0.00     0.003 C 
BRANCH  39  40
HETATM   40  C8  UNL     1      31.302  31.997  18.729  1.00  0.00     0.000 C 
BRANCH  40  41
HETATM   41  C7  UNL     1      31.150  31.620  17.278  1.00  0.00     0.000 C 
BRANCH  41  42
HETATM   42  C6  UNL     1      32.462  31.720  16.569  1.00  0.00     0.000 C 
BRANCH  42  43
HETATM   43  C5  UNL     1      32.368  32.520  15.260  1.00  0.00     0.000 C 
BRANCH  43  44
HETATM   44  C4  UNL     1      31.153  33.373  15.237  1.00  0.00     0.000 C 
BRANCH  44  45
HETATM   45  C3  UNL     1      31.201  34.633  14.471  1.00  0.00    -0.000 C 
BRANCH  45  46
HETATM   46  C2  UNL     1      31.021  35.934  15.131  1.00  0.00    -0.005 C 
HETATM   47  C1  UNL     1      32.128  36.921  14.943  1.00  0.00     0.005 C 
ENDBRANCH  45  46
ENDBRANCH  44  45
ENDBRANCH  43  44
ENDBRANCH  42  43
ENDBRANCH  41  42
ENDBRANCH  40  41
ENDBRANCH  39  40
ENDBRANCH  38  39
ENDBRANCH   1  38
BRANCH   1  48
HETATM   48  O1  UNL     1      33.985  29.210  18.516  1.00  0.00    -0.389 OA
ATOM     49  H1  UNL     1      33.577  29.003  17.684  1.00  0.00     0.210 HD
ENDBRANCH   1  48
TORSDOF 20
ENDMDL
