MODEL 1
REMARK VINA RESULT: -8.690662557      0.000      0.000
REMARK  15 active torsions:
REMARK  status: ('A' for Active; 'I' for Inactive)
REMARK    1  A    between atoms: C2_2  and  C3_3 
REMARK    2  A    between atoms: C3_3  and  N1_4 
REMARK    3  A    between atoms: C5_6  and  C6_7 
REMARK    4  A    between atoms: N2_8  and  O1_10 
REMARK    5  A    between atoms: N5_16  and  N6_18 
REMARK    6  A    between atoms: N6_18  and  C7_20 
REMARK    7  A    between atoms: C7_20  and  N7_22 
REMARK    8  A    between atoms: C9_27  and  C10_28 
REMARK    9  A    between atoms: C10_28  and  O2_29 
REMARK   10  A    between atoms: C10_28  and  C15_48 
REMARK   11  A    between atoms: O2_29  and  C11_30 
REMARK   12  A    between atoms: C11_30  and  C12_31 
REMARK       I    between atoms: C12_31  and  N9_33 
REMARK   13  A    between atoms: C14_40  and  S3_41 
REMARK   14  A    between atoms: S3_41  and  N12_42 
REMARK   15  A    between atoms: C15_48  and  C16_50 
ROOT
HETATM    1  N7  UNL     1       2.490  16.932  87.005  1.00  0.00    -0.232 N 
HETATM    2  N8  UNL     1       1.274  16.889  86.539  1.00  0.00    -0.281 N 
ATOM      3  H8  UNL     1       0.442  16.777  87.117  1.00  0.00     0.188 HD
HETATM    4  C8  UNL     1       1.254  17.013  85.200  1.00  0.00     0.127 A 
HETATM    5  S2  UNL     1      -0.064  17.009  84.246  1.00  0.00    -0.058 SA
HETATM    6  C9  UNL     1       2.571  17.144  84.793  1.00  0.00     0.042 A 
HETATM    7  C17 UNL     1       3.309  17.087  85.958  1.00  0.00     0.045 A 
HETATM    8  C18 UNL     1       4.785  17.182  86.057  1.00  0.00     0.071 C 
ENDROOT
BRANCH   6   9
HETATM    9  C10 UNL     1       3.086  17.310  83.386  1.00  0.00     0.241 C 
BRANCH   9  10
HETATM   10  O2  UNL     1       2.141  17.870  82.563  1.00  0.00    -0.364 OA
BRANCH  10  11
HETATM   11  C11 UNL     1       2.669  18.251  81.327  1.00  0.00     0.272 C 
BRANCH  11  12
HETATM   12  C12 UNL     1       2.167  19.611  81.011  1.00  0.00     0.247 C 
HETATM   13  O3  UNL     1       2.096  20.519  81.892  1.00  0.00    -0.271 OA
HETATM   14  N9  UNL     1       1.737  19.965  79.693  1.00  0.00    -0.304 N 
HETATM   15  C13 UNL     1       0.619  20.654  79.643  1.00  0.00     0.168 A 
ATOM     16  H9  UNL     1       2.259  19.703  78.856  1.00  0.00     0.171 HD
HETATM   17  N10 UNL     1      -0.011  21.114  78.557  1.00  0.00    -0.278 N 
HETATM   18  S4  UNL     1      -0.408  21.197  80.897  1.00  0.00    -0.020 SA
HETATM   19  N11 UNL     1      -1.089  21.765  78.710  1.00  0.00    -0.281 N 
ATOM     20  H10 UNL     1       0.368  20.946  77.625  1.00  0.00     0.189 HD
HETATM   21  C14 UNL     1      -1.574  21.978  79.924  1.00  0.00     0.208 A 
ATOM     22  H11 UNL     1      -1.585  22.126  77.895  1.00  0.00     0.188 HD
BRANCH  21  23
HETATM   23  S3  UNL     1      -3.052  22.853  80.355  1.00  0.00     0.280 S 
HETATM   24  O4  UNL     1      -3.052  23.083  81.854  1.00  0.00    -0.199 OA
HETATM   25  O5  UNL     1      -3.124  24.142  79.608  1.00  0.00    -0.199 OA
BRANCH  23  26
HETATM   26  N12 UNL     1      -4.409  21.884  79.916  1.00  0.00    -0.323 N 
ATOM     27 2H12 UNL     1      -4.537  20.906  80.173  1.00  0.00     0.169 HD
ATOM     28 1H12 UNL     1      -5.048  22.455  79.363  1.00  0.00     0.169 HD
ENDBRANCH  23  26
ENDBRANCH  21  23
ENDBRANCH  11  12
ENDBRANCH  10  11
ENDBRANCH   9  10
BRANCH   9  29
HETATM   29  C15 UNL     1       3.459  15.978  82.857  1.00  0.00     0.258 C 
HETATM   30  O6  UNL     1       2.540  15.173  82.495  1.00  0.00    -0.282 OA
BRANCH  29  31
HETATM   31  C16 UNL     1       4.827  15.505  82.715  1.00  0.00     0.249 C 
HETATM   32  O7  UNL     1       5.049  14.415  82.136  1.00  0.00    -0.642 OA
HETATM   33  O8  UNL     1       5.903  16.224  83.200  1.00  0.00    -0.642 OA
ENDBRANCH  29  31
ENDBRANCH   9  29
ENDBRANCH   6   9
BRANCH   1  34
HETATM   34  C7  UNL     1       2.814  16.823  88.407  1.00  0.00     0.212 C 
HETATM   35  S1  UNL     1       2.587  18.107  89.383  1.00  0.00    -0.037 SA
BRANCH  34  36
HETATM   36  N6  UNL     1       3.321  15.637  88.956  1.00  0.00    -0.275 N 
ATOM     37  H6  UNL     1       2.689  14.985  89.421  1.00  0.00     0.189 HD
BRANCH  36  38
HETATM   38  N5  UNL     1       4.672  15.340  88.877  1.00  0.00    -0.305 N 
HETATM   39  C2  UNL     1       5.117  14.171  88.624  1.00  0.00     0.019 C 
HETATM   40  C1  UNL     1       4.170  13.052  88.398  1.00  0.00     0.066 C 
ATOM     41  H5  UNL     1       5.344  16.092  89.027  1.00  0.00     0.186 HD
BRANCH  39  42
HETATM   42  C3  UNL     1       6.576  13.960  88.564  1.00  0.00     0.203 C 
BRANCH  42  43
HETATM   43  N1  UNL     1       7.054  14.450  87.292  1.00  0.00    -0.281 N 
HETATM   44  C4  UNL     1       7.931  15.482  87.182  1.00  0.00     0.144 A 
HETATM   45  C5  UNL     1       8.144  15.659  85.849  1.00  0.00     0.083 A 
HETATM   46  N3  UNL     1       7.403  14.746  85.207  1.00  0.00    -0.283 N 
HETATM   47  N4  UNL     1       6.737  14.006  86.072  1.00  0.00    -0.240 N 
ATOM     48  H3  UNL     1       7.360  14.638  84.194  1.00  0.00     0.188 HD
ATOM     49  H4  UNL     1       6.100  13.241  85.851  1.00  0.00     0.208 HD
BRANCH  45  50
HETATM   50  C6  UNL     1       9.022  16.664  85.265  1.00  0.00     0.146 C 
HETATM   51  N2  UNL     1       9.781  16.367  84.275  1.00  0.00    -0.278 N 
ATOM     52  H2  UNL     1      10.393  17.077  83.873  1.00  0.00     0.193 HD
BRANCH  51  53
HETATM   53  O1  UNL     1       9.774  15.103  83.758  1.00  0.00    -0.290 OA
ATOM     54  H1  UNL     1       9.846  14.970  82.820  1.00  0.00     0.244 HD
ENDBRANCH  51  53
ENDBRANCH  45  50
ENDBRANCH  42  43
ENDBRANCH  39  42
ENDBRANCH  36  38
ENDBRANCH  34  36
ENDBRANCH   1  34
TORSDOF 15
ENDMDL
MODEL 2
REMARK VINA RESULT: -8.480597398      1.768      2.198
REMARK  15 active torsions:
REMARK  status: ('A' for Active; 'I' for Inactive)
REMARK    1  A    between atoms: C2_2  and  C3_3 
REMARK    2  A    between atoms: C3_3  and  N1_4 
REMARK    3  A    between atoms: C5_6  and  C6_7 
REMARK    4  A    between atoms: N2_8  and  O1_10 
REMARK    5  A    between atoms: N5_16  and  N6_18 
REMARK    6  A    between atoms: N6_18  and  C7_20 
REMARK    7  A    between atoms: C7_20  and  N7_22 
REMARK    8  A    between atoms: C9_27  and  C10_28 
REMARK    9  A    between atoms: C10_28  and  O2_29 
REMARK   10  A    between atoms: C10_28  and  C15_48 
REMARK   11  A    between atoms: O2_29  and  C11_30 
REMARK   12  A    between atoms: C11_30  and  C12_31 
REMARK       I    between atoms: C12_31  and  N9_33 
REMARK   13  A    between atoms: C14_40  and  S3_41 
REMARK   14  A    between atoms: S3_41  and  N12_42 
REMARK   15  A    between atoms: C15_48  and  C16_50 
ROOT
HETATM    1  N7  UNL     1       2.660  16.419  86.575  1.00  0.00    -0.232 N 
HETATM    2  N8  UNL     1       1.443  16.604  86.146  1.00  0.00    -0.281 N 
ATOM      3  H8  UNL     1       0.607  16.448  86.708  1.00  0.00     0.188 HD
HETATM    4  C8  UNL     1       1.429  17.026  84.869  1.00  0.00     0.127 A 
HETATM    5  S2  UNL     1       0.113  17.367  83.976  1.00  0.00    -0.058 SA
HETATM    6  C9  UNL     1       2.750  17.113  84.464  1.00  0.00     0.042 A 
HETATM    7  C17 UNL     1       3.485  16.723  85.566  1.00  0.00     0.045 A 
HETATM    8  C18 UNL     1       4.963  16.646  85.643  1.00  0.00     0.071 C 
ENDROOT
BRANCH   6   9
HETATM    9  C10 UNL     1       3.273  17.538  83.116  1.00  0.00     0.241 C 
BRANCH   9  10
HETATM   10  O2  UNL     1       2.614  18.645  82.642  1.00  0.00    -0.364 OA
BRANCH  10  11
HETATM   11  C11 UNL     1       3.489  19.623  82.164  1.00  0.00     0.272 C 
BRANCH  11  12
HETATM   12  C12 UNL     1       2.683  20.683  81.510  1.00  0.00     0.247 C 
HETATM   13  O3  UNL     1       2.362  21.749  82.115  1.00  0.00    -0.271 OA
HETATM   14  N9  UNL     1       2.227  20.553  80.160  1.00  0.00    -0.304 N 
HETATM   15  C13 UNL     1       0.976  20.908  79.963  1.00  0.00     0.168 A 
ATOM     16  H9  UNL     1       2.825  20.210  79.408  1.00  0.00     0.171 HD
HETATM   17  N10 UNL     1       0.292  20.891  78.814  1.00  0.00    -0.278 N 
HETATM   18  S4  UNL     1      -0.195  21.502  81.057  1.00  0.00    -0.020 SA
HETATM   19  N11 UNL     1      -0.917  21.276  78.822  1.00  0.00    -0.281 N 
ATOM     20  H10 UNL     1       0.733  20.576  77.950  1.00  0.00     0.189 HD
HETATM   21  C14 UNL     1      -1.481  21.683  79.948  1.00  0.00     0.208 A 
ATOM     22  H11 UNL     1      -1.456  21.272  77.956  1.00  0.00     0.188 HD
BRANCH  21  23
HETATM   23  S3  UNL     1      -3.143  22.254  80.175  1.00  0.00     0.280 S 
HETATM   24  O4  UNL     1      -3.550  23.040  78.944  1.00  0.00    -0.199 OA
HETATM   25  O5  UNL     1      -4.057  21.100  80.411  1.00  0.00    -0.199 OA
BRANCH  23  26
HETATM   26  N12 UNL     1      -3.182  23.281  81.560  1.00  0.00    -0.323 N 
ATOM     27 2H12 UNL     1      -2.527  24.041  81.744  1.00  0.00     0.169 HD
ATOM     28 1H12 UNL     1      -3.964  22.998  82.150  1.00  0.00     0.169 HD
ENDBRANCH  23  26
ENDBRANCH  21  23
ENDBRANCH  11  12
ENDBRANCH  10  11
ENDBRANCH   9  10
BRANCH   9  29
HETATM   29  C15 UNL     1       3.087  16.421  82.161  1.00  0.00     0.258 C 
HETATM   30  O6  UNL     1       2.252  16.551  81.208  1.00  0.00    -0.282 OA
BRANCH  29  31
HETATM   31  C16 UNL     1       3.801  15.156  82.229  1.00  0.00     0.249 C 
HETATM   32  O7  UNL     1       3.205  14.091  81.940  1.00  0.00    -0.642 OA
HETATM   33  O8  UNL     1       5.129  15.085  82.605  1.00  0.00    -0.642 OA
ENDBRANCH  29  31
ENDBRANCH   9  29
ENDBRANCH   6   9
BRANCH   1  34
HETATM   34  C7  UNL     1       2.978  15.967  87.908  1.00  0.00     0.212 C 
HETATM   35  S1  UNL     1       2.793  14.393  88.284  1.00  0.00    -0.037 SA
BRANCH  34  36
HETATM   36  N6  UNL     1       3.443  16.848  88.894  1.00  0.00    -0.275 N 
ATOM     37  H6  UNL     1       2.774  17.379  89.453  1.00  0.00     0.189 HD
BRANCH  36  38
HETATM   38  N5  UNL     1       4.800  17.008  89.120  1.00  0.00    -0.305 N 
HETATM   39  C2  UNL     1       5.431  18.085  88.855  1.00  0.00     0.019 C 
HETATM   40  C1  UNL     1       4.706  19.244  88.279  1.00  0.00     0.066 C 
ATOM     41  H5  UNL     1       5.321  16.226  89.516  1.00  0.00     0.186 HD
BRANCH  39  42
HETATM   42  C3  UNL     1       6.879  18.150  89.131  1.00  0.00     0.203 C 
BRANCH  42  43
HETATM   43  N1  UNL     1       7.588  17.893  87.900  1.00  0.00    -0.281 N 
HETATM   44  C4  UNL     1       8.038  16.658  87.552  1.00  0.00     0.144 A 
HETATM   45  C5  UNL     1       8.650  16.802  86.345  1.00  0.00     0.083 A 
HETATM   46  N3  UNL     1       8.553  18.095  86.006  1.00  0.00    -0.283 N 
HETATM   47  N4  UNL     1       7.910  18.766  86.941  1.00  0.00    -0.240 N 
ATOM     48  H3  UNL     1       8.923  18.502  85.147  1.00  0.00     0.188 HD
ATOM     49  H4  UNL     1       7.700  19.765  86.934  1.00  0.00     0.208 HD
BRANCH  45  50
HETATM   50  C6  UNL     1       9.282  15.728  85.590  1.00  0.00     0.146 C 
HETATM   51  N2  UNL     1       8.895  15.458  84.398  1.00  0.00    -0.278 N 
ATOM     52  H2  UNL     1       9.343  14.704  83.877  1.00  0.00     0.193 HD
BRANCH  51  53
HETATM   53  O1  UNL     1       7.885  16.175  83.824  1.00  0.00    -0.290 OA
ATOM     54  H1  UNL     1       7.036  16.230  84.247  1.00  0.00     0.244 HD
ENDBRANCH  51  53
ENDBRANCH  45  50
ENDBRANCH  42  43
ENDBRANCH  39  42
ENDBRANCH  36  38
ENDBRANCH  34  36
ENDBRANCH   1  34
TORSDOF 15
ENDMDL
MODEL 3
REMARK VINA RESULT: -8.386665406      3.747     10.637
REMARK  15 active torsions:
REMARK  status: ('A' for Active; 'I' for Inactive)
REMARK    1  A    between atoms: C2_2  and  C3_3 
REMARK    2  A    between atoms: C3_3  and  N1_4 
REMARK    3  A    between atoms: C5_6  and  C6_7 
REMARK    4  A    between atoms: N2_8  and  O1_10 
REMARK    5  A    between atoms: N5_16  and  N6_18 
REMARK    6  A    between atoms: N6_18  and  C7_20 
REMARK    7  A    between atoms: C7_20  and  N7_22 
REMARK    8  A    between atoms: C9_27  and  C10_28 
REMARK    9  A    between atoms: C10_28  and  O2_29 
REMARK   10  A    between atoms: C10_28  and  C15_48 
REMARK   11  A    between atoms: O2_29  and  C11_30 
REMARK   12  A    between atoms: C11_30  and  C12_31 
REMARK       I    between atoms: C12_31  and  N9_33 
REMARK   13  A    between atoms: C14_40  and  S3_41 
REMARK   14  A    between atoms: S3_41  and  N12_42 
REMARK   15  A    between atoms: C15_48  and  C16_50 
ROOT
HETATM    1  N7  UNL     1       4.357  17.053  84.193  1.00  0.00    -0.232 N 
HETATM    2  N8  UNL     1       4.407  17.635  85.358  1.00  0.00    -0.281 N 
ATOM      3  H8  UNL     1       3.717  18.307  85.693  1.00  0.00     0.188 HD
HETATM    4  C8  UNL     1       5.482  17.238  86.062  1.00  0.00     0.127 A 
HETATM    5  S2  UNL     1       5.898  17.731  87.556  1.00  0.00    -0.058 SA
HETATM    6  C9  UNL     1       6.163  16.329  85.270  1.00  0.00     0.042 A 
HETATM    7  C17 UNL     1       5.422  16.246  84.109  1.00  0.00     0.045 A 
HETATM    8  C18 UNL     1       5.737  15.398  82.935  1.00  0.00     0.071 C 
ENDROOT
BRANCH   6   9
HETATM    9  C10 UNL     1       7.437  15.595  85.602  1.00  0.00     0.241 C 
BRANCH   9  10
HETATM   10  O2  UNL     1       7.549  15.355  86.948  1.00  0.00    -0.364 OA
BRANCH  10  11
HETATM   11  C11 UNL     1       7.424  14.000  87.262  1.00  0.00     0.272 C 
BRANCH  11  12
HETATM   12  C12 UNL     1       6.328  13.855  88.251  1.00  0.00     0.247 C 
HETATM   13  O3  UNL     1       6.551  13.519  89.453  1.00  0.00    -0.271 OA
HETATM   14  N9  UNL     1       4.961  14.087  87.896  1.00  0.00    -0.304 N 
HETATM   15  C13 UNL     1       4.112  13.194  88.354  1.00  0.00     0.168 A 
ATOM     16  H9  UNL     1       4.668  14.884  87.330  1.00  0.00     0.171 HD
HETATM   17  N10 UNL     1       2.787  13.160  88.179  1.00  0.00    -0.278 N 
HETATM   18  S4  UNL     1       4.374  11.798  89.306  1.00  0.00    -0.020 SA
HETATM   19  N11 UNL     1       2.129  12.209  88.703  1.00  0.00    -0.281 N 
ATOM     20  H10 UNL     1       2.314  13.882  87.635  1.00  0.00     0.189 HD
HETATM   21  C14 UNL     1       2.750  11.275  89.406  1.00  0.00     0.208 A 
ATOM     22  H11 UNL     1       1.117  12.165  88.583  1.00  0.00     0.188 HD
BRANCH  21  23
HETATM   23  S3  UNL     1       2.027   9.875  90.214  1.00  0.00     0.280 S 
HETATM   24  O4  UNL     1       3.008   8.721  90.141  1.00  0.00    -0.199 OA
HETATM   25  O5  UNL     1       1.690  10.213  91.627  1.00  0.00    -0.199 OA
BRANCH  23  26
HETATM   26  N12 UNL     1       0.574   9.456  89.385  1.00  0.00    -0.323 N 
ATOM     27 2H12 UNL     1       0.300   9.811  88.469  1.00  0.00     0.169 HD
ATOM     28 1H12 UNL     1       0.049   8.802  89.965  1.00  0.00     0.169 HD
ENDBRANCH  23  26
ENDBRANCH  21  23
ENDBRANCH  11  12
ENDBRANCH  10  11
ENDBRANCH   9  10
BRANCH   9  29
HETATM   29  C15 UNL     1       8.588  16.416  85.160  1.00  0.00     0.258 C 
HETATM   30  O6  UNL     1       8.911  16.419  83.928  1.00  0.00    -0.282 OA
BRANCH  29  31
HETATM   31  C16 UNL     1       9.397  17.238  86.045  1.00  0.00     0.249 C 
HETATM   32  O7  UNL     1      10.431  16.755  86.566  1.00  0.00    -0.642 OA
HETATM   33  O8  UNL     1       9.063  18.547  86.335  1.00  0.00    -0.642 OA
ENDBRANCH  29  31
ENDBRANCH   9  29
ENDBRANCH   6   9
BRANCH   1  34
HETATM   34  C7  UNL     1       3.314  17.290  83.224  1.00  0.00     0.212 C 
HETATM   35  S1  UNL     1       1.902  16.490  83.359  1.00  0.00    -0.037 SA
BRANCH  34  36
HETATM   36  N6  UNL     1       3.482  18.192  82.165  1.00  0.00    -0.275 N 
ATOM     37  H6  UNL     1       4.171  17.995  81.438  1.00  0.00     0.189 HD
BRANCH  36  38
HETATM   38  N5  UNL     1       2.725  19.350  82.093  1.00  0.00    -0.305 N 
HETATM   39  C2  UNL     1       3.200  20.474  81.721  1.00  0.00     0.019 C 
HETATM   40  C1  UNL     1       4.629  20.583  81.339  1.00  0.00     0.066 C 
ATOM     41  H5  UNL     1       1.739  19.302  82.350  1.00  0.00     0.186 HD
BRANCH  39  42
HETATM   42  C3  UNL     1       2.307  21.649  81.682  1.00  0.00     0.203 C 
BRANCH  42  43
HETATM   43  N1  UNL     1       1.294  21.416  80.680  1.00  0.00    -0.281 N 
HETATM   44  C4  UNL     1      -0.026  21.297  80.979  1.00  0.00     0.144 A 
HETATM   45  C5  UNL     1      -0.667  21.084  79.797  1.00  0.00     0.083 A 
HETATM   46  N3  UNL     1       0.268  21.080  78.837  1.00  0.00    -0.283 N 
HETATM   47  N4  UNL     1       1.462  21.281  79.361  1.00  0.00    -0.240 N 
ATOM     48  H3  UNL     1       0.083  20.942  77.844  1.00  0.00     0.188 HD
ATOM     49  H4  UNL     1       2.346  21.324  78.854  1.00  0.00     0.208 HD
BRANCH  45  50
HETATM   50  C6  UNL     1      -2.103  20.899  79.642  1.00  0.00     0.146 C 
HETATM   51  N2  UNL     1      -2.810  21.784  79.041  1.00  0.00    -0.278 N 
ATOM     52  H2  UNL     1      -3.816  21.647  78.937  1.00  0.00     0.193 HD
BRANCH  51  53
HETATM   53  O1  UNL     1      -2.223  22.910  78.540  1.00  0.00    -0.290 OA
ATOM     54  H1  UNL     1      -1.661  23.442  79.091  1.00  0.00     0.244 HD
ENDBRANCH  51  53
ENDBRANCH  45  50
ENDBRANCH  42  43
ENDBRANCH  39  42
ENDBRANCH  36  38
ENDBRANCH  34  36
ENDBRANCH   1  34
TORSDOF 15
ENDMDL
MODEL 4
REMARK VINA RESULT: -8.367783692      4.392     11.252
REMARK  15 active torsions:
REMARK  status: ('A' for Active; 'I' for Inactive)
REMARK    1  A    between atoms: C2_2  and  C3_3 
REMARK    2  A    between atoms: C3_3  and  N1_4 
REMARK    3  A    between atoms: C5_6  and  C6_7 
REMARK    4  A    between atoms: N2_8  and  O1_10 
REMARK    5  A    between atoms: N5_16  and  N6_18 
REMARK    6  A    between atoms: N6_18  and  C7_20 
REMARK    7  A    between atoms: C7_20  and  N7_22 
REMARK    8  A    between atoms: C9_27  and  C10_28 
REMARK    9  A    between atoms: C10_28  and  O2_29 
REMARK   10  A    between atoms: C10_28  and  C15_48 
REMARK   11  A    between atoms: O2_29  and  C11_30 
REMARK   12  A    between atoms: C11_30  and  C12_31 
REMARK       I    between atoms: C12_31  and  N9_33 
REMARK   13  A    between atoms: C14_40  and  S3_41 
REMARK   14  A    between atoms: S3_41  and  N12_42 
REMARK   15  A    between atoms: C15_48  and  C16_50 
ROOT
HETATM    1  N7  UNL     1       4.290  17.224  84.498  1.00  0.00    -0.232 N 
HETATM    2  N8  UNL     1       4.124  17.763  85.673  1.00  0.00    -0.281 N 
ATOM      3  H8  UNL     1       3.337  18.360  85.924  1.00  0.00     0.188 HD
HETATM    4  C8  UNL     1       5.122  17.433  86.513  1.00  0.00     0.127 A 
HETATM    5  S2  UNL     1       5.280  17.902  88.062  1.00  0.00    -0.058 SA
HETATM    6  C9  UNL     1       5.987  16.617  85.802  1.00  0.00     0.042 A 
HETATM    7  C17 UNL     1       5.425  16.515  84.545  1.00  0.00     0.045 A 
HETATM    8  C18 UNL     1       5.976  15.744  83.406  1.00  0.00     0.071 C 
ENDROOT
BRANCH   6   9
HETATM    9  C10 UNL     1       7.263  15.983  86.292  1.00  0.00     0.241 C 
BRANCH   9  10
HETATM   10  O2  UNL     1       8.160  15.795  85.270  1.00  0.00    -0.364 OA
BRANCH  10  11
HETATM   11  C11 UNL     1       9.485  15.843  85.708  1.00  0.00     0.272 C 
BRANCH  11  12
HETATM   12  C12 UNL     1      10.201  16.862  84.901  1.00  0.00     0.247 C 
HETATM   13  O3  UNL     1       9.911  17.077  83.685  1.00  0.00    -0.271 OA
HETATM   14  N9  UNL     1      11.255  17.654  85.456  1.00  0.00    -0.304 N 
HETATM   15  C13 UNL     1      12.311  17.787  84.684  1.00  0.00     0.168 A 
ATOM     16  H9  UNL     1      11.193  18.082  86.380  1.00  0.00     0.171 HD
HETATM   17  N10 UNL     1      13.434  18.466  84.944  1.00  0.00    -0.278 N 
HETATM   18  S4  UNL     1      12.631  17.168  83.123  1.00  0.00    -0.020 SA
HETATM   19  N11 UNL     1      14.352  18.479  84.067  1.00  0.00    -0.281 N 
ATOM     20  H10 UNL     1      13.551  18.961  85.827  1.00  0.00     0.189 HD
HETATM   21  C14 UNL     1      14.192  17.832  82.923  1.00  0.00     0.208 A 
ATOM     22  H11 UNL     1      15.215  18.991  84.244  1.00  0.00     0.188 HD
BRANCH  21  23
HETATM   23  S3  UNL     1      15.339  17.724  81.577  1.00  0.00     0.280 S 
HETATM   24  O4  UNL     1      14.571  17.352  80.324  1.00  0.00    -0.199 OA
HETATM   25  O5  UNL     1      16.059  19.018  81.409  1.00  0.00    -0.199 OA
BRANCH  23  26
HETATM   26  N12 UNL     1      16.491  16.494  81.939  1.00  0.00    -0.323 N 
ATOM     27 2H12 UNL     1      16.415  15.518  81.651  1.00  0.00     0.169 HD
ATOM     28 1H12 UNL     1      17.248  16.910  82.481  1.00  0.00     0.169 HD
ENDBRANCH  23  26
ENDBRANCH  21  23
ENDBRANCH  11  12
ENDBRANCH  10  11
ENDBRANCH   9  10
BRANCH   9  29
HETATM   29  C15 UNL     1       6.940  14.672  86.899  1.00  0.00     0.258 C 
HETATM   30  O6  UNL     1       6.499  13.735  86.156  1.00  0.00    -0.282 OA
BRANCH  29  31
HETATM   31  C16 UNL     1       7.091  14.362  88.312  1.00  0.00     0.249 C 
HETATM   32  O7  UNL     1       7.736  15.142  89.052  1.00  0.00    -0.642 OA
HETATM   33  O8  UNL     1       6.541  13.225  88.874  1.00  0.00    -0.642 OA
ENDBRANCH  29  31
ENDBRANCH   9  29
ENDBRANCH   6   9
BRANCH   1  34
HETATM   34  C7  UNL     1       3.375  17.407  83.398  1.00  0.00     0.212 C 
HETATM   35  S1  UNL     1       1.955  16.609  83.398  1.00  0.00    -0.037 SA
BRANCH  34  36
HETATM   36  N6  UNL     1       3.674  18.255  82.323  1.00  0.00    -0.275 N 
ATOM     37  H6  UNL     1       4.398  17.988  81.655  1.00  0.00     0.189 HD
BRANCH  36  38
HETATM   38  N5  UNL     1       2.999  19.453  82.156  1.00  0.00    -0.305 N 
HETATM   39  C2  UNL     1       2.464  19.807  81.053  1.00  0.00     0.019 C 
HETATM   40  C1  UNL     1       2.549  18.915  79.871  1.00  0.00     0.066 C 
ATOM     41  H5  UNL     1       2.925  20.084  82.954  1.00  0.00     0.186 HD
BRANCH  39  42
HETATM   42  C3  UNL     1       1.769  21.107  80.981  1.00  0.00     0.203 C 
BRANCH  42  43
HETATM   43  N1  UNL     1       0.347  20.865  81.030  1.00  0.00    -0.281 N 
HETATM   44  C4  UNL     1      -0.492  21.188  80.009  1.00  0.00     0.144 A 
HETATM   45  C5  UNL     1      -1.739  20.819  80.412  1.00  0.00     0.083 A 
HETATM   46  N3  UNL     1      -1.619  20.295  81.638  1.00  0.00    -0.283 N 
HETATM   47  N4  UNL     1      -0.358  20.317  82.024  1.00  0.00    -0.240 N 
ATOM     48  H3  UNL     1      -2.392  19.930  82.195  1.00  0.00     0.188 HD
ATOM     49  H4  UNL     1       0.009  19.980  82.914  1.00  0.00     0.208 HD
BRANCH  45  50
HETATM   50  C6  UNL     1      -2.956  20.980  79.626  1.00  0.00     0.146 C 
HETATM   51  N2  UNL     1      -4.034  21.402  80.179  1.00  0.00    -0.278 N 
ATOM     52  H2  UNL     1      -4.881  21.511  79.621  1.00  0.00     0.193 HD
BRANCH  51  53
HETATM   53  O1  UNL     1      -4.051  21.706  81.510  1.00  0.00    -0.290 OA
ATOM     54  H1  UNL     1      -3.968  21.017  82.159  1.00  0.00     0.244 HD
ENDBRANCH  51  53
ENDBRANCH  45  50
ENDBRANCH  42  43
ENDBRANCH  39  42
ENDBRANCH  36  38
ENDBRANCH  34  36
ENDBRANCH   1  34
TORSDOF 15
ENDMDL
MODEL 5
REMARK VINA RESULT: -8.152671724      4.346     11.016
REMARK  15 active torsions:
REMARK  status: ('A' for Active; 'I' for Inactive)
REMARK    1  A    between atoms: C2_2  and  C3_3 
REMARK    2  A    between atoms: C3_3  and  N1_4 
REMARK    3  A    between atoms: C5_6  and  C6_7 
REMARK    4  A    between atoms: N2_8  and  O1_10 
REMARK    5  A    between atoms: N5_16  and  N6_18 
REMARK    6  A    between atoms: N6_18  and  C7_20 
REMARK    7  A    between atoms: C7_20  and  N7_22 
REMARK    8  A    between atoms: C9_27  and  C10_28 
REMARK    9  A    between atoms: C10_28  and  O2_29 
REMARK   10  A    between atoms: C10_28  and  C15_48 
REMARK   11  A    between atoms: O2_29  and  C11_30 
REMARK   12  A    between atoms: C11_30  and  C12_31 
REMARK       I    between atoms: C12_31  and  N9_33 
REMARK   13  A    between atoms: C14_40  and  S3_41 
REMARK   14  A    between atoms: S3_41  and  N12_42 
REMARK   15  A    between atoms: C15_48  and  C16_50 
ROOT
HETATM    1  N7  UNL     1       2.846  16.869  84.225  1.00  0.00    -0.232 N 
HETATM    2  N8  UNL     1       1.661  17.005  84.750  1.00  0.00    -0.281 N 
ATOM      3  H8  UNL     1       0.796  17.046  84.211  1.00  0.00     0.188 HD
HETATM    4  C8  UNL     1       1.721  17.085  86.092  1.00  0.00     0.127 A 
HETATM    5  S2  UNL     1       0.465  17.258  87.110  1.00  0.00    -0.058 SA
HETATM    6  C9  UNL     1       3.059  16.990  86.436  1.00  0.00     0.042 A 
HETATM    7  C17 UNL     1       3.725  16.856  85.234  1.00  0.00     0.045 A 
HETATM    8  C18 UNL     1       5.191  16.718  85.063  1.00  0.00     0.071 C 
ENDROOT
BRANCH   6   9
HETATM    9  C10 UNL     1       3.658  17.027  87.818  1.00  0.00     0.241 C 
BRANCH   9  10
HETATM   10  O2  UNL     1       2.900  16.321  88.719  1.00  0.00    -0.364 OA
BRANCH  10  11
HETATM   11  C11 UNL     1       3.677  15.526  89.563  1.00  0.00     0.272 C 
BRANCH  11  12
HETATM   12  C12 UNL     1       3.598  14.125  89.078  1.00  0.00     0.247 C 
HETATM   13  O3  UNL     1       2.802  13.781  88.154  1.00  0.00    -0.271 OA
HETATM   14  N9  UNL     1       4.420  13.092  89.632  1.00  0.00    -0.304 N 
HETATM   15  C13 UNL     1       3.795  11.962  89.876  1.00  0.00     0.168 A 
ATOM     16  H9  UNL     1       5.413  13.224  89.823  1.00  0.00     0.171 HD
HETATM   17  N10 UNL     1       4.308  10.838  90.389  1.00  0.00    -0.278 N 
HETATM   18  S4  UNL     1       2.160  11.523  89.641  1.00  0.00    -0.020 SA
HETATM   19  N11 UNL     1       3.541   9.840  90.553  1.00  0.00    -0.281 N 
ATOM     20  H10 UNL     1       5.295  10.784  90.642  1.00  0.00     0.189 HD
HETATM   21  C14 UNL     1       2.262   9.920  90.223  1.00  0.00     0.208 A 
ATOM     22  H11 UNL     1       3.913   8.973  90.941  1.00  0.00     0.188 HD
BRANCH  21  23
HETATM   23  S3  UNL     1       1.030   8.655  90.370  1.00  0.00     0.280 S 
HETATM   24  O4  UNL     1      -0.296   9.223  89.904  1.00  0.00    -0.199 OA
HETATM   25  O5  UNL     1       1.421   7.460  89.569  1.00  0.00    -0.199 OA
BRANCH  23  26
HETATM   26  N12 UNL     1       0.915   8.195  92.028  1.00  0.00    -0.323 N 
ATOM     27 2H12 UNL     1       0.516   8.772  92.769  1.00  0.00     0.169 HD
ATOM     28 1H12 UNL     1       1.310   7.261  92.132  1.00  0.00     0.169 HD
ENDBRANCH  23  26
ENDBRANCH  21  23
ENDBRANCH  11  12
ENDBRANCH  10  11
ENDBRANCH   9  10
BRANCH   9  29
HETATM   29  C15 UNL     1       3.743  18.438  88.261  1.00  0.00     0.258 C 
HETATM   30  O6  UNL     1       2.789  18.934  88.944  1.00  0.00    -0.282 OA
BRANCH  29  31
HETATM   31  C16 UNL     1       4.859  19.324  87.969  1.00  0.00     0.249 C 
HETATM   32  O7  UNL     1       5.961  18.837  87.618  1.00  0.00    -0.642 OA
HETATM   33  O8  UNL     1       4.747  20.698  88.065  1.00  0.00    -0.642 OA
ENDBRANCH  29  31
ENDBRANCH   9  29
ENDBRANCH   6   9
BRANCH   1  34
HETATM   34  C7  UNL     1       3.084  16.759  82.806  1.00  0.00     0.212 C 
HETATM   35  S1  UNL     1       3.042  15.293  82.099  1.00  0.00    -0.037 SA
BRANCH  34  36
HETATM   36  N6  UNL     1       3.353  17.885  82.015  1.00  0.00    -0.275 N 
ATOM     37  H6  UNL     1       4.170  17.888  81.404  1.00  0.00     0.189 HD
BRANCH  36  38
HETATM   38  N5  UNL     1       2.523  18.993  82.053  1.00  0.00    -0.305 N 
HETATM   39  C2  UNL     1       2.920  20.174  81.777  1.00  0.00     0.019 C 
HETATM   40  C1  UNL     1       4.333  20.408  81.393  1.00  0.00     0.066 C 
ATOM     41  H5  UNL     1       1.546  18.859  82.313  1.00  0.00     0.186 HD
BRANCH  39  42
HETATM   42  C3  UNL     1       1.954  21.287  81.851  1.00  0.00     0.203 C 
BRANCH  42  43
HETATM   43  N1  UNL     1       1.082  21.207  80.703  1.00  0.00    -0.281 N 
HETATM   44  C4  UNL     1      -0.262  21.030  80.809  1.00  0.00     0.144 A 
HETATM   45  C5  UNL     1      -0.743  21.002  79.536  1.00  0.00     0.083 A 
HETATM   46  N3  UNL     1       0.304  21.160  78.715  1.00  0.00    -0.283 N 
HETATM   47  N4  UNL     1       1.417  21.286  79.412  1.00  0.00    -0.240 N 
ATOM     48  H3  UNL     1       0.249  21.180  77.697  1.00  0.00     0.188 HD
ATOM     49  H4  UNL     1       2.355  21.417  79.035  1.00  0.00     0.208 HD
BRANCH  45  50
HETATM   50  C6  UNL     1      -2.143  20.832  79.171  1.00  0.00     0.146 C 
HETATM   51  N2  UNL     1      -2.822  21.822  78.721  1.00  0.00    -0.278 N 
ATOM     52  H2  UNL     1      -3.802  21.693  78.468  1.00  0.00     0.193 HD
BRANCH  51  53
HETATM   53  O1  UNL     1      -2.238  23.048  78.579  1.00  0.00    -0.290 OA
ATOM     54  H1  UNL     1      -1.505  23.162  77.986  1.00  0.00     0.244 HD
ENDBRANCH  51  53
ENDBRANCH  45  50
ENDBRANCH  42  43
ENDBRANCH  39  42
ENDBRANCH  36  38
ENDBRANCH  34  36
ENDBRANCH   1  34
TORSDOF 15
ENDMDL
