MODEL 1
REMARK VINA RESULT: -6.336535344      0.000      0.000
REMARK  8 active torsions:
REMARK  status: ('A' for Active; 'I' for Inactive)
REMARK    1  A    between atoms: C3_4  and  C4_5 
REMARK    2  A    between atoms: C4_5  and  N2_6 
REMARK    3  A    between atoms: N2_6  and  N3_8 
REMARK       I    between atoms: N3_8  and  C5_9 
REMARK    4  A    between atoms: C5_9  and  C6_11 
REMARK    5  A    between atoms: C6_11  and  S1_12 
REMARK    6  A    between atoms: S1_12  and  C7_13 
REMARK    7  A    between atoms: C8_18  and  N6_19 
REMARK    8  A    between atoms: C9_24  and  N8_25 
ROOT
HETATM    1  N3  UNL     1      53.008  19.297  38.625  1.00  0.00    -0.287 NA
HETATM    2  C5  UNL     1      52.965  20.532  39.161  1.00  0.00     0.322 C 
HETATM    3  O1  UNL     1      52.004  21.193  39.570  1.00  0.00    -0.254 OA
ENDROOT
BRANCH   1   4
HETATM    4  N2  UNL     1      53.046  18.142  38.124  1.00  0.00    -0.243 N 
ATOM      5  H2  UNL     1      53.124  17.509  38.920  1.00  0.00     0.201 HD
BRANCH   4   6
HETATM    6  C4  UNL     1      53.034  17.408  37.124  1.00  0.00     0.137 C 
BRANCH   6   7
HETATM    7  C3  UNL     1      52.162  17.702  35.967  1.00  0.00     0.041 A 
HETATM    8  C2  UNL     1      52.465  18.738  35.125  1.00  0.00     0.112 A 
HETATM    9  N1  UNL     1      51.627  18.956  34.085  1.00  0.00    -0.313 N 
HETATM   10  C1  UNL     1      51.879  20.047  33.135  1.00  0.00     0.160 C 
HETATM   11  C11 UNL     1      50.533  18.202  33.862  1.00  0.00     0.329 A 
HETATM   12  N9  UNL     1      50.217  17.162  34.695  1.00  0.00    -0.289 N 
HETATM   13  O2  UNL     1      49.754  18.404  32.898  1.00  0.00    -0.246 OA
HETATM   14  C9  UNL     1      51.033  16.932  35.728  1.00  0.00     0.117 A 
HETATM   15  C10 UNL     1      49.036  16.348  34.449  1.00  0.00     0.163 C 
BRANCH  14  16
HETATM   16  N8  UNL     1      50.769  15.967  36.536  1.00  0.00    -0.384 N 
ATOM     17  H82 UNL     1      51.520  15.344  36.833  1.00  0.00     0.157 HD
ATOM     18  H81 UNL     1      49.807  15.852  36.855  1.00  0.00     0.157 HD
ENDBRANCH  14  16
ENDBRANCH   6   7
ENDBRANCH   4   6
ENDBRANCH   1   4
BRANCH   2  19
HETATM   19  C6  UNL     1      54.303  21.247  39.297  1.00  0.00     0.203 C 
BRANCH  19  20
HETATM   20  S1  UNL     1      54.852  22.008  37.794  1.00  0.00    -0.082 SA
BRANCH  20  21
HETATM   21  C7  UNL     1      55.343  20.813  36.542  1.00  0.00     0.174 A 
HETATM   22  N4  UNL     1      55.786  19.548  36.741  1.00  0.00    -0.265 N 
HETATM   23  N5  UNL     1      56.039  19.003  35.554  1.00  0.00    -0.130 N 
ATOM     24  H4  UNL     1      55.904  19.092  37.646  1.00  0.00     0.189 HD
HETATM   25  C8  UNL     1      55.769  19.892  34.584  1.00  0.00     0.692 A 
ATOM     26  H5  UNL     1      56.386  18.056  35.404  1.00  0.00     0.205 HD
HETATM   27  N7  UNL     1      55.345  20.991  35.213  1.00  0.00    -0.168 N 
ATOM     28  H7  UNL     1      55.060  21.852  34.744  1.00  0.00     0.186 HD
BRANCH  25  29
HETATM   29  N6  UNL     1      55.904  19.719  33.286  1.00  0.00    -0.233 N 
ATOM     30  H62 UNL     1      55.160  19.678  32.589  1.00  0.00     0.174 HD
ATOM     31  H61 UNL     1      56.774  19.606  32.767  1.00  0.00     0.174 HD
ENDBRANCH  25  29
ENDBRANCH  20  21
ENDBRANCH  19  20
ENDBRANCH   2  19
TORSDOF 8
ENDMDL
MODEL 2
REMARK VINA RESULT: -6.127695657      3.048      5.261
REMARK  8 active torsions:
REMARK  status: ('A' for Active; 'I' for Inactive)
REMARK    1  A    between atoms: C3_4  and  C4_5 
REMARK    2  A    between atoms: C4_5  and  N2_6 
REMARK    3  A    between atoms: N2_6  and  N3_8 
REMARK       I    between atoms: N3_8  and  C5_9 
REMARK    4  A    between atoms: C5_9  and  C6_11 
REMARK    5  A    between atoms: C6_11  and  S1_12 
REMARK    6  A    between atoms: S1_12  and  C7_13 
REMARK    7  A    between atoms: C8_18  and  N6_19 
REMARK    8  A    between atoms: C9_24  and  N8_25 
ROOT
HETATM    1  N3  UNL     1      49.600  17.881  34.047  1.00  0.00    -0.287 NA
HETATM    2  C5  UNL     1      49.771  16.847  34.893  1.00  0.00     0.322 C 
HETATM    3  O1  UNL     1      49.067  15.851  35.091  1.00  0.00    -0.254 OA
ENDROOT
BRANCH   1   4
HETATM    4  N2  UNL     1      49.439  18.847  33.255  1.00  0.00    -0.243 N 
ATOM      5  H2  UNL     1      49.017  18.440  32.420  1.00  0.00     0.201 HD
BRANCH   4   6
HETATM    6  C4  UNL     1      49.548  20.057  33.006  1.00  0.00     0.137 C 
BRANCH   6   7
HETATM    7  C3  UNL     1      50.606  20.561  32.103  1.00  0.00     0.041 A 
HETATM    8  C2  UNL     1      51.923  20.445  32.457  1.00  0.00     0.112 A 
HETATM    9  N1  UNL     1      52.843  20.926  31.588  1.00  0.00    -0.313 N 
HETATM   10  C1  UNL     1      54.277  20.841  31.892  1.00  0.00     0.160 C 
HETATM   11  C11 UNL     1      52.506  21.501  30.418  1.00  0.00     0.329 A 
HETATM   12  N9  UNL     1      51.193  21.624  30.049  1.00  0.00    -0.289 N 
HETATM   13  O2  UNL     1      53.358  21.949  29.612  1.00  0.00    -0.246 OA
HETATM   14  C9  UNL     1      50.271  21.154  30.895  1.00  0.00     0.117 A 
HETATM   15  C10 UNL     1      50.834  22.242  28.782  1.00  0.00     0.163 C 
BRANCH  14  16
HETATM   16  N8  UNL     1      49.026  21.255  30.588  1.00  0.00    -0.384 N 
ATOM     17  H82 UNL     1      48.479  22.027  30.969  1.00  0.00     0.157 HD
ATOM     18  H81 UNL     1      48.621  20.552  29.970  1.00  0.00     0.157 HD
ENDBRANCH  14  16
ENDBRANCH   6   7
ENDBRANCH   4   6
ENDBRANCH   1   4
BRANCH   2  19
HETATM   19  C6  UNL     1      51.026  16.891  35.754  1.00  0.00     0.203 C 
BRANCH  19  20
HETATM   20  S1  UNL     1      51.572  18.536  36.123  1.00  0.00    -0.082 SA
BRANCH  20  21
HETATM   21  C7  UNL     1      53.363  18.703  36.089  1.00  0.00     0.174 A 
HETATM   22  N4  UNL     1      54.256  18.177  36.962  1.00  0.00    -0.265 N 
HETATM   23  N5  UNL     1      55.477  18.536  36.577  1.00  0.00    -0.130 N 
ATOM     24  H4  UNL     1      54.029  17.604  37.775  1.00  0.00     0.189 HD
HETATM   25  C8  UNL     1      55.396  19.289  35.467  1.00  0.00     0.692 A 
ATOM     26  H5  UNL     1      56.343  18.281  37.053  1.00  0.00     0.205 HD
HETATM   27  N7  UNL     1      54.093  19.377  35.188  1.00  0.00    -0.168 N 
ATOM     28  H7  UNL     1      53.705  19.887  34.394  1.00  0.00     0.186 HD
BRANCH  25  29
HETATM   29  N6  UNL     1      56.392  19.833  34.800  1.00  0.00    -0.233 N 
ATOM     30  H62 UNL     1      56.931  19.411  34.044  1.00  0.00     0.174 HD
ATOM     31  H61 UNL     1      56.780  20.767  34.926  1.00  0.00     0.174 HD
ENDBRANCH  25  29
ENDBRANCH  20  21
ENDBRANCH  19  20
ENDBRANCH   2  19
TORSDOF 8
ENDMDL
MODEL 3
REMARK VINA RESULT: -6.077572097      2.558      4.892
REMARK  8 active torsions:
REMARK  status: ('A' for Active; 'I' for Inactive)
REMARK    1  A    between atoms: C3_4  and  C4_5 
REMARK    2  A    between atoms: C4_5  and  N2_6 
REMARK    3  A    between atoms: N2_6  and  N3_8 
REMARK       I    between atoms: N3_8  and  C5_9 
REMARK    4  A    between atoms: C5_9  and  C6_11 
REMARK    5  A    between atoms: C6_11  and  S1_12 
REMARK    6  A    between atoms: S1_12  and  C7_13 
REMARK    7  A    between atoms: C8_18  and  N6_19 
REMARK    8  A    between atoms: C9_24  and  N8_25 
ROOT
HETATM    1  N3  UNL     1      49.498  17.640  34.333  1.00  0.00    -0.287 NA
HETATM    2  C5  UNL     1      49.717  16.581  35.135  1.00  0.00     0.322 C 
HETATM    3  O1  UNL     1      49.046  15.558  35.310  1.00  0.00    -0.254 OA
ENDROOT
BRANCH   1   4
HETATM    4  N2  UNL     1      49.291  18.629  33.581  1.00  0.00    -0.243 N 
ATOM      5  H2  UNL     1      48.293  18.603  33.373  1.00  0.00     0.201 HD
BRANCH   4   6
HETATM    6  C4  UNL     1      49.723  19.621  32.973  1.00  0.00     0.137 C 
BRANCH   6   7
HETATM    7  C3  UNL     1      50.944  20.323  33.422  1.00  0.00     0.041 A 
HETATM    8  C2  UNL     1      50.902  21.142  34.518  1.00  0.00     0.112 A 
HETATM    9  N1  UNL     1      52.053  21.757  34.878  1.00  0.00    -0.313 N 
HETATM   10  C1  UNL     1      52.093  22.652  36.042  1.00  0.00     0.160 C 
HETATM   11  C11 UNL     1      53.207  21.589  34.205  1.00  0.00     0.329 A 
HETATM   12  N9  UNL     1      53.267  20.773  33.107  1.00  0.00    -0.289 N 
HETATM   13  O2  UNL     1      54.275  22.160  34.537  1.00  0.00    -0.246 OA
HETATM   14  C9  UNL     1      52.139  20.158  32.737  1.00  0.00     0.117 A 
HETATM   15  C10 UNL     1      54.517  20.592  32.385  1.00  0.00     0.163 C 
BRANCH  14  16
HETATM   16  N8  UNL     1      52.152  19.386  31.708  1.00  0.00    -0.384 N 
ATOM     17  H82 UNL     1      52.087  18.377  31.840  1.00  0.00     0.157 HD
ATOM     18  H81 UNL     1      52.231  19.812  30.785  1.00  0.00     0.157 HD
ENDBRANCH  14  16
ENDBRANCH   6   7
ENDBRANCH   4   6
ENDBRANCH   1   4
BRANCH   2  19
HETATM   19  C6  UNL     1      50.990  16.629  35.970  1.00  0.00     0.203 C 
BRANCH  19  20
HETATM   20  S1  UNL     1      51.231  18.176  36.800  1.00  0.00    -0.082 SA
BRANCH  20  21
HETATM   21  C7  UNL     1      52.945  18.724  36.773  1.00  0.00     0.174 A 
HETATM   22  N4  UNL     1      53.608  19.399  37.743  1.00  0.00    -0.265 N 
HETATM   23  N5  UNL     1      54.854  19.608  37.328  1.00  0.00    -0.130 N 
ATOM     24  H4  UNL     1      53.218  19.696  38.638  1.00  0.00     0.189 HD
HETATM   25  C8  UNL     1      55.015  19.081  36.102  1.00  0.00     0.692 A 
ATOM     26  H5  UNL     1      55.577  20.095  37.858  1.00  0.00     0.205 HD
HETATM   27  N7  UNL     1      53.833  18.545  35.785  1.00  0.00    -0.168 N 
ATOM     28  H7  UNL     1      53.634  18.064  34.907  1.00  0.00     0.186 HD
BRANCH  25  29
HETATM   29  N6  UNL     1      56.105  19.096  35.366  1.00  0.00    -0.233 N 
ATOM     30  H62 UNL     1      57.059  18.899  35.671  1.00  0.00     0.174 HD
ATOM     31  H61 UNL     1      56.173  19.301  34.369  1.00  0.00     0.174 HD
ENDBRANCH  25  29
ENDBRANCH  20  21
ENDBRANCH  19  20
ENDBRANCH   2  19
TORSDOF 8
ENDMDL
MODEL 4
REMARK VINA RESULT: -6.044199859      2.563      4.824
REMARK  8 active torsions:
REMARK  status: ('A' for Active; 'I' for Inactive)
REMARK    1  A    between atoms: C3_4  and  C4_5 
REMARK    2  A    between atoms: C4_5  and  N2_6 
REMARK    3  A    between atoms: N2_6  and  N3_8 
REMARK       I    between atoms: N3_8  and  C5_9 
REMARK    4  A    between atoms: C5_9  and  C6_11 
REMARK    5  A    between atoms: C6_11  and  S1_12 
REMARK    6  A    between atoms: S1_12  and  C7_13 
REMARK    7  A    between atoms: C8_18  and  N6_19 
REMARK    8  A    between atoms: C9_24  and  N8_25 
ROOT
HETATM    1  N3  UNL     1      49.547  17.703  34.274  1.00  0.00    -0.287 NA
HETATM    2  C5  UNL     1      49.745  16.651  35.091  1.00  0.00     0.322 C 
HETATM    3  O1  UNL     1      49.041  15.657  35.299  1.00  0.00    -0.254 OA
ENDROOT
BRANCH   1   4
HETATM    4  N2  UNL     1      49.360  18.686  33.508  1.00  0.00    -0.243 N 
ATOM      5  H2  UNL     1      48.402  18.586  33.173  1.00  0.00     0.201 HD
BRANCH   4   6
HETATM    6  C4  UNL     1      49.786  19.719  32.967  1.00  0.00     0.137 C 
BRANCH   6   7
HETATM    7  C3  UNL     1      51.096  20.295  33.340  1.00  0.00     0.041 A 
HETATM    8  C2  UNL     1      52.212  19.992  32.607  1.00  0.00     0.112 A 
HETATM    9  N1  UNL     1      53.381  20.551  33.000  1.00  0.00    -0.313 N 
HETATM   10  C1  UNL     1      54.625  20.279  32.269  1.00  0.00     0.160 C 
HETATM   11  C11 UNL     1      53.473  21.373  34.062  1.00  0.00     0.329 A 
HETATM   12  N9  UNL     1      52.366  21.686  34.805  1.00  0.00    -0.289 N 
HETATM   13  O2  UNL     1      54.557  21.891  34.428  1.00  0.00    -0.246 OA
HETATM   14  C9  UNL     1      51.203  21.143  34.432  1.00  0.00     0.117 A 
HETATM   15  C10 UNL     1      52.470  22.577  35.950  1.00  0.00     0.163 C 
BRANCH  14  16
HETATM   16  N8  UNL     1      50.140  21.408  35.107  1.00  0.00    -0.384 N 
ATOM     17  H82 UNL     1      49.824  20.749  35.819  1.00  0.00     0.157 HD
ATOM     18  H81 UNL     1      49.641  22.273  34.905  1.00  0.00     0.157 HD
ENDBRANCH  14  16
ENDBRANCH   6   7
ENDBRANCH   4   6
ENDBRANCH   1   4
BRANCH   2  19
HETATM   19  C6  UNL     1      51.038  16.667  35.896  1.00  0.00     0.203 C 
BRANCH  19  20
HETATM   20  S1  UNL     1      51.267  18.152  36.834  1.00  0.00    -0.082 SA
BRANCH  20  21
HETATM   21  C7  UNL     1      52.973  18.725  36.831  1.00  0.00     0.174 A 
HETATM   22  N4  UNL     1      53.617  19.398  37.814  1.00  0.00    -0.265 N 
HETATM   23  N5  UNL     1      54.864  19.630  37.414  1.00  0.00    -0.130 N 
ATOM     24  H4  UNL     1      53.213  19.680  38.708  1.00  0.00     0.189 HD
HETATM   25  C8  UNL     1      55.045  19.117  36.186  1.00  0.00     0.692 A 
ATOM     26  H5  UNL     1      55.574  20.122  37.957  1.00  0.00     0.205 HD
HETATM   27  N7  UNL     1      53.875  18.569  35.850  1.00  0.00    -0.168 N 
ATOM     28  H7  UNL     1      53.691  18.094  34.966  1.00  0.00     0.186 HD
BRANCH  25  29
HETATM   29  N6  UNL     1      56.143  19.157  35.461  1.00  0.00    -0.233 N 
ATOM     30  H62 UNL     1      56.501  19.948  34.926  1.00  0.00     0.174 HD
ATOM     31  H61 UNL     1      56.817  18.405  35.323  1.00  0.00     0.174 HD
ENDBRANCH  25  29
ENDBRANCH  20  21
ENDBRANCH  19  20
ENDBRANCH   2  19
TORSDOF 8
ENDMDL
MODEL 5
REMARK VINA RESULT: -5.920298742      3.230      5.630
REMARK  8 active torsions:
REMARK  status: ('A' for Active; 'I' for Inactive)
REMARK    1  A    between atoms: C3_4  and  C4_5 
REMARK    2  A    between atoms: C4_5  and  N2_6 
REMARK    3  A    between atoms: N2_6  and  N3_8 
REMARK       I    between atoms: N3_8  and  C5_9 
REMARK    4  A    between atoms: C5_9  and  C6_11 
REMARK    5  A    between atoms: C6_11  and  S1_12 
REMARK    6  A    between atoms: S1_12  and  C7_13 
REMARK    7  A    between atoms: C8_18  and  N6_19 
REMARK    8  A    between atoms: C9_24  and  N8_25 
ROOT
HETATM    1  N3  UNL     1      53.539  19.180  34.063  1.00  0.00    -0.287 NA
HETATM    2  C5  UNL     1      54.306  19.122  35.168  1.00  0.00     0.322 C 
HETATM    3  O1  UNL     1      55.535  19.072  35.286  1.00  0.00    -0.254 OA
ENDROOT
BRANCH   1   4
HETATM    4  N2  UNL     1      52.823  19.234  33.027  1.00  0.00    -0.243 N 
ATOM      5  H2  UNL     1      53.475  19.398  32.260  1.00  0.00     0.201 HD
BRANCH   4   6
HETATM    6  C4  UNL     1      51.703  19.183  32.496  1.00  0.00     0.137 C 
BRANCH   6   7
HETATM    7  C3  UNL     1      51.090  20.382  31.885  1.00  0.00     0.041 A 
HETATM    8  C2  UNL     1      51.329  20.681  30.571  1.00  0.00     0.112 A 
HETATM    9  N1  UNL     1      50.739  21.792  30.071  1.00  0.00    -0.313 N 
HETATM   10  C1  UNL     1      50.944  22.185  28.671  1.00  0.00     0.160 C 
HETATM   11  C11 UNL     1      49.945  22.589  30.811  1.00  0.00     0.329 A 
HETATM   12  N9  UNL     1      49.694  22.303  32.127  1.00  0.00    -0.289 N 
HETATM   13  O2  UNL     1      49.398  23.620  30.349  1.00  0.00    -0.246 OA
HETATM   14  C9  UNL     1      50.269  21.209  32.638  1.00  0.00     0.117 A 
HETATM   15  C10 UNL     1      48.833  23.164  32.922  1.00  0.00     0.163 C 
BRANCH  14  16
HETATM   16  N8  UNL     1      50.063  20.908  33.871  1.00  0.00    -0.384 N 
ATOM     17  H82 UNL     1      50.261  19.960  34.193  1.00  0.00     0.157 HD
ATOM     18  H81 UNL     1      49.703  21.631  34.493  1.00  0.00     0.157 HD
ENDBRANCH  14  16
ENDBRANCH   6   7
ENDBRANCH   4   6
ENDBRANCH   1   4
BRANCH   2  19
HETATM   19  C6  UNL     1      53.562  19.119  36.496  1.00  0.00     0.203 C 
BRANCH  19  20
HETATM   20  S1  UNL     1      52.968  17.517  36.968  1.00  0.00    -0.082 SA
BRANCH  20  21
HETATM   21  C7  UNL     1      51.392  17.102  36.206  1.00  0.00     0.174 A 
HETATM   22  N4  UNL     1      50.731  15.922  36.273  1.00  0.00    -0.265 N 
HETATM   23  N5  UNL     1      49.605  16.034  35.574  1.00  0.00    -0.130 N 
ATOM     24  H4  UNL     1      51.043  15.090  36.773  1.00  0.00     0.189 HD
HETATM   25  C8  UNL     1      49.521  17.269  35.052  1.00  0.00     0.692 A 
ATOM     26  H5  UNL     1      48.912  15.295  35.452  1.00  0.00     0.205 HD
HETATM   27  N7  UNL     1      50.625  17.904  35.452  1.00  0.00    -0.168 N 
ATOM     28  H7  UNL     1      50.854  18.870  35.217  1.00  0.00     0.186 HD
BRANCH  25  29
HETATM   29  N6  UNL     1      48.556  17.750  34.296  1.00  0.00    -0.233 N 
ATOM     30  H62 UNL     1      47.571  17.485  34.311  1.00  0.00     0.174 HD
ATOM     31  H61 UNL     1      48.636  18.470  33.579  1.00  0.00     0.174 HD
ENDBRANCH  25  29
ENDBRANCH  20  21
ENDBRANCH  19  20
ENDBRANCH   2  19
TORSDOF 8
ENDMDL
