MODEL 1
REMARK VINA RESULT: -7.868940604      0.000      0.000
REMARK  7 active torsions:
REMARK  status: ('A' for Active; 'I' for Inactive)
REMARK    1  A    between atoms: C2_2  and  N1_3 
REMARK    2  A    between atoms: N2_7  and  C6_8 
REMARK    3  A    between atoms: C6_8  and  C7_9 
REMARK    4  A    between atoms: C7_9  and  N4_13 
REMARK    5  A    between atoms: N4_13  and  C8_15 
REMARK    6  A    between atoms: C8_15  and  N5_17 
REMARK    7  A    between atoms: N5_17  and  N6_19 
REMARK       I    between atoms: N6_19  and  C9_21 
ROOT
HETATM    1  C7  UNL     1       7.047   4.332  93.551  1.00  0.00     0.105 C 
HETATM    2  N3  UNL     1       6.594   4.036  94.718  1.00  0.00    -0.387 N 
ATOM      3  H31 UNL     1       6.946   3.242  95.255  1.00  0.00     0.157 HD
ATOM      4  H32 UNL     1       5.853   4.620  95.107  1.00  0.00     0.157 HD
ENDROOT
BRANCH   1   5
HETATM    5  C6  UNL     1       6.526   5.507  92.756  1.00  0.00     0.348 C 
BRANCH   5   6
HETATM    6  N2  UNL     1       7.255   6.664  93.129  1.00  0.00     0.100 N 
HETATM    7  C5  UNL     1       7.474   6.832  94.546  1.00  0.00     0.275 C 
HETATM    8  C4  UNL     1       7.569   8.349  94.751  1.00  0.00     0.050 C 
HETATM    9  C3  UNL     1       8.984   8.764  94.374  1.00  0.00     0.123 C 
HETATM   10  N1  UNL     1       9.873   7.673  94.243  1.00  0.00    -0.392 N 
HETATM   11  C11 UNL     1       9.724   6.820  93.139  1.00  0.00     0.088 C 
HETATM   12  C10 UNL     1       8.444   6.936  92.355  1.00  0.00     0.317 C 
BRANCH  10  13
HETATM   13  C2  UNL     1      11.213   8.067  94.573  1.00  0.00     0.117 C 
HETATM   14  C1  UNL     1      11.220   9.223  95.554  1.00  0.00     0.026 C 
ENDBRANCH  10  13
ENDBRANCH   5   6
ENDBRANCH   1   5
BRANCH   1  15
HETATM   15  N4  UNL     1       8.075   3.521  93.013  1.00  0.00    -0.321 N 
ATOM     16  H4  UNL     1       8.835   3.232  93.629  1.00  0.00     0.169 HD
BRANCH  15  17
HETATM   17  C8  UNL     1       8.106   3.089  91.661  1.00  0.00     0.192 C 
HETATM   18  S1  UNL     1       9.361   3.485  90.703  1.00  0.00    -0.039 SA
BRANCH  17  19
HETATM   19  N5  UNL     1       7.036   2.309  91.160  1.00  0.00    -0.272 N 
ATOM     20  H5  UNL     1       6.471   1.759  91.807  1.00  0.00     0.189 HD
BRANCH  19  21
HETATM   21  N6  UNL     1       6.742   2.279  89.811  1.00  0.00    -0.252 N 
HETATM   22  C9  UNL     1       6.909   1.105  89.060  1.00  0.00     0.347 C 
HETATM   23  N7  UNL     1       6.589   1.128  87.653  1.00  0.00    -0.038 NA
HETATM   24  O1  UNL     1       7.322  -0.000  89.500  1.00  0.00    -0.249 OA
ATOM     25  H6  UNL     1       6.397   3.123  89.353  1.00  0.00     0.191 HD
ENDBRANCH  19  21
ENDBRANCH  17  19
ENDBRANCH  15  17
ENDBRANCH   1  15
TORSDOF 7
ENDMDL
MODEL 2
REMARK VINA RESULT: -7.840707563      1.165      1.806
REMARK  7 active torsions:
REMARK  status: ('A' for Active; 'I' for Inactive)
REMARK    1  A    between atoms: C2_2  and  N1_3 
REMARK    2  A    between atoms: N2_7  and  C6_8 
REMARK    3  A    between atoms: C6_8  and  C7_9 
REMARK    4  A    between atoms: C7_9  and  N4_13 
REMARK    5  A    between atoms: N4_13  and  C8_15 
REMARK    6  A    between atoms: C8_15  and  N5_17 
REMARK    7  A    between atoms: N5_17  and  N6_19 
REMARK       I    between atoms: N6_19  and  C9_21 
ROOT
HETATM    1  C7  UNL     1       6.497   3.845  92.648  1.00  0.00     0.105 C 
HETATM    2  N3  UNL     1       5.600   3.300  93.393  1.00  0.00    -0.387 N 
ATOM      3  H31 UNL     1       5.559   2.293  93.547  1.00  0.00     0.157 HD
ATOM      4  H32 UNL     1       4.910   3.908  93.833  1.00  0.00     0.157 HD
ENDROOT
BRANCH   1   5
HETATM    5  C6  UNL     1       6.558   5.338  92.419  1.00  0.00     0.348 C 
BRANCH   5   6
HETATM    6  N2  UNL     1       7.707   5.850  93.074  1.00  0.00     0.100 N 
HETATM    7  C5  UNL     1       8.528   6.739  92.286  1.00  0.00     0.275 C 
HETATM    8  C4  UNL     1       9.945   6.560  92.843  1.00  0.00     0.050 C 
HETATM    9  C3  UNL     1      10.042   7.411  94.101  1.00  0.00     0.123 C 
HETATM   10  N1  UNL     1       8.976   8.327  94.243  1.00  0.00    -0.392 N 
HETATM   11  C11 UNL     1       7.704   7.826  94.562  1.00  0.00     0.088 C 
HETATM   12  C10 UNL     1       7.500   6.341  94.416  1.00  0.00     0.317 C 
BRANCH  10  13
HETATM   13  C2  UNL     1       9.401   9.497  94.956  1.00  0.00     0.117 C 
HETATM   14  C1  UNL     1      10.795   9.317  95.526  1.00  0.00     0.026 C 
ENDBRANCH  10  13
ENDBRANCH   5   6
ENDBRANCH   1   5
BRANCH   1  15
HETATM   15  N4  UNL     1       7.457   3.002  92.038  1.00  0.00    -0.321 N 
ATOM     16  H4  UNL     1       7.873   2.258  92.599  1.00  0.00     0.169 HD
BRANCH  15  17
HETATM   17  C8  UNL     1       7.870   3.134  90.687  1.00  0.00     0.192 C 
HETATM   18  S1  UNL     1       9.362   3.681  90.337  1.00  0.00    -0.039 SA
BRANCH  17  19
HETATM   19  N5  UNL     1       6.971   2.782  89.650  1.00  0.00    -0.272 N 
ATOM     20  H5  UNL     1       6.899   3.379  88.826  1.00  0.00     0.189 HD
BRANCH  19  21
HETATM   21  N6  UNL     1       6.190   1.647  89.734  1.00  0.00    -0.252 N 
HETATM   22  C9  UNL     1       6.001   0.814  88.620  1.00  0.00     0.347 C 
HETATM   23  N7  UNL     1       5.174  -0.359  88.762  1.00  0.00    -0.038 NA
HETATM   24  O1  UNL     1       6.496   0.990  87.476  1.00  0.00    -0.249 OA
ATOM     25  H6  UNL     1       5.742   1.409  90.620  1.00  0.00     0.191 HD
ENDBRANCH  19  21
ENDBRANCH  17  19
ENDBRANCH  15  17
ENDBRANCH   1  15
TORSDOF 7
ENDMDL
MODEL 3
REMARK VINA RESULT: -7.738393124      1.636      1.862
REMARK  7 active torsions:
REMARK  status: ('A' for Active; 'I' for Inactive)
REMARK    1  A    between atoms: C2_2  and  N1_3 
REMARK    2  A    between atoms: N2_7  and  C6_8 
REMARK    3  A    between atoms: C6_8  and  C7_9 
REMARK    4  A    between atoms: C7_9  and  N4_13 
REMARK    5  A    between atoms: N4_13  and  C8_15 
REMARK    6  A    between atoms: C8_15  and  N5_17 
REMARK    7  A    between atoms: N5_17  and  N6_19 
REMARK       I    between atoms: N6_19  and  C9_21 
ROOT
HETATM    1  C7  UNL     1       7.904   5.099  91.826  1.00  0.00     0.105 C 
HETATM    2  N3  UNL     1       6.690   5.413  92.117  1.00  0.00    -0.387 N 
ATOM      3  H31 UNL     1       5.923   5.290  91.456  1.00  0.00     0.157 HD
ATOM      4  H32 UNL     1       6.505   5.800  93.042  1.00  0.00     0.157 HD
ENDROOT
BRANCH   1   5
HETATM    5  C6  UNL     1       9.041   5.280  92.805  1.00  0.00     0.348 C 
BRANCH   5   6
HETATM    6  N2  UNL     1       9.060   6.632  93.233  1.00  0.00     0.100 N 
HETATM    7  C5  UNL     1       8.545   6.872  94.560  1.00  0.00     0.275 C 
HETATM    8  C4  UNL     1       7.991   8.301  94.513  1.00  0.00     0.050 C 
HETATM    9  C3  UNL     1       9.172   9.245  94.684  1.00  0.00     0.123 C 
HETATM   10  N1  UNL     1      10.348   8.597  95.127  1.00  0.00    -0.392 N 
HETATM   11  C11 UNL     1      11.025   7.756  94.230  1.00  0.00     0.088 C 
HETATM   12  C10 UNL     1      10.285   7.355  92.981  1.00  0.00     0.317 C 
BRANCH  10  13
HETATM   13  C2  UNL     1      11.159   9.491  95.904  1.00  0.00     0.117 C 
HETATM   14  C1  UNL     1      12.620   9.086  95.859  1.00  0.00     0.026 C 
ENDBRANCH  10  13
ENDBRANCH   5   6
ENDBRANCH   1   5
BRANCH   1  15
HETATM   15  N4  UNL     1       8.162   4.561  90.543  1.00  0.00    -0.321 N 
ATOM     16  H4  UNL     1       8.466   5.195  89.804  1.00  0.00     0.169 HD
BRANCH  15  17
HETATM   17  C8  UNL     1       8.020   3.184  90.228  1.00  0.00     0.192 C 
HETATM   18  S1  UNL     1       9.018   2.085  90.894  1.00  0.00    -0.039 SA
BRANCH  17  19
HETATM   19  N5  UNL     1       7.000   2.780  89.333  1.00  0.00    -0.272 N 
ATOM     20  H5  UNL     1       6.802   3.348  88.509  1.00  0.00     0.189 HD
BRANCH  19  21
HETATM   21  N6  UNL     1       6.266   1.631  89.554  1.00  0.00    -0.252 N 
HETATM   22  C9  UNL     1       5.946   0.763  88.499  1.00  0.00     0.347 C 
HETATM   23  N7  UNL     1       5.176  -0.423  88.784  1.00  0.00    -0.038 NA
HETATM   24  O1  UNL     1       6.273   0.916  87.292  1.00  0.00    -0.249 OA
ATOM     25  H6  UNL     1       5.952   1.410  90.499  1.00  0.00     0.191 HD
ENDBRANCH  19  21
ENDBRANCH  17  19
ENDBRANCH  15  17
ENDBRANCH   1  15
TORSDOF 7
ENDMDL
MODEL 4
REMARK VINA RESULT: -7.709270097      1.613      1.671
REMARK  7 active torsions:
REMARK  status: ('A' for Active; 'I' for Inactive)
REMARK    1  A    between atoms: C2_2  and  N1_3 
REMARK    2  A    between atoms: N2_7  and  C6_8 
REMARK    3  A    between atoms: C6_8  and  C7_9 
REMARK    4  A    between atoms: C7_9  and  N4_13 
REMARK    5  A    between atoms: N4_13  and  C8_15 
REMARK    6  A    between atoms: C8_15  and  N5_17 
REMARK    7  A    between atoms: N5_17  and  N6_19 
REMARK       I    between atoms: N6_19  and  C9_21 
ROOT
HETATM    1  C7  UNL     1       7.100   3.907  93.775  1.00  0.00     0.105 C 
HETATM    2  N3  UNL     1       6.336   3.696  94.788  1.00  0.00    -0.387 N 
ATOM      3  H31 UNL     1       6.582   3.038  95.528  1.00  0.00     0.157 HD
ATOM      4  H32 UNL     1       5.454   4.206  94.836  1.00  0.00     0.157 HD
ENDROOT
BRANCH   1   5
HETATM    5  C6  UNL     1       6.737   4.880  92.677  1.00  0.00     0.348 C 
BRANCH   5   6
HETATM    6  N2  UNL     1       7.338   6.132  92.964  1.00  0.00     0.100 N 
HETATM    7  C5  UNL     1       7.532   6.422  94.366  1.00  0.00     0.275 C 
HETATM    8  C4  UNL     1       7.465   7.951  94.462  1.00  0.00     0.050 C 
HETATM    9  C3  UNL     1       8.831   8.485  94.052  1.00  0.00     0.123 C 
HETATM   10  N1  UNL     1       9.830   7.487  93.997  1.00  0.00    -0.392 N 
HETATM   11  C11 UNL     1       9.777   6.547  92.957  1.00  0.00     0.088 C 
HETATM   12  C10 UNL     1       8.496   6.471  92.170  1.00  0.00     0.317 C 
BRANCH  10  13
HETATM   13  C2  UNL     1      11.120   8.042  94.295  1.00  0.00     0.117 C 
HETATM   14  C1  UNL     1      11.055   8.971  95.491  1.00  0.00     0.026 C 
ENDBRANCH  10  13
ENDBRANCH   5   6
ENDBRANCH   1   5
BRANCH   1  15
HETATM   15  N4  UNL     1       8.325   3.199  93.708  1.00  0.00    -0.321 N 
ATOM     16  H4  UNL     1       9.165   3.652  94.068  1.00  0.00     0.169 HD
BRANCH  15  17
HETATM   17  C8  UNL     1       8.446   1.893  93.166  1.00  0.00     0.192 C 
HETATM   18  S1  UNL     1       8.224   0.589  94.116  1.00  0.00    -0.039 SA
BRANCH  17  19
HETATM   19  N5  UNL     1       8.757   1.738  91.794  1.00  0.00    -0.272 N 
ATOM     20  H5  UNL     1       9.732   1.654  91.508  1.00  0.00     0.189 HD
BRANCH  19  21
HETATM   21  N6  UNL     1       7.765   1.699  90.834  1.00  0.00    -0.252 N 
HETATM   22  C9  UNL     1       7.720   2.648  89.801  1.00  0.00     0.347 C 
HETATM   23  N7  UNL     1       6.661   2.563  88.825  1.00  0.00    -0.038 NA
HETATM   24  O1  UNL     1       8.534   3.594  89.631  1.00  0.00    -0.249 OA
ATOM     25  H6  UNL     1       7.053   0.970  90.877  1.00  0.00     0.191 HD
ENDBRANCH  19  21
ENDBRANCH  17  19
ENDBRANCH  15  17
ENDBRANCH   1  15
TORSDOF 7
ENDMDL
MODEL 5
REMARK VINA RESULT: -7.487182960      1.542      1.781
REMARK  7 active torsions:
REMARK  status: ('A' for Active; 'I' for Inactive)
REMARK    1  A    between atoms: C2_2  and  N1_3 
REMARK    2  A    between atoms: N2_7  and  C6_8 
REMARK    3  A    between atoms: C6_8  and  C7_9 
REMARK    4  A    between atoms: C7_9  and  N4_13 
REMARK    5  A    between atoms: N4_13  and  C8_15 
REMARK    6  A    between atoms: C8_15  and  N5_17 
REMARK    7  A    between atoms: N5_17  and  N6_19 
REMARK       I    between atoms: N6_19  and  C9_21 
ROOT
HETATM    1  C7  UNL     1       8.162   4.663  91.926  1.00  0.00     0.105 C 
HETATM    2  N3  UNL     1       8.263   5.126  90.729  1.00  0.00    -0.387 N 
ATOM      3  H31 UNL     1       8.952   4.772  90.065  1.00  0.00     0.157 HD
ATOM      4  H32 UNL     1       7.630   5.875  90.451  1.00  0.00     0.157 HD
ENDROOT
BRANCH   1   5
HETATM    5  C6  UNL     1       7.141   5.187  92.910  1.00  0.00     0.348 C 
BRANCH   5   6
HETATM    6  N2  UNL     1       7.529   6.489  93.315  1.00  0.00     0.100 N 
HETATM    7  C5  UNL     1       7.525   6.724  94.740  1.00  0.00     0.275 C 
HETATM    8  C4  UNL     1       7.239   8.223  94.888  1.00  0.00     0.050 C 
HETATM    9  C3  UNL     1       8.555   8.954  94.663  1.00  0.00     0.123 C 
HETATM   10  N1  UNL     1       9.682   8.102  94.686  1.00  0.00    -0.392 N 
HETATM   11  C11 UNL     1       9.874   7.221  93.611  1.00  0.00     0.088 C 
HETATM   12  C10 UNL     1       8.710   7.021  92.676  1.00  0.00     0.317 C 
BRANCH  10  13
HETATM   13  C2  UNL     1      10.842   8.804  95.155  1.00  0.00     0.117 C 
HETATM   14  C1  UNL     1      12.109   8.017  94.881  1.00  0.00     0.026 C 
ENDBRANCH  10  13
ENDBRANCH   5   6
ENDBRANCH   1   5
BRANCH   1  15
HETATM   15  N4  UNL     1       9.040   3.622  92.312  1.00  0.00    -0.321 N 
ATOM     16  H4  UNL     1       9.732   3.818  93.036  1.00  0.00     0.169 HD
BRANCH  15  17
HETATM   17  C8  UNL     1       9.009   2.321  91.747  1.00  0.00     0.192 C 
HETATM   18  S1  UNL     1       8.544   1.048  92.648  1.00  0.00    -0.039 SA
BRANCH  17  19
HETATM   19  N5  UNL     1       9.384   2.145  90.393  1.00  0.00    -0.272 N 
ATOM     20  H5  UNL     1      10.200   2.639  90.031  1.00  0.00     0.189 HD
BRANCH  19  21
HETATM   21  N6  UNL     1       8.665   1.319  89.552  1.00  0.00    -0.252 N 
HETATM   22  C9  UNL     1       7.464   1.749  88.966  1.00  0.00     0.347 C 
HETATM   23  N7  UNL     1       6.752   0.845  88.097  1.00  0.00    -0.038 NA
HETATM   24  O1  UNL     1       6.929   2.878  89.126  1.00  0.00    -0.249 OA
ATOM     25  H6  UNL     1       9.012   0.380  89.353  1.00  0.00     0.191 HD
ENDBRANCH  19  21
ENDBRANCH  17  19
ENDBRANCH  15  17
ENDBRANCH   1  15
TORSDOF 7
ENDMDL
