MODEL 1
REMARK VINA RESULT: -7.280120137      0.000      0.000
REMARK  3 active torsions:
REMARK  status: ('A' for Active; 'I' for Inactive)
REMARK    1  A    between atoms: C2_2  and  C3_3 
REMARK    2  A    between atoms: C11_15  and  O1_16 
REMARK    3  A    between atoms: C13_19  and  O2_20 
ROOT
HETATM    1  C3  UNL     1      34.458   5.588  29.109  1.00  0.00     0.067 A 
HETATM    2  C4  UNL     1      33.741   4.601  29.952  1.00  0.00     0.045 C 
HETATM    3  N1  UNL     1      33.491   6.638  28.793  1.00  0.00    -0.322 N 
ATOM      4  H1  UNL     1      32.594   6.489  28.331  1.00  0.00     0.181 HD
HETATM    5  N2  UNL     1      33.923   7.731  29.169  1.00  0.00    -0.307 N 
ATOM      6  H2  UNL     1      33.437   8.622  29.064  1.00  0.00     0.186 HD
HETATM    7  C5  UNL     1      35.215   7.558  29.777  1.00  0.00     0.041 A 
HETATM    8  C6  UNL     1      35.588   6.293  29.769  1.00  0.00    -0.021 A 
HETATM    9  C7  UNL     1      36.920   6.222  30.392  1.00  0.00     0.030 C 
HETATM   10  C8  UNL     1      37.477   7.633  30.269  1.00  0.00     0.028 C 
HETATM   11  C9  UNL     1      36.239   8.427  30.414  1.00  0.00     0.027 C 
HETATM   12  C10 UNL     1      36.367   9.733  29.647  1.00  0.00     0.025 C 
HETATM   13  C11 UNL     1      35.784   8.659  31.832  1.00  0.00     0.134 C 
HETATM   14  C12 UNL     1      36.661   7.987  32.852  1.00  0.00     0.065 C 
HETATM   15  C13 UNL     1      36.456   6.503  32.876  1.00  0.00     0.129 C 
HETATM   16  C14 UNL     1      37.052   5.732  31.761  1.00  0.00    -0.014 C 
HETATM   17  C15 UNL     1      38.575   5.742  32.045  1.00  0.00     0.018 C 
HETATM   18  C16 UNL     1      36.633   4.288  31.931  1.00  0.00     0.018 C 
ENDROOT
BRANCH   1  19
HETATM   19  C2  UNL     1      34.858   4.984  27.783  1.00  0.00     0.032 C 
HETATM   20  C1  UNL     1      33.843   5.179  26.712  1.00  0.00     0.008 C 
ENDBRANCH   1  19
BRANCH  13  21
HETATM   21  O1  UNL     1      35.748  10.043  32.112  1.00  0.00    -0.394 OA
ATOM     22  H1  UNL     1      35.906  10.196  33.036  1.00  0.00     0.210 HD
ENDBRANCH  13  21
BRANCH  15  23
HETATM   23  O2  UNL     1      35.113   6.251  33.125  1.00  0.00    -0.395 OA
ATOM     24  H2  UNL     1      35.045   5.762  33.936  1.00  0.00     0.210 HD
ENDBRANCH  15  23
TORSDOF 3
ENDMDL
MODEL 2
REMARK VINA RESULT: -6.853684459      2.195      3.080
REMARK  3 active torsions:
REMARK  status: ('A' for Active; 'I' for Inactive)
REMARK    1  A    between atoms: C2_2  and  C3_3 
REMARK    2  A    between atoms: C11_15  and  O1_16 
REMARK    3  A    between atoms: C13_19  and  O2_20 
ROOT
HETATM    1  C3  UNL     1      37.301   3.633  30.652  1.00  0.00     0.067 A 
HETATM    2  C4  UNL     1      36.551   2.766  31.592  1.00  0.00     0.045 C 
HETATM    3  N1  UNL     1      36.459   3.779  29.466  1.00  0.00    -0.322 N 
ATOM      4  H1  UNL     1      36.106   3.008  28.899  1.00  0.00     0.181 HD
HETATM    5  N2  UNL     1      36.239   4.974  29.253  1.00  0.00    -0.307 N 
ATOM      6  H2  UNL     1      35.678   5.341  28.484  1.00  0.00     0.186 HD
HETATM    7  C5  UNL     1      36.895   5.772  30.254  1.00  0.00     0.041 A 
HETATM    8  C6  UNL     1      37.549   5.021  31.120  1.00  0.00    -0.021 A 
HETATM    9  C7  UNL     1      38.195   5.924  32.087  1.00  0.00     0.030 C 
HETATM   10  C8  UNL     1      38.274   7.264  31.368  1.00  0.00     0.028 C 
HETATM   11  C9  UNL     1      37.028   7.218  30.573  1.00  0.00     0.027 C 
HETATM   12  C10 UNL     1      37.200   8.021  29.294  1.00  0.00     0.025 C 
HETATM   13  C11 UNL     1      35.776   7.613  31.312  1.00  0.00     0.134 C 
HETATM   14  C12 UNL     1      36.021   7.939  32.759  1.00  0.00     0.065 C 
HETATM   15  C13 UNL     1      36.286   6.709  33.573  1.00  0.00     0.129 C 
HETATM   16  C14 UNL     1      37.622   6.087  33.420  1.00  0.00    -0.014 C 
HETATM   17  C15 UNL     1      38.590   7.044  34.159  1.00  0.00     0.018 C 
HETATM   18  C16 UNL     1      37.629   4.816  34.241  1.00  0.00     0.018 C 
ENDROOT
BRANCH   1  19
HETATM   19  C2  UNL     1      38.566   2.956  30.178  1.00  0.00     0.032 C 
HETATM   20  C1  UNL     1      39.268   2.194  31.246  1.00  0.00     0.008 C 
ENDBRANCH   1  19
BRANCH  13  21
HETATM   21  O1  UNL     1      35.179   8.734  30.694  1.00  0.00    -0.394 OA
ATOM     22  H1  UNL     1      34.692   8.464  29.923  1.00  0.00     0.210 HD
ENDBRANCH  13  21
BRANCH  15  23
HETATM   23  O2  UNL     1      35.207   5.847  33.428  1.00  0.00    -0.395 OA
ATOM     24  H2  UNL     1      34.474   6.201  33.917  1.00  0.00     0.210 HD
ENDBRANCH  15  23
TORSDOF 3
ENDMDL
MODEL 3
REMARK VINA RESULT: -6.706872562      2.492      3.959
REMARK  3 active torsions:
REMARK  status: ('A' for Active; 'I' for Inactive)
REMARK    1  A    between atoms: C2_2  and  C3_3 
REMARK    2  A    between atoms: C11_15  and  O1_16 
REMARK    3  A    between atoms: C13_19  and  O2_20 
ROOT
HETATM    1  C3  UNL     1      37.710   2.767  31.645  1.00  0.00     0.067 A 
HETATM    2  C4  UNL     1      37.496   1.965  32.874  1.00  0.00     0.045 C 
HETATM    3  N1  UNL     1      36.486   2.644  30.856  1.00  0.00    -0.322 N 
ATOM      4  H1  UNL     1      36.080   1.764  30.537  1.00  0.00     0.181 HD
HETATM    5  N2  UNL     1      36.017   3.763  30.633  1.00  0.00    -0.307 N 
ATOM      6  H2  UNL     1      35.166   3.949  30.102  1.00  0.00     0.186 HD
HETATM    7  C5  UNL     1      36.854   4.767  31.235  1.00  0.00     0.041 A 
HETATM    8  C6  UNL     1      37.886   4.227  31.856  1.00  0.00    -0.021 A 
HETATM    9  C7  UNL     1      38.684   5.327  32.421  1.00  0.00     0.030 C 
HETATM   10  C8  UNL     1      38.285   6.550  31.605  1.00  0.00     0.028 C 
HETATM   11  C9  UNL     1      36.861   6.249  31.346  1.00  0.00     0.027 C 
HETATM   12  C10 UNL     1      36.430   6.874  30.029  1.00  0.00     0.025 C 
HETATM   13  C11 UNL     1      35.913   6.602  32.463  1.00  0.00     0.134 C 
HETATM   14  C12 UNL     1      36.608   7.158  33.675  1.00  0.00     0.065 C 
HETATM   15  C13 UNL     1      37.340   6.097  34.438  1.00  0.00     0.129 C 
HETATM   16  C14 UNL     1      38.611   5.615  33.850  1.00  0.00    -0.014 C 
HETATM   17  C15 UNL     1      39.615   6.771  34.079  1.00  0.00     0.018 C 
HETATM   18  C16 UNL     1      39.115   4.484  34.721  1.00  0.00     0.018 C 
ENDROOT
BRANCH   1  19
HETATM   19  C2  UNL     1      38.810   2.177  30.794  1.00  0.00     0.032 C 
HETATM   20  C1  UNL     1      39.741   1.297  31.551  1.00  0.00     0.008 C 
ENDBRANCH   1  19
BRANCH  13  21
HETATM   21  O1  UNL     1      34.963   7.547  32.016  1.00  0.00    -0.394 OA
ATOM     22  H1  UNL     1      34.155   7.110  31.773  1.00  0.00     0.210 HD
ENDBRANCH  13  21
BRANCH  15  23
HETATM   23  O2  UNL     1      36.433   5.106  34.790  1.00  0.00    -0.395 OA
ATOM     24  H2  UNL     1      36.105   4.703  33.995  1.00  0.00     0.210 HD
ENDBRANCH  15  23
TORSDOF 3
ENDMDL
MODEL 4
REMARK VINA RESULT: -6.622121289      2.669      5.215
REMARK  3 active torsions:
REMARK  status: ('A' for Active; 'I' for Inactive)
REMARK    1  A    between atoms: C2_2  and  C3_3 
REMARK    2  A    between atoms: C11_15  and  O1_16 
REMARK    3  A    between atoms: C13_19  and  O2_20 
ROOT
HETATM    1  C3  UNL     1      37.547   6.338  33.730  1.00  0.00     0.067 A 
HETATM    2  C4  UNL     1      36.634   7.260  34.448  1.00  0.00     0.045 C 
HETATM    3  N1  UNL     1      37.209   4.990  34.182  1.00  0.00    -0.322 N 
ATOM      4  H1  UNL     1      37.217   4.677  35.153  1.00  0.00     0.181 HD
HETATM    5  N2  UNL     1      36.910   4.286  33.213  1.00  0.00    -0.307 N 
ATOM      6  H2  UNL     1      36.636   3.305  33.261  1.00  0.00     0.186 HD
HETATM    7  C5  UNL     1      37.009   5.060  32.005  1.00  0.00     0.041 A 
HETATM    8  C6  UNL     1      37.388   6.300  32.253  1.00  0.00    -0.021 A 
HETATM    9  C7  UNL     1      37.474   7.001  30.962  1.00  0.00     0.030 C 
HETATM   10  C8  UNL     1      37.620   5.891  29.931  1.00  0.00     0.028 C 
HETATM   11  C9  UNL     1      36.793   4.835  30.551  1.00  0.00     0.027 C 
HETATM   12  C10 UNL     1      37.316   3.464  30.152  1.00  0.00     0.025 C 
HETATM   13  C11 UNL     1      35.310   4.953  30.313  1.00  0.00     0.134 C 
HETATM   14  C12 UNL     1      34.934   6.171  29.516  1.00  0.00     0.065 C 
HETATM   15  C13 UNL     1      35.050   7.427  30.324  1.00  0.00     0.129 C 
HETATM   16  C14 UNL     1      36.420   7.933  30.573  1.00  0.00    -0.014 C 
HETATM   17  C15 UNL     1      36.880   8.512  29.212  1.00  0.00     0.018 C 
HETATM   18  C16 UNL     1      36.304   9.132  31.488  1.00  0.00     0.018 C 
ENDROOT
BRANCH   1  19
HETATM   19  C2  UNL     1      38.983   6.562  34.144  1.00  0.00     0.032 C 
HETATM   20  C1  UNL     1      39.136   6.957  35.570  1.00  0.00     0.008 C 
ENDBRANCH   1  19
BRANCH  13  21
HETATM   21  O1  UNL     1      34.833   3.808  29.636  1.00  0.00    -0.394 OA
ATOM     22  H1  UNL     1      35.320   3.675  28.832  1.00  0.00     0.210 HD
ENDBRANCH  13  21
BRANCH  15  23
HETATM   23  O2  UNL     1      34.249   7.298  31.451  1.00  0.00    -0.395 OA
ATOM     24  H2  UNL     1      33.381   7.619  31.240  1.00  0.00     0.210 HD
ENDBRANCH  15  23
TORSDOF 3
ENDMDL
MODEL 5
REMARK VINA RESULT: -6.572951755      3.976      6.479
REMARK  3 active torsions:
REMARK  status: ('A' for Active; 'I' for Inactive)
REMARK    1  A    between atoms: C2_2  and  C3_3 
REMARK    2  A    between atoms: C11_15  and  O1_16 
REMARK    3  A    between atoms: C13_19  and  O2_20 
ROOT
HETATM    1  C3  UNL     1      39.749   4.666  34.498  1.00  0.00     0.067 A 
HETATM    2  C4  UNL     1      41.011   3.886  34.509  1.00  0.00     0.045 C 
HETATM    3  N1  UNL     1      40.084   5.979  33.950  1.00  0.00    -0.322 N 
ATOM      4  H1  UNL     1      40.789   6.611  34.330  1.00  0.00     0.181 HD
HETATM    5  N2  UNL     1      39.385   6.210  32.959  1.00  0.00    -0.307 N 
ATOM      6  H2  UNL     1      39.425   7.060  32.397  1.00  0.00     0.186 HD
HETATM    7  C5  UNL     1      38.506   5.097  32.718  1.00  0.00     0.041 A 
HETATM    8  C6  UNL     1      38.679   4.141  33.610  1.00  0.00    -0.021 A 
HETATM    9  C7  UNL     1      37.730   3.062  33.291  1.00  0.00     0.030 C 
HETATM   10  C8  UNL     1      36.650   3.736  32.455  1.00  0.00     0.028 C 
HETATM   11  C9  UNL     1      37.457   4.738  31.728  1.00  0.00     0.027 C 
HETATM   12  C10 UNL     1      36.605   5.955  31.405  1.00  0.00     0.025 C 
HETATM   13  C11 UNL     1      38.175   4.225  30.506  1.00  0.00     0.134 C 
HETATM   14  C12 UNL     1      37.975   2.753  30.277  1.00  0.00     0.065 C 
HETATM   15  C13 UNL     1      38.748   1.924  31.257  1.00  0.00     0.129 C 
HETATM   16  C14 UNL     1      38.208   1.849  32.634  1.00  0.00    -0.014 C 
HETATM   17  C15 UNL     1      36.961   0.937  32.521  1.00  0.00     0.018 C 
HETATM   18  C16 UNL     1      39.194   1.059  33.468  1.00  0.00     0.018 C 
ENDROOT
BRANCH   1  19
HETATM   19  C2  UNL     1      39.253   4.920  35.902  1.00  0.00     0.032 C 
HETATM   20  C1  UNL     1      40.171   5.767  36.712  1.00  0.00     0.008 C 
ENDBRANCH   1  19
BRANCH  13  21
HETATM   21  O1  UNL     1      37.741   4.923  29.357  1.00  0.00    -0.394 OA
ATOM     22  H1  UNL     1      37.771   4.353  28.597  1.00  0.00     0.210 HD
ENDBRANCH  13  21
BRANCH  15  23
HETATM   23  O2  UNL     1      40.089   2.269  31.161  1.00  0.00    -0.395 OA
ATOM     24  H2  UNL     1      40.250   3.010  31.733  1.00  0.00     0.210 HD
ENDBRANCH  15  23
TORSDOF 3
ENDMDL
