MODEL 1
REMARK VINA RESULT: -7.181240879      0.000      0.000
REMARK  6 active torsions:
REMARK  status: ('A' for Active; 'I' for Inactive)
REMARK       I    between atoms: C2_2  and  N1_4 
REMARK    1  A    between atoms: N1_4  and  C3_5 
REMARK    2  A    between atoms: C5_11  and  C6_12 
REMARK    3  A    between atoms: C6_12  and  C7_13 
REMARK    4  A    between atoms: C7_13  and  C8_14 
REMARK    5  A    between atoms: C8_14  and  O3_16 
REMARK    6  A    between atoms: O3_16  and  C9_17 
ROOT
HETATM    1  C3  UNL     1      15.931   7.763  -2.390  1.00  0.00     0.205 A 
HETATM    2  N2  UNL     1      15.311   6.938  -3.309  1.00  0.00    -0.274 N 
ATOM      3  H2  UNL     1      15.000   5.985  -3.119  1.00  0.00     0.189 HD
HETATM    4  N3  UNL     1      15.178   7.549  -4.453  1.00  0.00    -0.309 N 
ATOM      5  H3  UNL     1      14.748   7.135  -5.280  1.00  0.00     0.186 HD
HETATM    6  C4  UNL     1      15.680   8.794  -4.402  1.00  0.00     0.119 A 
HETATM    7  C5  UNL     1      16.149   8.936  -3.124  1.00  0.00     0.019 A 
ENDROOT
BRANCH   7   8
HETATM    8  C6  UNL     1      16.788  10.178  -2.562  1.00  0.00     0.055 C 
BRANCH   8   9
HETATM    9  C7  UNL     1      15.873  10.708  -1.497  1.00  0.00     0.116 C 
BRANCH   9  10
HETATM   10  C8  UNL     1      14.546  11.129  -1.948  1.00  0.00     0.259 C 
HETATM   11  O2  UNL     1      14.447  11.902  -2.968  1.00  0.00    -0.265 OA
BRANCH  10  12
HETATM   12  O3  UNL     1      13.333  10.776  -1.383  1.00  0.00    -0.311 OA
BRANCH  12  13
HETATM   13  C9  UNL     1      12.957  11.246  -0.086  1.00  0.00     0.060 C 
HETATM   14  C10 UNL     1      13.169  12.715   0.090  1.00  0.00     0.045 C 
HETATM   15  C11 UNL     1      11.442  11.011   0.021  1.00  0.00     0.045 C 
HETATM   16  C12 UNL     1      13.587  10.418   1.001  1.00  0.00     0.045 C 
ENDBRANCH  12  13
ENDBRANCH  10  12
ENDBRANCH   9  10
ENDBRANCH   8   9
ENDBRANCH   7   8
BRANCH   1  17
HETATM   17  N1  UNL     1      16.208   7.539  -1.256  1.00  0.00    -0.350 NA
HETATM   18  C2  UNL     1      16.455   7.194  -0.021  1.00  0.00     0.289 C 
HETATM   19  C1  UNL     1      15.328   7.141   0.999  1.00  0.00     0.135 C 
HETATM   20  O1  UNL     1      17.586   6.872   0.484  1.00  0.00    -0.258 OA
ENDBRANCH   1  17
TORSDOF 6
ENDMDL
MODEL 2
REMARK VINA RESULT: -6.930514088      7.160      9.843
REMARK  6 active torsions:
REMARK  status: ('A' for Active; 'I' for Inactive)
REMARK       I    between atoms: C2_2  and  N1_4 
REMARK    1  A    between atoms: N1_4  and  C3_5 
REMARK    2  A    between atoms: C5_11  and  C6_12 
REMARK    3  A    between atoms: C6_12  and  C7_13 
REMARK    4  A    between atoms: C7_13  and  C8_14 
REMARK    5  A    between atoms: C8_14  and  O3_16 
REMARK    6  A    between atoms: O3_16  and  C9_17 
ROOT
HETATM    1  C3  UNL     1       6.810   9.662   5.130  1.00  0.00     0.205 A 
HETATM    2  N2  UNL     1       7.506   9.992   6.277  1.00  0.00    -0.274 N 
ATOM      3  H2  UNL     1       7.076  10.305   7.149  1.00  0.00     0.189 HD
HETATM    4  N3  UNL     1       8.788   9.848   6.091  1.00  0.00    -0.309 N 
ATOM      5  H3  UNL     1       9.497  10.034   6.800  1.00  0.00     0.186 HD
HETATM    6  C4  UNL     1       9.055   9.424   4.844  1.00  0.00     0.119 A 
HETATM    7  C5  UNL     1       7.832   9.304   4.240  1.00  0.00     0.019 A 
ENDROOT
BRANCH   7   8
HETATM    8  C6  UNL     1       7.597   8.832   2.831  1.00  0.00     0.055 C 
BRANCH   8   9
HETATM    9  C7  UNL     1       8.371   9.740   1.920  1.00  0.00     0.116 C 
BRANCH   9  10
HETATM   10  C8  UNL     1       9.405   9.097   1.108  1.00  0.00     0.259 C 
HETATM   11  O2  UNL     1       9.102   8.650  -0.056  1.00  0.00    -0.265 OA
BRANCH  10  12
HETATM   12  O3  UNL     1      10.731   8.908   1.462  1.00  0.00    -0.311 OA
BRANCH  12  13
HETATM   13  C9  UNL     1      11.658   9.997   1.460  1.00  0.00     0.060 C 
HETATM   14  C10 UNL     1      11.603  10.817   2.708  1.00  0.00     0.045 C 
HETATM   15  C11 UNL     1      13.055   9.355   1.424  1.00  0.00     0.045 C 
HETATM   16  C12 UNL     1      11.540  10.814   0.202  1.00  0.00     0.045 C 
ENDBRANCH  12  13
ENDBRANCH  10  12
ENDBRANCH   9  10
ENDBRANCH   8   9
ENDBRANCH   7   8
BRANCH   1  17
HETATM   17  N1  UNL     1       5.637   9.673   4.941  1.00  0.00    -0.350 NA
HETATM   18  C2  UNL     1       4.352   9.569   4.736  1.00  0.00     0.289 C 
HETATM   19  C1  UNL     1       3.829   9.024   3.414  1.00  0.00     0.135 C 
HETATM   20  O1  UNL     1       3.408   9.880   5.542  1.00  0.00    -0.258 OA
ENDBRANCH   1  17
TORSDOF 6
ENDMDL
MODEL 3
REMARK VINA RESULT: -6.921878458      5.851      8.318
REMARK  6 active torsions:
REMARK  status: ('A' for Active; 'I' for Inactive)
REMARK       I    between atoms: C2_2  and  N1_4 
REMARK    1  A    between atoms: N1_4  and  C3_5 
REMARK    2  A    between atoms: C5_11  and  C6_12 
REMARK    3  A    between atoms: C6_12  and  C7_13 
REMARK    4  A    between atoms: C7_13  and  C8_14 
REMARK    5  A    between atoms: C8_14  and  O3_16 
REMARK    6  A    between atoms: O3_16  and  C9_17 
ROOT
HETATM    1  C3  UNL     1      11.062   8.549   1.816  1.00  0.00     0.205 A 
HETATM    2  N2  UNL     1      11.743   7.346   1.799  1.00  0.00    -0.274 N 
ATOM      3  H2  UNL     1      12.155   6.924   0.967  1.00  0.00     0.189 HD
HETATM    4  N3  UNL     1      11.784   6.828   2.995  1.00  0.00    -0.309 N 
ATOM      5  H3  UNL     1      12.235   5.943   3.223  1.00  0.00     0.186 HD
HETATM    6  C4  UNL     1      11.155   7.612   3.888  1.00  0.00     0.119 A 
HETATM    7  C5  UNL     1      10.705   8.684   3.165  1.00  0.00     0.019 A 
ENDROOT
BRANCH   7   8
HETATM    8  C6  UNL     1       9.954   9.861   3.726  1.00  0.00     0.055 C 
BRANCH   8   9
HETATM    9  C7  UNL     1       8.566   9.819   3.156  1.00  0.00     0.116 C 
BRANCH   9  10
HETATM   10  C8  UNL     1       7.584   9.055   3.927  1.00  0.00     0.259 C 
HETATM   11  O2  UNL     1       7.880   8.672   5.115  1.00  0.00    -0.265 OA
BRANCH  10  12
HETATM   12  O3  UNL     1       6.317   8.682   3.509  1.00  0.00    -0.311 OA
BRANCH  12  13
HETATM   13  C9  UNL     1       5.259   9.640   3.413  1.00  0.00     0.060 C 
HETATM   14  C10 UNL     1       5.263  10.392   2.122  1.00  0.00     0.045 C 
HETATM   15  C11 UNL     1       3.956   8.826   3.437  1.00  0.00     0.045 C 
HETATM   16  C12 UNL     1       5.218  10.532   4.624  1.00  0.00     0.045 C 
ENDBRANCH  12  13
ENDBRANCH  10  12
ENDBRANCH   9  10
ENDBRANCH   8   9
ENDBRANCH   7   8
BRANCH   1  17
HETATM   17  N1  UNL     1      10.837   9.290   0.916  1.00  0.00    -0.350 NA
HETATM   18  C2  UNL     1      10.523  10.166  -0.001  1.00  0.00     0.289 C 
HETATM   19  C1  UNL     1       9.105  10.223  -0.551  1.00  0.00     0.135 C 
HETATM   20  O1  UNL     1      11.289  11.040  -0.537  1.00  0.00    -0.258 OA
ENDBRANCH   1  17
TORSDOF 6
ENDMDL
MODEL 4
REMARK VINA RESULT: -6.861610598      5.313      7.936
REMARK  6 active torsions:
REMARK  status: ('A' for Active; 'I' for Inactive)
REMARK       I    between atoms: C2_2  and  N1_4 
REMARK    1  A    between atoms: N1_4  and  C3_5 
REMARK    2  A    between atoms: C5_11  and  C6_12 
REMARK    3  A    between atoms: C6_12  and  C7_13 
REMARK    4  A    between atoms: C7_13  and  C8_14 
REMARK    5  A    between atoms: C8_14  and  O3_16 
REMARK    6  A    between atoms: O3_16  and  C9_17 
ROOT
HETATM    1  C3  UNL     1      12.212   9.789   2.613  1.00  0.00     0.205 A 
HETATM    2  N2  UNL     1      13.421   9.298   3.068  1.00  0.00    -0.274 N 
ATOM      3  H2  UNL     1      14.228   9.100   2.475  1.00  0.00     0.189 HD
HETATM    4  N3  UNL     1      13.386   9.124   4.359  1.00  0.00    -0.309 N 
ATOM      5  H3  UNL     1      14.165   8.770   4.913  1.00  0.00     0.186 HD
HETATM    6  C4  UNL     1      12.191   9.472   4.866  1.00  0.00     0.119 A 
HETATM    7  C5  UNL     1      11.455   9.887   3.788  1.00  0.00     0.019 A 
ENDROOT
BRANCH   7   8
HETATM    8  C6  UNL     1      10.043  10.404   3.843  1.00  0.00     0.055 C 
BRANCH   8   9
HETATM    9  C7  UNL     1       9.189   9.310   4.415  1.00  0.00     0.116 C 
BRANCH   9  10
HETATM   10  C8  UNL     1       8.329   8.608   3.462  1.00  0.00     0.259 C 
HETATM   11  O2  UNL     1       8.857   8.052   2.433  1.00  0.00    -0.265 OA
BRANCH  10  12
HETATM   12  O3  UNL     1       6.955   8.462   3.544  1.00  0.00    -0.311 OA
BRANCH  12  13
HETATM   13  C9  UNL     1       6.077   9.552   3.247  1.00  0.00     0.060 C 
HETATM   14  C10 UNL     1       6.487  10.321   2.032  1.00  0.00     0.045 C 
HETATM   15  C11 UNL     1       4.717   8.917   2.919  1.00  0.00     0.045 C 
HETATM   16  C12 UNL     1       5.855  10.420   4.455  1.00  0.00     0.045 C 
ENDBRANCH  12  13
ENDBRANCH  10  12
ENDBRANCH   9  10
ENDBRANCH   8   9
ENDBRANCH   7   8
BRANCH   1  17
HETATM   17  N1  UNL     1      11.891  10.066   1.503  1.00  0.00    -0.350 NA
HETATM   18  C2  UNL     1      11.468  10.452   0.329  1.00  0.00     0.289 C 
HETATM   19  C1  UNL     1      10.031  10.184  -0.093  1.00  0.00     0.135 C 
HETATM   20  O1  UNL     1      12.136  11.063  -0.575  1.00  0.00    -0.258 OA
ENDBRANCH   1  17
TORSDOF 6
ENDMDL
MODEL 5
REMARK VINA RESULT: -6.835879860      6.103      8.739
REMARK  6 active torsions:
REMARK  status: ('A' for Active; 'I' for Inactive)
REMARK       I    between atoms: C2_2  and  N1_4 
REMARK    1  A    between atoms: N1_4  and  C3_5 
REMARK    2  A    between atoms: C5_11  and  C6_12 
REMARK    3  A    between atoms: C6_12  and  C7_13 
REMARK    4  A    between atoms: C7_13  and  C8_14 
REMARK    5  A    between atoms: C8_14  and  O3_16 
REMARK    6  A    between atoms: O3_16  and  C9_17 
ROOT
HETATM    1  C3  UNL     1       6.870   9.545   1.652  1.00  0.00     0.205 A 
HETATM    2  N2  UNL     1       5.510   9.366   1.817  1.00  0.00    -0.274 N 
ATOM      3  H2  UNL     1       4.828   9.362   1.058  1.00  0.00     0.189 HD
HETATM    4  N3  UNL     1       5.221   9.204   3.078  1.00  0.00    -0.309 N 
ATOM      5  H3  UNL     1       4.279   9.055   3.437  1.00  0.00     0.186 HD
HETATM    6  C4  UNL     1       6.325   9.257   3.842  1.00  0.00     0.119 A 
HETATM    7  C5  UNL     1       7.355   9.468   2.965  1.00  0.00     0.019 A 
ENDROOT
BRANCH   7   8
HETATM    8  C6  UNL     1       8.809   9.578   3.337  1.00  0.00     0.055 C 
BRANCH   8   9
HETATM    9  C7  UNL     1       9.280   8.203   3.712  1.00  0.00     0.116 C 
BRANCH   9  10
HETATM   10  C8  UNL     1      10.352   7.649   2.884  1.00  0.00     0.259 C 
HETATM   11  O2  UNL     1      10.080   7.234   1.701  1.00  0.00    -0.265 OA
BRANCH  10  12
HETATM   12  O3  UNL     1      11.683   7.516   3.241  1.00  0.00    -0.311 OA
BRANCH  12  13
HETATM   13  C9  UNL     1      12.534   8.660   3.363  1.00  0.00     0.060 C 
HETATM   14  C10 UNL     1      12.415   9.341   4.688  1.00  0.00     0.045 C 
HETATM   15  C11 UNL     1      13.971   8.123   3.278  1.00  0.00     0.045 C 
HETATM   16  C12 UNL     1      12.365   9.593   2.194  1.00  0.00     0.045 C 
ENDBRANCH  12  13
ENDBRANCH  10  12
ENDBRANCH   9  10
ENDBRANCH   8   9
ENDBRANCH   7   8
BRANCH   1  17
HETATM   17  N1  UNL     1       7.483   9.717   0.649  1.00  0.00    -0.350 NA
HETATM   18  C2  UNL     1       8.218   9.811  -0.427  1.00  0.00     0.289 C 
HETATM   19  C1  UNL     1       9.691  10.180  -0.318  1.00  0.00     0.135 C 
HETATM   20  O1  UNL     1       7.851   9.624  -1.638  1.00  0.00    -0.258 OA
ENDBRANCH   1  17
TORSDOF 6
ENDMDL
