MODEL 1
REMARK VINA RESULT: -7.015563134      0.000      0.000
REMARK  2 active torsions:
REMARK  status: ('A' for Active; 'I' for Inactive)
REMARK    1  A    between atoms: O1_2  and  N1_3 
REMARK       I    between atoms: N1_3  and  C3_5 
REMARK       I    between atoms: C3_5  and  N2_7 
REMARK    2  A    between atoms: N2_7  and  C4_9 
ROOT
HETATM    1  C4  UNL     1      27.354  22.260   8.343  1.00  0.00     0.123 C 
HETATM    2  C5  UNL     1      26.636  21.451   7.315  1.00  0.00     0.025 C 
HETATM    3  C6  UNL     1      26.063  20.158   7.889  1.00  0.00     0.014 C 
HETATM    4  C7  UNL     1      25.503  22.270   6.800  1.00  0.00     0.133 C 
HETATM    5  N3  UNL     1      25.490  23.505   7.527  1.00  0.00    -0.334 N 
HETATM    6  C8  UNL     1      24.731  24.679   7.340  1.00  0.00     0.243 C 
HETATM    7  O3  UNL     1      23.571  24.631   6.843  1.00  0.00    -0.271 OA
HETATM    8  C9  UNL     1      25.272  26.003   7.722  1.00  0.00     0.175 C 
HETATM    9  C10 UNL     1      24.442  26.674   8.786  1.00  0.00     0.042 C 
HETATM   10  N4  UNL     1      26.672  25.907   8.121  1.00  0.00    -0.342 N 
HETATM   11  C11 UNL     1      27.520  27.064   7.935  1.00  0.00     0.153 C 
HETATM   12  C12 UNL     1      27.187  24.703   8.680  1.00  0.00     0.245 C 
HETATM   13  O4  UNL     1      28.327  24.801   9.238  1.00  0.00    -0.271 OA
HETATM   14  C13 UNL     1      26.432  23.431   8.608  1.00  0.00     0.202 C 
ENDROOT
BRANCH   1  15
HETATM   15  N2  UNL     1      28.623  22.653   7.790  1.00  0.00    -0.334 N 
HETATM   16  C3  UNL     1      29.745  21.781   7.755  1.00  0.00     0.342 C 
HETATM   17  N1  UNL     1      30.979  22.175   7.213  1.00  0.00    -0.213 N 
HETATM   18  O2  UNL     1      29.592  20.613   8.238  1.00  0.00    -0.245 OA
HETATM   19  C2  UNL     1      31.217  23.472   6.652  1.00  0.00     0.190 C 
ATOM     20  H2  UNL     1      28.722  23.593   7.409  1.00  0.00     0.164 HD
BRANCH  17  21
HETATM   21  O1  UNL     1      32.004  21.298   7.212  1.00  0.00    -0.279 OA
HETATM   22  C1  UNL     1      32.687  21.224   6.023  1.00  0.00     0.238 C 
ENDBRANCH  17  21
ENDBRANCH   1  15
TORSDOF 2
ENDMDL
MODEL 2
REMARK VINA RESULT: -6.865202118      5.471      8.014
REMARK  2 active torsions:
REMARK  status: ('A' for Active; 'I' for Inactive)
REMARK    1  A    between atoms: O1_2  and  N1_3 
REMARK       I    between atoms: N1_3  and  C3_5 
REMARK       I    between atoms: C3_5  and  N2_7 
REMARK    2  A    between atoms: N2_7  and  C4_9 
ROOT
HETATM    1  C4  UNL     1      33.399  19.703   9.753  1.00  0.00     0.123 C 
HETATM    2  C5  UNL     1      34.823  19.264   9.674  1.00  0.00     0.025 C 
HETATM    3  C6  UNL     1      35.030  17.860  10.238  1.00  0.00     0.014 C 
HETATM    4  C7  UNL     1      35.216  19.247   8.237  1.00  0.00     0.133 C 
HETATM    5  N3  UNL     1      34.062  19.601   7.464  1.00  0.00    -0.334 N 
HETATM    6  C8  UNL     1      33.921  19.876   6.088  1.00  0.00     0.243 C 
HETATM    7  O3  UNL     1      34.677  19.331   5.236  1.00  0.00    -0.271 OA
HETATM    8  C9  UNL     1      32.882  20.813   5.602  1.00  0.00     0.175 C 
HETATM    9  C10 UNL     1      31.894  20.141   4.683  1.00  0.00     0.042 C 
HETATM   10  N4  UNL     1      32.210  21.479   6.712  1.00  0.00    -0.342 N 
HETATM   11  C11 UNL     1      31.653  22.795   6.486  1.00  0.00     0.153 C 
HETATM   12  C12 UNL     1      32.106  20.846   7.983  1.00  0.00     0.245 C 
HETATM   13  O4  UNL     1      31.282  21.378   8.795  1.00  0.00    -0.271 OA
HETATM   14  C13 UNL     1      32.911  19.650   8.321  1.00  0.00     0.202 C 
ENDROOT
BRANCH   1  15
HETATM   15  N2  UNL     1      33.375  21.030  10.310  1.00  0.00    -0.334 N 
HETATM   16  C3  UNL     1      33.321  21.272  11.710  1.00  0.00     0.342 C 
HETATM   17  N1  UNL     1      33.298  22.570  12.242  1.00  0.00    -0.213 N 
HETATM   18  O2  UNL     1      33.293  20.255  12.476  1.00  0.00    -0.245 OA
HETATM   19  C2  UNL     1      33.329  23.755  11.436  1.00  0.00     0.190 C 
ATOM     20  H2  UNL     1      33.398  21.828   9.676  1.00  0.00     0.164 HD
BRANCH  17  21
HETATM   21  O1  UNL     1      33.245  22.729  13.581  1.00  0.00    -0.279 OA
HETATM   22  C1  UNL     1      34.002  23.769  14.060  1.00  0.00     0.238 C 
ENDBRANCH  17  21
ENDBRANCH   1  15
TORSDOF 2
ENDMDL
MODEL 3
REMARK VINA RESULT: -6.513289163      6.386      8.922
REMARK  2 active torsions:
REMARK  status: ('A' for Active; 'I' for Inactive)
REMARK    1  A    between atoms: O1_2  and  N1_3 
REMARK       I    between atoms: N1_3  and  C3_5 
REMARK       I    between atoms: C3_5  and  N2_7 
REMARK    2  A    between atoms: N2_7  and  C4_9 
ROOT
HETATM    1  C4  UNL     1      35.323  19.486   9.402  1.00  0.00     0.123 C 
HETATM    2  C5  UNL     1      35.203  18.198  10.146  1.00  0.00     0.025 C 
HETATM    3  C6  UNL     1      36.392  17.273   9.900  1.00  0.00     0.014 C 
HETATM    4  C7  UNL     1      35.157  18.515  11.601  1.00  0.00     0.133 C 
HETATM    5  N3  UNL     1      35.306  19.933  11.745  1.00  0.00    -0.334 N 
HETATM    6  C8  UNL     1      35.186  20.764  12.878  1.00  0.00     0.243 C 
HETATM    7  O3  UNL     1      35.460  20.332  14.033  1.00  0.00    -0.271 OA
HETATM    8  C9  UNL     1      34.736  22.169  12.747  1.00  0.00     0.175 C 
HETATM    9  C10 UNL     1      35.781  23.149  13.215  1.00  0.00     0.042 C 
HETATM   10  N4  UNL     1      34.304  22.460  11.385  1.00  0.00    -0.342 N 
HETATM   11  C11 UNL     1      33.306  23.489  11.187  1.00  0.00     0.153 C 
HETATM   12  C12 UNL     1      34.852  21.748  10.281  1.00  0.00     0.245 C 
HETATM   13  O4  UNL     1      34.619  22.250   9.134  1.00  0.00    -0.271 OA
HETATM   14  C13 UNL     1      35.639  20.509  10.473  1.00  0.00     0.202 C 
ENDROOT
BRANCH   1  15
HETATM   15  N2  UNL     1      34.070  19.732   8.737  1.00  0.00    -0.334 N 
HETATM   16  C3  UNL     1      33.905  19.580   7.334  1.00  0.00     0.342 C 
HETATM   17  N1  UNL     1      32.679  19.823   6.696  1.00  0.00    -0.213 N 
HETATM   18  O2  UNL     1      34.924  19.212   6.664  1.00  0.00    -0.245 OA
HETATM   19  C2  UNL     1      31.496  20.238   7.391  1.00  0.00     0.190 C 
ATOM     20  H2  UNL     1      33.269  20.027   9.295  1.00  0.00     0.164 HD
BRANCH  17  21
HETATM   21  O1  UNL     1      32.591  19.661   5.360  1.00  0.00    -0.279 OA
HETATM   22  C1  UNL     1      31.781  20.572   4.729  1.00  0.00     0.238 C 
ENDBRANCH  17  21
ENDBRANCH   1  15
TORSDOF 2
ENDMDL
MODEL 4
REMARK VINA RESULT: -6.501393837      5.529      8.012
REMARK  2 active torsions:
REMARK  status: ('A' for Active; 'I' for Inactive)
REMARK    1  A    between atoms: O1_2  and  N1_3 
REMARK       I    between atoms: N1_3  and  C3_5 
REMARK       I    between atoms: C3_5  and  N2_7 
REMARK    2  A    between atoms: N2_7  and  C4_9 
ROOT
HETATM    1  C4  UNL     1      33.121  20.634  10.045  1.00  0.00     0.123 C 
HETATM    2  C5  UNL     1      34.565  20.380  10.319  1.00  0.00     0.025 C 
HETATM    3  C6  UNL     1      34.775  19.258  11.333  1.00  0.00     0.014 C 
HETATM    4  C7  UNL     1      35.209  19.974   9.039  1.00  0.00     0.133 C 
HETATM    5  N3  UNL     1      34.187  19.920   8.035  1.00  0.00    -0.334 N 
HETATM    6  C8  UNL     1      34.275  19.738   6.639  1.00  0.00     0.243 C 
HETATM    7  O3  UNL     1      35.209  19.060   6.129  1.00  0.00    -0.271 OA
HETATM    8  C9  UNL     1      33.270  20.336   5.730  1.00  0.00     0.175 C 
HETATM    9  C10 UNL     1      32.516  19.292   4.946  1.00  0.00     0.042 C 
HETATM   10  N4  UNL     1      32.361  21.218   6.453  1.00  0.00    -0.342 N 
HETATM   11  C11 UNL     1      31.754  22.317   5.734  1.00  0.00     0.153 C 
HETATM   12  C12 UNL     1      32.081  20.999   7.832  1.00  0.00     0.245 C 
HETATM   13  O4  UNL     1      31.086  21.643   8.298  1.00  0.00    -0.271 OA
HETATM   14  C13 UNL     1      32.902  20.080   8.653  1.00  0.00     0.202 C 
ENDROOT
BRANCH   1  15
HETATM   15  N2  UNL     1      32.896  22.053  10.131  1.00  0.00    -0.334 N 
HETATM   16  C3  UNL     1      32.638  22.714  11.363  1.00  0.00     0.342 C 
HETATM   17  N1  UNL     1      32.420  24.099  11.435  1.00  0.00    -0.213 N 
HETATM   18  O2  UNL     1      32.611  21.996  12.414  1.00  0.00    -0.245 OA
HETATM   19  C2  UNL     1      32.439  24.962  10.291  1.00  0.00     0.190 C 
ATOM     20  H2  UNL     1      32.922  22.606   9.275  1.00  0.00     0.164 HD
BRANCH  17  21
HETATM   21  O1  UNL     1      32.180  24.663  12.636  1.00  0.00    -0.279 OA
HETATM   22  C1  UNL     1      33.175  25.497  13.081  1.00  0.00     0.238 C 
ENDBRANCH  17  21
ENDBRANCH   1  15
TORSDOF 2
ENDMDL
MODEL 5
REMARK VINA RESULT: -6.458760658      4.131      7.896
REMARK  2 active torsions:
REMARK  status: ('A' for Active; 'I' for Inactive)
REMARK    1  A    between atoms: O1_2  and  N1_3 
REMARK       I    between atoms: N1_3  and  C3_5 
REMARK       I    between atoms: C3_5  and  N2_7 
REMARK    2  A    between atoms: N2_7  and  C4_9 
ROOT
HETATM    1  C4  UNL     1      32.044  21.549   8.839  1.00  0.00     0.123 C 
HETATM    2  C5  UNL     1      31.246  20.669   7.937  1.00  0.00     0.025 C 
HETATM    3  C6  UNL     1      31.623  20.848   6.468  1.00  0.00     0.014 C 
HETATM    4  C7  UNL     1      31.523  19.255   8.316  1.00  0.00     0.133 C 
HETATM    5  N3  UNL     1      32.499  19.268   9.366  1.00  0.00    -0.334 N 
HETATM    6  C8  UNL     1      32.996  18.227  10.178  1.00  0.00     0.243 C 
HETATM    7  O3  UNL     1      33.057  17.041   9.749  1.00  0.00    -0.271 OA
HETATM    8  C9  UNL     1      33.461  18.495  11.558  1.00  0.00     0.175 C 
HETATM    9  C10 UNL     1      34.920  18.164  11.743  1.00  0.00     0.042 C 
HETATM   10  N4  UNL     1      33.172  19.868  11.956  1.00  0.00    -0.342 N 
HETATM   11  C11 UNL     1      32.971  20.147  13.361  1.00  0.00     0.153 C 
HETATM   12  C12 UNL     1      33.091  20.904  10.984  1.00  0.00     0.245 C 
HETATM   13  O4  UNL     1      33.105  22.091  11.444  1.00  0.00    -0.271 OA
HETATM   14  C13 UNL     1      32.998  20.603   9.537  1.00  0.00     0.202 C 
ENDROOT
BRANCH   1  15
HETATM   15  N2  UNL     1      31.132  22.201   9.742  1.00  0.00    -0.334 N 
HETATM   16  C3  UNL     1      30.596  23.493   9.488  1.00  0.00     0.342 C 
HETATM   17  N1  UNL     1      29.707  24.119  10.375  1.00  0.00    -0.213 N 
HETATM   18  O2  UNL     1      30.954  24.071   8.411  1.00  0.00    -0.245 OA
HETATM   19  C2  UNL     1      29.264  23.523  11.601  1.00  0.00     0.190 C 
ATOM     20  H2  UNL     1      30.861  21.718  10.598  1.00  0.00     0.164 HD
BRANCH  17  21
HETATM   21  O1  UNL     1      29.236  25.346  10.074  1.00  0.00    -0.279 OA
HETATM   22  C1  UNL     1      27.933  25.562  10.448  1.00  0.00     0.238 C 
ENDBRANCH  17  21
ENDBRANCH   1  15
TORSDOF 2
ENDMDL
