MODEL 1
REMARK VINA RESULT: -7.132795890      0.000      0.000
REMARK  5 active torsions:
REMARK  status: ('A' for Active; 'I' for Inactive)
REMARK    1  A    between atoms: C2_2  and  N1_3 
REMARK       I    between atoms: N1_3  and  C3_5 
REMARK    2  A    between atoms: C3_5  and  C4_7 
REMARK    3  A    between atoms: C4_7  and  O2_8 
REMARK    4  A    between atoms: C4_7  and  N2_10 
REMARK       I    between atoms: N3_16  and  C10_17 
REMARK    5  A    between atoms: C10_17  and  C11_19 
ROOT
HETATM    1  N2  UNL     1      28.666  25.115   8.333  1.00  0.00    -0.330 N 
HETATM    2  C5  UNL     1      28.158  26.197   7.396  1.00  0.00     0.135 C 
HETATM    3  C6  UNL     1      27.073  26.894   8.160  1.00  0.00     0.035 C 
HETATM    4  C7  UNL     1      27.330  26.383   9.564  1.00  0.00     0.062 C 
HETATM    5  C8  UNL     1      27.490  24.887   9.089  1.00  0.00     0.110 C 
HETATM    6  C9  UNL     1      27.487  24.006  10.250  1.00  0.00     0.064 C 
HETATM    7  N3  UNL     1      26.297  24.783   8.245  1.00  0.00    -0.316 N 
HETATM    8  C10 UNL     1      25.664  23.612   7.758  1.00  0.00     0.222 C 
HETATM    9  O3  UNL     1      24.633  23.777   7.004  1.00  0.00    -0.273 OA
HETATM   10  C13 UNL     1      25.782  26.139   7.933  1.00  0.00     0.036 C 
HETATM   11  C14 UNL     1      24.730  26.517   8.940  1.00  0.00     0.039 C 
HETATM   12  C15 UNL     1      25.239  26.272   6.567  1.00  0.00     0.039 C 
ENDROOT
BRANCH   1  13
HETATM   13  C4  UNL     1      29.985  24.699   8.215  1.00  0.00     0.209 C 
BRANCH  13  14
HETATM   14  C3  UNL     1      30.587  23.484   7.733  1.00  0.00     0.292 C 
HETATM   15  N1  UNL     1      31.489  23.478   6.621  1.00  0.00    -0.354 N 
ATOM     16  H1  UNL     1      31.716  24.357   6.155  1.00  0.00     0.162 HD
HETATM   17  O1  UNL     1      30.378  22.369   8.230  1.00  0.00    -0.264 OA
BRANCH  15  18
HETATM   18  C2  UNL     1      32.077  22.261   6.153  1.00  0.00     0.118 C 
HETATM   19  C1  UNL     1      31.393  21.682   4.933  1.00  0.00     0.026 C 
ENDBRANCH  15  18
ENDBRANCH  13  14
BRANCH  13  20
HETATM   20  O2  UNL     1      30.897  25.556   8.613  1.00  0.00    -0.342 OA
ATOM     21  H2  UNL     1      30.654  25.957   9.439  1.00  0.00     0.219 HD
ENDBRANCH  13  20
ENDBRANCH   1  13
BRANCH   8  22
HETATM   22  C11 UNL     1      26.094  22.235   8.046  1.00  0.00     0.098 C 
HETATM   23  C12 UNL     1      26.308  21.504   6.705  1.00  0.00     0.014 C 
ENDBRANCH   8  22
TORSDOF 5
ENDMDL
MODEL 2
REMARK VINA RESULT: -6.961673982      2.265      5.729
REMARK  5 active torsions:
REMARK  status: ('A' for Active; 'I' for Inactive)
REMARK    1  A    between atoms: C2_2  and  N1_3 
REMARK       I    between atoms: N1_3  and  C3_5 
REMARK    2  A    between atoms: C3_5  and  C4_7 
REMARK    3  A    between atoms: C4_7  and  O2_8 
REMARK    4  A    between atoms: C4_7  and  N2_10 
REMARK       I    between atoms: N3_16  and  C10_17 
REMARK    5  A    between atoms: C10_17  and  C11_19 
ROOT
HETATM    1  N2  UNL     1      27.959  23.548   9.239  1.00  0.00    -0.330 N 
HETATM    2  C5  UNL     1      29.283  23.084   8.655  1.00  0.00     0.135 C 
HETATM    3  C6  UNL     1      30.250  23.137   9.799  1.00  0.00     0.035 C 
HETATM    4  C7  UNL     1      29.304  23.268  10.976  1.00  0.00     0.062 C 
HETATM    5  C8  UNL     1      28.439  24.385  10.274  1.00  0.00     0.110 C 
HETATM    6  C9  UNL     1      27.538  24.986  11.250  1.00  0.00     0.064 C 
HETATM    7  N3  UNL     1      29.519  25.266   9.823  1.00  0.00    -0.316 N 
HETATM    8  C10 UNL     1      29.433  26.614   9.394  1.00  0.00     0.222 C 
HETATM    9  O3  UNL     1      30.528  27.177   9.016  1.00  0.00    -0.273 OA
HETATM   10  C13 UNL     1      30.812  24.539   9.870  1.00  0.00     0.036 C 
HETATM   11  C14 UNL     1      31.486  24.805  11.190  1.00  0.00     0.039 C 
HETATM   12  C15 UNL     1      31.727  24.878   8.763  1.00  0.00     0.039 C 
ENDROOT
BRANCH   1  13
HETATM   13  C4  UNL     1      26.782  23.077   8.672  1.00  0.00     0.209 C 
BRANCH  13  14
HETATM   14  C3  UNL     1      25.603  23.737   8.179  1.00  0.00     0.292 C 
HETATM   15  N1  UNL     1      24.817  24.598   9.011  1.00  0.00    -0.354 N 
ATOM     16  H1  UNL     1      25.097  24.752   9.979  1.00  0.00     0.162 HD
HETATM   17  O1  UNL     1      25.180  23.616   7.021  1.00  0.00    -0.264 OA
BRANCH  15  18
HETATM   18  C2  UNL     1      23.645  25.245   8.506  1.00  0.00     0.118 C 
HETATM   19  C1  UNL     1      23.693  26.754   8.598  1.00  0.00     0.026 C 
ENDBRANCH  15  18
ENDBRANCH  13  14
BRANCH  13  20
HETATM   20  O2  UNL     1      26.686  21.773   8.546  1.00  0.00    -0.342 OA
ATOM     21  H2  UNL     1      27.117  21.325   9.263  1.00  0.00     0.219 HD
ENDBRANCH  13  20
ENDBRANCH   1  13
BRANCH   8  22
HETATM   22  C11 UNL     1      28.197  27.410   9.347  1.00  0.00     0.098 C 
HETATM   23  C12 UNL     1      27.438  27.051   8.054  1.00  0.00     0.014 C 
ENDBRANCH   8  22
TORSDOF 5
ENDMDL
MODEL 3
REMARK VINA RESULT: -6.820810946      1.785      2.695
REMARK  5 active torsions:
REMARK  status: ('A' for Active; 'I' for Inactive)
REMARK    1  A    between atoms: C2_2  and  N1_3 
REMARK       I    between atoms: N1_3  and  C3_5 
REMARK    2  A    between atoms: C3_5  and  C4_7 
REMARK    3  A    between atoms: C4_7  and  O2_8 
REMARK    4  A    between atoms: C4_7  and  N2_10 
REMARK       I    between atoms: N3_16  and  C10_17 
REMARK    5  A    between atoms: C10_17  and  C11_19 
ROOT
HETATM    1  N2  UNL     1      28.693  25.365   8.430  1.00  0.00    -0.330 N 
HETATM    2  C5  UNL     1      28.113  26.387   7.466  1.00  0.00     0.135 C 
HETATM    3  C6  UNL     1      26.950  26.990   8.194  1.00  0.00     0.035 C 
HETATM    4  C7  UNL     1      27.216  26.519   9.610  1.00  0.00     0.062 C 
HETATM    5  C8  UNL     1      27.524  25.040   9.158  1.00  0.00     0.110 C 
HETATM    6  C9  UNL     1      27.570  24.174  10.329  1.00  0.00     0.064 C 
HETATM    7  N3  UNL     1      26.367  24.818   8.286  1.00  0.00    -0.316 N 
HETATM    8  C10 UNL     1      25.857  23.589   7.799  1.00  0.00     0.222 C 
HETATM    9  O3  UNL     1      24.835  23.652   7.017  1.00  0.00    -0.273 OA
HETATM   10  C13 UNL     1      25.740  26.119   7.944  1.00  0.00     0.036 C 
HETATM   11  C14 UNL     1      24.631  26.409   8.920  1.00  0.00     0.039 C 
HETATM   12  C15 UNL     1      25.223  26.187   6.564  1.00  0.00     0.039 C 
ENDROOT
BRANCH   1  13
HETATM   13  C4  UNL     1      30.048  25.070   8.349  1.00  0.00     0.209 C 
BRANCH  13  14
HETATM   14  C3  UNL     1      31.170  25.397   9.187  1.00  0.00     0.292 C 
HETATM   15  N1  UNL     1      31.246  24.961  10.550  1.00  0.00    -0.354 N 
ATOM     16  H1  UNL     1      30.487  24.402  10.941  1.00  0.00     0.162 HD
HETATM   17  O1  UNL     1      32.140  26.067   8.809  1.00  0.00    -0.264 OA
BRANCH  15  18
HETATM   18  C2  UNL     1      32.367  25.297  11.371  1.00  0.00     0.118 C 
HETATM   19  C1  UNL     1      32.319  24.681  12.753  1.00  0.00     0.026 C 
ENDBRANCH  15  18
ENDBRANCH  13  14
BRANCH  13  20
HETATM   20  O2  UNL     1      30.420  24.354   7.313  1.00  0.00    -0.342 OA
ATOM     21  H2  UNL     1      30.692  24.907   6.591  1.00  0.00     0.219 HD
ENDBRANCH  13  20
ENDBRANCH   1  13
BRANCH   8  22
HETATM   22  C11 UNL     1      26.402  22.261   8.114  1.00  0.00     0.098 C 
HETATM   23  C12 UNL     1      26.345  21.397   6.838  1.00  0.00     0.014 C 
ENDBRANCH   8  22
TORSDOF 5
ENDMDL
MODEL 4
REMARK VINA RESULT: -6.782736607      1.053      1.144
REMARK  5 active torsions:
REMARK  status: ('A' for Active; 'I' for Inactive)
REMARK    1  A    between atoms: C2_2  and  N1_3 
REMARK       I    between atoms: N1_3  and  C3_5 
REMARK    2  A    between atoms: C3_5  and  C4_7 
REMARK    3  A    between atoms: C4_7  and  O2_8 
REMARK    4  A    between atoms: C4_7  and  N2_10 
REMARK       I    between atoms: N3_16  and  C10_17 
REMARK    5  A    between atoms: C10_17  and  C11_19 
ROOT
HETATM    1  N2  UNL     1      28.564  25.218   8.331  1.00  0.00    -0.330 N 
HETATM    2  C5  UNL     1      28.041  26.288   7.388  1.00  0.00     0.135 C 
HETATM    3  C6  UNL     1      26.946  26.973   8.149  1.00  0.00     0.035 C 
HETATM    4  C7  UNL     1      27.210  26.473   9.555  1.00  0.00     0.062 C 
HETATM    5  C8  UNL     1      27.392  24.978   9.088  1.00  0.00     0.110 C 
HETATM    6  C9  UNL     1      27.402  24.102  10.253  1.00  0.00     0.064 C 
HETATM    7  N3  UNL     1      26.200  24.852   8.245  1.00  0.00    -0.316 N 
HETATM    8  C10 UNL     1      25.585  23.669   7.764  1.00  0.00     0.222 C 
HETATM    9  O3  UNL     1      24.551  23.815   7.009  1.00  0.00    -0.273 OA
HETATM   10  C13 UNL     1      25.666  26.199   7.925  1.00  0.00     0.036 C 
HETATM   11  C14 UNL     1      24.608  26.567   8.931  1.00  0.00     0.039 C 
HETATM   12  C15 UNL     1      25.122  26.317   6.559  1.00  0.00     0.039 C 
ENDROOT
BRANCH   1  13
HETATM   13  C4  UNL     1      29.890  24.821   8.214  1.00  0.00     0.209 C 
BRANCH  13  14
HETATM   14  C3  UNL     1      30.518  23.688   7.590  1.00  0.00     0.292 C 
HETATM   15  N1  UNL     1      30.140  22.344   7.911  1.00  0.00    -0.354 N 
ATOM     16  H1  UNL     1      29.405  22.180   8.598  1.00  0.00     0.162 HD
HETATM   17  O1  UNL     1      31.418  23.780   6.744  1.00  0.00    -0.264 OA
BRANCH  15  18
HETATM   18  C2  UNL     1      30.777  21.228   7.283  1.00  0.00     0.118 C 
HETATM   19  C1  UNL     1      31.418  20.262   8.256  1.00  0.00     0.026 C 
ENDBRANCH  15  18
ENDBRANCH  13  14
BRANCH  13  20
HETATM   20  O2  UNL     1      30.778  25.609   8.776  1.00  0.00    -0.342 OA
ATOM     21  H2  UNL     1      30.578  25.756   9.692  1.00  0.00     0.219 HD
ENDBRANCH  13  20
ENDBRANCH   1  13
BRANCH   8  22
HETATM   22  C11 UNL     1      26.034  22.300   8.058  1.00  0.00     0.098 C 
HETATM   23  C12 UNL     1      26.264  21.567   6.722  1.00  0.00     0.014 C 
ENDBRANCH   8  22
TORSDOF 5
ENDMDL
MODEL 5
REMARK VINA RESULT: -6.765332565      1.819      2.474
REMARK  5 active torsions:
REMARK  status: ('A' for Active; 'I' for Inactive)
REMARK    1  A    between atoms: C2_2  and  N1_3 
REMARK       I    between atoms: N1_3  and  C3_5 
REMARK    2  A    between atoms: C3_5  and  C4_7 
REMARK    3  A    between atoms: C4_7  and  O2_8 
REMARK    4  A    between atoms: C4_7  and  N2_10 
REMARK       I    between atoms: N3_16  and  C10_17 
REMARK    5  A    between atoms: C10_17  and  C11_19 
ROOT
HETATM    1  N2  UNL     1      28.658  25.365   8.531  1.00  0.00    -0.330 N 
HETATM    2  C5  UNL     1      28.105  26.390   7.555  1.00  0.00     0.135 C 
HETATM    3  C6  UNL     1      26.910  26.975   8.245  1.00  0.00     0.035 C 
HETATM    4  C7  UNL     1      27.127  26.493   9.666  1.00  0.00     0.062 C 
HETATM    5  C8  UNL     1      27.466  25.021   9.212  1.00  0.00     0.110 C 
HETATM    6  C9  UNL     1      27.477  24.144  10.376  1.00  0.00     0.064 C 
HETATM    7  N3  UNL     1      26.345  24.797   8.295  1.00  0.00    -0.316 N 
HETATM    8  C10 UNL     1      25.865  23.568   7.778  1.00  0.00     0.222 C 
HETATM    9  O3  UNL     1      24.872  23.628   6.959  1.00  0.00    -0.273 OA
HETATM   10  C13 UNL     1      25.718  26.095   7.942  1.00  0.00     0.036 C 
HETATM   11  C14 UNL     1      24.571  26.366   8.879  1.00  0.00     0.039 C 
HETATM   12  C15 UNL     1      25.252  26.171   6.544  1.00  0.00     0.039 C 
ENDROOT
BRANCH   1  13
HETATM   13  C4  UNL     1      30.018  25.083   8.498  1.00  0.00     0.209 C 
BRANCH  13  14
HETATM   14  C3  UNL     1      31.085  25.308   9.436  1.00  0.00     0.292 C 
HETATM   15  N1  UNL     1      32.261  26.043   9.080  1.00  0.00    -0.354 N 
ATOM     16  H1  UNL     1      32.349  26.421   8.136  1.00  0.00     0.162 HD
HETATM   17  O1  UNL     1      31.073  24.893  10.603  1.00  0.00    -0.264 OA
BRANCH  15  18
HETATM   18  C2  UNL     1      33.314  26.255  10.024  1.00  0.00     0.118 C 
HETATM   19  C1  UNL     1      34.414  27.164   9.519  1.00  0.00     0.026 C 
ENDBRANCH  15  18
ENDBRANCH  13  14
BRANCH  13  20
HETATM   20  O2  UNL     1      30.458  24.497   7.408  1.00  0.00    -0.342 OA
ATOM     21  H2  UNL     1      31.314  24.826   7.161  1.00  0.00     0.219 HD
ENDBRANCH  13  20
ENDBRANCH   1  13
BRANCH   8  22
HETATM   22  C11 UNL     1      26.411  22.242   8.101  1.00  0.00     0.098 C 
HETATM   23  C12 UNL     1      26.268  21.342   6.858  1.00  0.00     0.014 C 
ENDBRANCH   8  22
TORSDOF 5
ENDMDL
