MODEL 1
REMARK VINA RESULT: -6.504435268      0.000      0.000
REMARK  6 active torsions:
REMARK  status: ('A' for Active; 'I' for Inactive)
REMARK    1  A    between atoms: C3_3  and  C4_4 
REMARK    2  A    between atoms: C4_4  and  N1_5 
REMARK    3  A    between atoms: C5_6  and  C6_7 
REMARK    4  A    between atoms: C5_6  and  C11_12 
REMARK    5  A    between atoms: C7_8  and  C8_9 
REMARK    6  A    between atoms: C11_12  and  O1_13 
ROOT
HETATM    1  C1  UNL     1      30.013  30.527  10.350  1.00  0.00     0.112 C 
HETATM    2  C2  UNL     1      29.626  29.199   9.822  1.00  0.00    -0.110 C 
HETATM    3  C3  UNL     1      29.328  28.116   9.382  1.00  0.00    -0.091 C 
ENDROOT
BRANCH   3   4
HETATM    4  C4  UNL     1      28.961  26.804   8.824  1.00  0.00     0.204 C 
BRANCH   4   5
HETATM    5  N1  UNL     1      29.003  25.800   9.778  1.00  0.00    -0.162 NA
HETATM    6  C5  UNL     1      27.895  24.997  10.068  1.00  0.00     0.127 C 
HETATM    7  C12 UNL     1      28.095  23.669   9.362  1.00  0.00     0.150 C 
HETATM    8  N2  UNL     1      29.418  23.197   9.724  1.00  0.00    -0.199 NA
HETATM    9  C13 UNL     1      29.900  22.396   8.614  1.00  0.00     0.130 C 
HETATM   10  S1  UNL     1      30.310  24.703   9.685  1.00  0.00     0.285 S 
HETATM   11  O2  UNL     1      30.969  24.875   8.346  1.00  0.00    -0.194 OA
HETATM   12  O3  UNL     1      31.278  24.805  10.789  1.00  0.00    -0.194 OA
BRANCH   6  13
HETATM   13  C6  UNL     1      26.649  25.570   9.569  1.00  0.00    -0.075 C 
HETATM   14  C7  UNL     1      25.593  26.030   9.144  1.00  0.00    -0.100 C 
BRANCH  14  15
HETATM   15  C8  UNL     1      24.332  26.563   8.640  1.00  0.00     0.057 C 
HETATM   16  C9  UNL     1      23.237  25.516   8.725  1.00  0.00     0.023 C 
HETATM   17  C10 UNL     1      24.558  26.941   7.188  1.00  0.00     0.023 C 
ENDBRANCH  14  15
ENDBRANCH   6  13
BRANCH   6  18
HETATM   18  C11 UNL     1      27.675  24.681  11.525  1.00  0.00     0.205 C 
BRANCH  18  19
HETATM   19  O1  UNL     1      27.310  23.363  11.746  1.00  0.00    -0.398 OA
ATOM     20  H1  UNL     1      27.227  23.149  12.667  1.00  0.00     0.209 HD
ENDBRANCH  18  19
ENDBRANCH   6  18
ENDBRANCH   4   5
ENDBRANCH   3   4
TORSDOF 6
ENDMDL
MODEL 2
REMARK VINA RESULT: -5.901490256      2.333      3.150
REMARK  6 active torsions:
REMARK  status: ('A' for Active; 'I' for Inactive)
REMARK    1  A    between atoms: C3_3  and  C4_4 
REMARK    2  A    between atoms: C4_4  and  N1_5 
REMARK    3  A    between atoms: C5_6  and  C6_7 
REMARK    4  A    between atoms: C5_6  and  C11_12 
REMARK    5  A    between atoms: C7_8  and  C8_9 
REMARK    6  A    between atoms: C11_12  and  O1_13 
ROOT
HETATM    1  C1  UNL     1      25.367  27.188   7.422  1.00  0.00     0.112 C 
HETATM    2  C2  UNL     1      26.695  26.542   7.534  1.00  0.00    -0.110 C 
HETATM    3  C3  UNL     1      27.774  26.007   7.608  1.00  0.00    -0.091 C 
ENDROOT
BRANCH   3   4
HETATM    4  C4  UNL     1      29.078  25.333   7.702  1.00  0.00     0.204 C 
BRANCH   4   5
HETATM    5  N1  UNL     1      29.415  25.029   9.012  1.00  0.00    -0.162 NA
HETATM    6  C5  UNL     1      28.929  23.892   9.665  1.00  0.00     0.127 C 
HETATM    7  C12 UNL     1      30.030  22.849   9.650  1.00  0.00     0.150 C 
HETATM    8  N2  UNL     1      31.225  23.494  10.161  1.00  0.00    -0.199 NA
HETATM    9  C13 UNL     1      32.359  22.837   9.537  1.00  0.00     0.130 C 
HETATM   10  S1  UNL     1      31.077  25.068   9.409  1.00  0.00     0.285 S 
HETATM   11  O2  UNL     1      31.862  25.102   8.129  1.00  0.00    -0.194 OA
HETATM   12  O3  UNL     1      31.466  26.158  10.319  1.00  0.00    -0.194 OA
BRANCH   6  13
HETATM   13  C6  UNL     1      27.774  23.313   8.984  1.00  0.00    -0.075 C 
HETATM   14  C7  UNL     1      26.817  22.809   8.404  1.00  0.00    -0.100 C 
BRANCH  14  15
HETATM   15  C8  UNL     1      25.688  22.197   7.712  1.00  0.00     0.057 C 
HETATM   16  C9  UNL     1      26.166  21.123   6.753  1.00  0.00     0.023 C 
HETATM   17  C10 UNL     1      24.994  23.298   6.933  1.00  0.00     0.023 C 
ENDBRANCH  14  15
ENDBRANCH   6  13
BRANCH   6  18
HETATM   18  C11 UNL     1      28.533  24.079  11.107  1.00  0.00     0.205 C 
BRANCH  18  19
HETATM   19  O1  UNL     1      28.900  23.015  11.914  1.00  0.00    -0.398 OA
ATOM     20  H1  UNL     1      28.399  22.968  12.720  1.00  0.00     0.209 HD
ENDBRANCH  18  19
ENDBRANCH   6  18
ENDBRANCH   4   5
ENDBRANCH   3   4
TORSDOF 6
ENDMDL
MODEL 3
REMARK VINA RESULT: -5.689258933      3.251      6.774
REMARK  6 active torsions:
REMARK  status: ('A' for Active; 'I' for Inactive)
REMARK    1  A    between atoms: C3_3  and  C4_4 
REMARK    2  A    between atoms: C4_4  and  N1_5 
REMARK    3  A    between atoms: C5_6  and  C6_7 
REMARK    4  A    between atoms: C5_6  and  C11_12 
REMARK    5  A    between atoms: C7_8  and  C8_9 
REMARK    6  A    between atoms: C11_12  and  O1_13 
ROOT
HETATM    1  C1  UNL     1      24.776  18.567   8.232  1.00  0.00     0.112 C 
HETATM    2  C2  UNL     1      25.527  19.790   7.871  1.00  0.00    -0.110 C 
HETATM    3  C3  UNL     1      26.125  20.793   7.565  1.00  0.00    -0.091 C 
ENDROOT
BRANCH   3   4
HETATM    4  C4  UNL     1      26.858  22.007   7.170  1.00  0.00     0.204 C 
BRANCH   4   5
HETATM    5  N1  UNL     1      27.092  22.849   8.246  1.00  0.00    -0.162 NA
HETATM    6  C5  UNL     1      28.373  23.302   8.577  1.00  0.00     0.127 C 
HETATM    7  C12 UNL     1      28.505  24.721   8.058  1.00  0.00     0.150 C 
HETATM    8  N2  UNL     1      27.354  25.455   8.548  1.00  0.00    -0.199 NA
HETATM    9  C13 UNL     1      27.071  26.496   7.576  1.00  0.00     0.130 C 
HETATM   10  S1  UNL     1      26.107  24.240   8.364  1.00  0.00     0.285 S 
HETATM   11  O2  UNL     1      25.399  24.424   7.052  1.00  0.00    -0.194 OA
HETATM   12  O3  UNL     1      25.166  24.233   9.496  1.00  0.00    -0.194 OA
BRANCH   6  13
HETATM   13  C6  UNL     1      29.423  22.509   7.942  1.00  0.00    -0.075 C 
HETATM   14  C7  UNL     1      30.294  21.845   7.388  1.00  0.00    -0.100 C 
BRANCH  14  15
HETATM   15  C8  UNL     1      31.325  21.063   6.715  1.00  0.00     0.057 C 
HETATM   16  C9  UNL     1      32.694  21.375   7.290  1.00  0.00     0.023 C 
HETATM   17  C10 UNL     1      31.292  21.451   5.249  1.00  0.00     0.023 C 
ENDBRANCH  14  15
ENDBRANCH   6  13
BRANCH   6  18
HETATM   18  C11 UNL     1      28.695  23.350  10.048  1.00  0.00     0.205 C 
BRANCH  18  19
HETATM   19  O1  UNL     1      27.569  23.300  10.852  1.00  0.00    -0.398 OA
ATOM     20  H1  UNL     1      27.760  23.046  11.747  1.00  0.00     0.209 HD
ENDBRANCH  18  19
ENDBRANCH   6  18
ENDBRANCH   4   5
ENDBRANCH   3   4
TORSDOF 6
ENDMDL
MODEL 4
REMARK VINA RESULT: -5.583425105      3.342      6.579
REMARK  6 active torsions:
REMARK  status: ('A' for Active; 'I' for Inactive)
REMARK    1  A    between atoms: C3_3  and  C4_4 
REMARK    2  A    between atoms: C4_4  and  N1_5 
REMARK    3  A    between atoms: C5_6  and  C6_7 
REMARK    4  A    between atoms: C5_6  and  C11_12 
REMARK    5  A    between atoms: C7_8  and  C8_9 
REMARK    6  A    between atoms: C11_12  and  O1_13 
ROOT
HETATM    1  C1  UNL     1      25.182  18.826   8.064  1.00  0.00     0.112 C 
HETATM    2  C2  UNL     1      25.593  20.216   7.765  1.00  0.00    -0.110 C 
HETATM    3  C3  UNL     1      25.910  21.353   7.512  1.00  0.00    -0.091 C 
ENDROOT
BRANCH   3   4
HETATM    4  C4  UNL     1      26.301  22.732   7.180  1.00  0.00     0.204 C 
BRANCH   4   5
HETATM    5  N1  UNL     1      26.126  23.596   8.249  1.00  0.00    -0.162 NA
HETATM    6  C5  UNL     1      27.189  24.307   8.818  1.00  0.00     0.127 C 
HETATM    7  C12 UNL     1      27.128  25.726   8.285  1.00  0.00     0.150 C 
HETATM    8  N2  UNL     1      25.773  26.197   8.502  1.00  0.00    -0.199 NA
HETATM    9  C13 UNL     1      25.489  27.162   7.455  1.00  0.00     0.130 C 
HETATM   10  S1  UNL     1      24.872  24.748   8.111  1.00  0.00     0.285 S 
HETATM   11  O2  UNL     1      24.431  24.788   6.675  1.00  0.00    -0.194 OA
HETATM   12  O3  UNL     1      23.738  24.535   9.025  1.00  0.00    -0.194 OA
BRANCH   6  13
HETATM   13  C6  UNL     1      28.488  23.757   8.442  1.00  0.00    -0.075 C 
HETATM   14  C7  UNL     1      29.574  23.274   8.135  1.00  0.00    -0.100 C 
BRANCH  14  15
HETATM   15  C8  UNL     1      30.858  22.685   7.772  1.00  0.00     0.057 C 
HETATM   16  C9  UNL     1      31.399  23.323   6.506  1.00  0.00     0.023 C 
HETATM   17  C10 UNL     1      30.617  21.207   7.530  1.00  0.00     0.023 C 
ENDBRANCH  14  15
ENDBRANCH   6  13
BRANCH   6  18
HETATM   18  C11 UNL     1      27.180  24.410  10.322  1.00  0.00     0.205 C 
BRANCH  18  19
HETATM   19  O1  UNL     1      27.416  23.199  10.951  1.00  0.00    -0.398 OA
ATOM     20  H1  UNL     1      27.382  23.258  11.898  1.00  0.00     0.209 HD
ENDBRANCH  18  19
ENDBRANCH   6  18
ENDBRANCH   4   5
ENDBRANCH   3   4
TORSDOF 6
ENDMDL
MODEL 5
REMARK VINA RESULT: -5.513025385      4.745      7.622
REMARK  6 active torsions:
REMARK  status: ('A' for Active; 'I' for Inactive)
REMARK    1  A    between atoms: C3_3  and  C4_4 
REMARK    2  A    between atoms: C4_4  and  N1_5 
REMARK    3  A    between atoms: C5_6  and  C6_7 
REMARK    4  A    between atoms: C5_6  and  C11_12 
REMARK    5  A    between atoms: C7_8  and  C8_9 
REMARK    6  A    between atoms: C11_12  and  O1_13 
ROOT
HETATM    1  C1  UNL     1      28.227  23.893  11.733  1.00  0.00     0.112 C 
HETATM    2  C2  UNL     1      29.598  23.457  11.384  1.00  0.00    -0.110 C 
HETATM    3  C3  UNL     1      30.723  23.112  11.115  1.00  0.00    -0.091 C 
ENDROOT
BRANCH   3   4
HETATM    4  C4  UNL     1      32.099  22.714  10.778  1.00  0.00     0.204 C 
BRANCH   4   5
HETATM    5  N1  UNL     1      32.700  21.996  11.800  1.00  0.00    -0.162 NA
HETATM    6  C5  UNL     1      33.337  20.770  11.578  1.00  0.00     0.127 C 
HETATM    7  C12 UNL     1      34.831  21.031  11.536  1.00  0.00     0.150 C 
HETATM    8  N2  UNL     1      35.158  21.786  12.731  1.00  0.00    -0.199 NA
HETATM    9  C13 UNL     1      36.305  22.613  12.407  1.00  0.00     0.130 C 
HETATM   10  S1  UNL     1      33.773  22.854  12.816  1.00  0.00     0.285 S 
HETATM   11  O2  UNL     1      34.093  24.165  12.156  1.00  0.00    -0.194 OA
HETATM   12  O3  UNL     1      33.297  23.038  14.197  1.00  0.00    -0.194 OA
BRANCH   6  13
HETATM   13  C6  UNL     1      32.965  20.175  10.298  1.00  0.00    -0.075 C 
HETATM   14  C7  UNL     1      32.673  19.680   9.213  1.00  0.00    -0.100 C 
BRANCH  14  15
HETATM   15  C8  UNL     1      32.342  19.092   7.920  1.00  0.00     0.057 C 
HETATM   16  C9  UNL     1      31.971  17.629   8.077  1.00  0.00     0.023 C 
HETATM   17  C10 UNL     1      33.577  19.210   7.048  1.00  0.00     0.023 C 
ENDBRANCH  14  15
ENDBRANCH   6  13
BRANCH   6  18
HETATM   18  C11 UNL     1      33.114  19.714  12.629  1.00  0.00     0.205 C 
BRANCH  18  19
HETATM   19  O1  UNL     1      31.818  19.698  13.117  1.00  0.00    -0.398 OA
ATOM     20  H1  UNL     1      31.203  20.155  12.555  1.00  0.00     0.209 HD
ENDBRANCH  18  19
ENDBRANCH   6  18
ENDBRANCH   4   5
ENDBRANCH   3   4
TORSDOF 6
ENDMDL
