MODEL 1
REMARK VINA RESULT: -10.531848417      0.000      0.000
REMARK  5 active torsions:
REMARK  status: ('A' for Active; 'I' for Inactive)
REMARK    1  A    between atoms: O1_2  and  C2_3 
REMARK    2  A    between atoms: C3_6  and  N2_7 
REMARK       I    between atoms: N2_7  and  C4_9 
REMARK       I    between atoms: C4_9  and  N3_11 
REMARK    3  A    between atoms: N3_11  and  N4_13 
REMARK       I    between atoms: N4_13  and  C5_15 
REMARK    4  A    between atoms: C5_15  and  C6_17 
REMARK    5  A    between atoms: C12_25  and  C13_26 
ROOT
HETATM    1  C2  UNL     1      12.645  41.645  23.569  1.00  0.00     0.171 A 
HETATM    2  N1  UNL     1      13.971  41.742  23.261  1.00  0.00    -0.169 N 
ATOM      3  H1  UNL     1      14.259  42.264  22.433  1.00  0.00     0.186 HD
HETATM    4  C3  UNL     1      14.901  41.160  24.036  1.00  0.00     0.688 A 
HETATM    5  N5  UNL     1      14.487  40.483  25.118  1.00  0.00    -0.190 N 
ATOM      6  H5  UNL     1      15.190  40.040  25.709  1.00  0.00     0.184 HD
HETATM    7  C10 UNL     1      13.192  40.357  25.465  1.00  0.00     0.066 A 
HETATM    8  C11 UNL     1      12.779  39.665  26.569  1.00  0.00     0.046 A 
HETATM    9  C12 UNL     1      11.444  39.513  26.961  1.00  0.00     0.013 A 
HETATM   10  C16 UNL     1      10.495  40.104  26.173  1.00  0.00     0.043 A 
HETATM   11  C17 UNL     1      10.904  40.825  25.026  1.00  0.00     0.064 A 
HETATM   12  N9  UNL     1       9.886  41.424  24.235  1.00  0.00    -0.101 NA
HETATM   13  C18 UNL     1      12.226  40.948  24.681  1.00  0.00     0.067 A 
ENDROOT
BRANCH   4  14
HETATM   14  N2  UNL     1      16.176  41.252  23.744  1.00  0.00    -0.140 N 
HETATM   15  C4  UNL     1      16.898  40.037  23.475  1.00  0.00     0.353 C 
HETATM   16  O2  UNL     1      16.312  39.074  22.879  1.00  0.00    -0.245 OA
HETATM   17  N3  UNL     1      18.241  39.890  23.858  1.00  0.00    -0.248 N 
ATOM     18  H3  UNL     1      18.715  40.656  24.336  1.00  0.00     0.192 HD
ATOM     19  H2  UNL     1      16.642  42.159  23.708  1.00  0.00     0.189 HD
BRANCH  17  20
HETATM   20  N4  UNL     1      18.934  38.714  23.595  1.00  0.00    -0.265 N 
HETATM   21  C5  UNL     1      19.603  38.047  24.649  1.00  0.00     0.243 C 
HETATM   22  O3  UNL     1      19.558  38.535  25.809  1.00  0.00    -0.271 OA
ATOM     23  H4  UNL     1      18.959  38.333  22.649  1.00  0.00     0.190 HD
BRANCH  21  24
HETATM   24  C6  UNL     1      20.360  36.792  24.447  1.00  0.00     0.032 C 
HETATM   25  C7  UNL     1      21.852  36.986  24.579  1.00  0.00     0.025 C 
HETATM   26  C8  UNL     1      20.103  36.237  23.053  1.00  0.00     0.025 C 
HETATM   27  C9  UNL     1      19.939  35.797  25.501  1.00  0.00     0.025 C 
ENDBRANCH  21  24
ENDBRANCH  17  20
ENDBRANCH   4  14
BRANCH   1  28
HETATM   28  O1  UNL     1      11.661  42.236  22.786  1.00  0.00    -0.340 OA
HETATM   29  C1  UNL     1      11.973  43.073  21.684  1.00  0.00     0.211 C 
ENDBRANCH   1  28
BRANCH   9  30
HETATM   30  C13 UNL     1      11.200  38.719  28.146  1.00  0.00     0.133 A 
HETATM   31  N6  UNL     1      10.522  37.509  28.134  1.00  0.00    -0.284 N 
HETATM   32  N7  UNL     1      10.488  37.029  29.353  1.00  0.00    -0.294 N 
ATOM     33  H6  UNL     1      10.114  37.065  27.311  1.00  0.00     0.188 HD
HETATM   34  C14 UNL     1      11.108  37.849  30.190  1.00  0.00     0.201 A 
ATOM     35  H7  UNL     1      10.048  36.149  29.620  1.00  0.00     0.187 HD
HETATM   36  N8  UNL     1      11.547  38.904  29.408  1.00  0.00    -0.331 N 
HETATM   37  C15 UNL     1      12.298  40.002  29.968  1.00  0.00     0.158 C 
ENDBRANCH   9  30
TORSDOF 5
ENDMDL
MODEL 2
REMARK VINA RESULT: -9.814238738      2.352      4.406
REMARK  5 active torsions:
REMARK  status: ('A' for Active; 'I' for Inactive)
REMARK    1  A    between atoms: O1_2  and  C2_3 
REMARK    2  A    between atoms: C3_6  and  N2_7 
REMARK       I    between atoms: N2_7  and  C4_9 
REMARK       I    between atoms: C4_9  and  N3_11 
REMARK    3  A    between atoms: N3_11  and  N4_13 
REMARK       I    between atoms: N4_13  and  C5_15 
REMARK    4  A    between atoms: C5_15  and  C6_17 
REMARK    5  A    between atoms: C12_25  and  C13_26 
ROOT
HETATM    1  C2  UNL     1      13.945  41.405  25.817  1.00  0.00     0.171 A 
HETATM    2  N1  UNL     1      15.169  41.363  25.214  1.00  0.00    -0.169 N 
ATOM      3  H1  UNL     1      16.012  41.495  25.774  1.00  0.00     0.186 HD
HETATM    4  C3  UNL     1      15.278  41.151  23.891  1.00  0.00     0.688 A 
HETATM    5  N5  UNL     1      14.150  40.981  23.186  1.00  0.00    -0.190 N 
ATOM      6  H5  UNL     1      14.228  40.819  22.182  1.00  0.00     0.184 HD
HETATM    7  C10 UNL     1      12.919  41.013  23.731  1.00  0.00     0.066 A 
HETATM    8  C11 UNL     1      11.775  40.839  23.004  1.00  0.00     0.046 A 
HETATM    9  C12 UNL     1      10.481  40.865  23.536  1.00  0.00     0.013 A 
HETATM   10  C16 UNL     1      10.368  41.082  24.882  1.00  0.00     0.043 A 
HETATM   11  C17 UNL     1      11.542  41.264  25.651  1.00  0.00     0.064 A 
HETATM   12  N9  UNL     1      11.379  41.486  27.046  1.00  0.00    -0.101 NA
HETATM   13  C18 UNL     1      12.791  41.229  25.085  1.00  0.00     0.067 A 
ENDROOT
BRANCH   4  14
HETATM   14  N2  UNL     1      16.452  41.110  23.309  1.00  0.00    -0.140 N 
HETATM   15  C4  UNL     1      17.157  39.856  23.293  1.00  0.00     0.353 C 
HETATM   16  O2  UNL     1      16.504  38.767  23.186  1.00  0.00    -0.245 OA
HETATM   17  N3  UNL     1      18.557  39.809  23.394  1.00  0.00    -0.248 N 
ATOM     18  H3  UNL     1      19.085  40.677  23.481  1.00  0.00     0.192 HD
ATOM     19  H2  UNL     1      16.853  41.944  22.880  1.00  0.00     0.189 HD
BRANCH  17  20
HETATM   20  N4  UNL     1      19.232  38.594  23.378  1.00  0.00    -0.265 N 
HETATM   21  C5  UNL     1      19.633  38.001  24.600  1.00  0.00     0.243 C 
HETATM   22  O3  UNL     1      19.368  38.588  25.682  1.00  0.00    -0.271 OA
ATOM     23  H4  UNL     1      19.438  38.133  22.492  1.00  0.00     0.190 HD
BRANCH  21  24
HETATM   24  C6  UNL     1      20.354  36.711  24.662  1.00  0.00     0.032 C 
HETATM   25  C7  UNL     1      20.024  35.805  23.500  1.00  0.00     0.025 C 
HETATM   26  C8  UNL     1      19.986  35.958  25.932  1.00  0.00     0.025 C 
HETATM   27  C9  UNL     1      21.837  36.983  24.616  1.00  0.00     0.025 C 
ENDBRANCH  21  24
ENDBRANCH  17  20
ENDBRANCH   4  14
BRANCH   1  28
HETATM   28  O1  UNL     1      13.803  41.622  27.181  1.00  0.00    -0.340 OA
HETATM   29  C1  UNL     1      14.785  41.210  28.119  1.00  0.00     0.211 C 
ENDBRANCH   1  28
BRANCH   9  30
HETATM   30  C13 UNL     1       9.390  40.689  22.602  1.00  0.00     0.133 A 
HETATM   31  N6  UNL     1       8.614  39.540  22.535  1.00  0.00    -0.284 N 
HETATM   32  N7  UNL     1       7.698  39.699  21.611  1.00  0.00    -0.294 N 
ATOM     33  H6  UNL     1       8.736  38.707  23.111  1.00  0.00     0.188 HD
HETATM   34  C14 UNL     1       7.813  40.894  21.048  1.00  0.00     0.201 A 
ATOM     35  H7  UNL     1       6.997  39.003  21.360  1.00  0.00     0.187 HD
HETATM   36  N8  UNL     1       8.882  41.498  21.689  1.00  0.00    -0.331 N 
HETATM   37  C15 UNL     1       9.304  42.839  21.362  1.00  0.00     0.158 C 
ENDBRANCH   9  30
TORSDOF 5
ENDMDL
MODEL 3
REMARK VINA RESULT: -9.720631356      2.148      4.462
REMARK  5 active torsions:
REMARK  status: ('A' for Active; 'I' for Inactive)
REMARK    1  A    between atoms: O1_2  and  C2_3 
REMARK    2  A    between atoms: C3_6  and  N2_7 
REMARK       I    between atoms: N2_7  and  C4_9 
REMARK       I    between atoms: C4_9  and  N3_11 
REMARK    3  A    between atoms: N3_11  and  N4_13 
REMARK       I    between atoms: N4_13  and  C5_15 
REMARK    4  A    between atoms: C5_15  and  C6_17 
REMARK    5  A    between atoms: C12_25  and  C13_26 
ROOT
HETATM    1  C2  UNL     1      13.758  40.908  25.930  1.00  0.00     0.171 A 
HETATM    2  N1  UNL     1      15.004  40.972  25.378  1.00  0.00    -0.169 N 
ATOM      3  H1  UNL     1      15.826  40.948  25.983  1.00  0.00     0.186 HD
HETATM    4  C3  UNL     1      15.163  41.067  24.047  1.00  0.00     0.688 A 
HETATM    5  N5  UNL     1      14.062  41.096  23.282  1.00  0.00    -0.190 N 
ATOM      6  H5  UNL     1      14.178  41.167  22.271  1.00  0.00     0.184 HD
HETATM    7  C10 UNL     1      12.810  41.035  23.776  1.00  0.00     0.066 A 
HETATM    8  C11 UNL     1      11.694  41.065  22.988  1.00  0.00     0.046 A 
HETATM    9  C12 UNL     1      10.380  41.003  23.465  1.00  0.00     0.013 A 
HETATM   10  C16 UNL     1      10.216  40.908  24.820  1.00  0.00     0.043 A 
HETATM   11  C17 UNL     1      11.361  40.875  25.652  1.00  0.00     0.064 A 
HETATM   12  N9  UNL     1      11.145  40.774  27.053  1.00  0.00    -0.101 NA
HETATM   13  C18 UNL     1      12.631  40.937  25.137  1.00  0.00     0.067 A 
ENDROOT
BRANCH   4  14
HETATM   14  N2  UNL     1      16.359  41.130  23.513  1.00  0.00    -0.140 N 
HETATM   15  C4  UNL     1      17.109  39.908  23.389  1.00  0.00     0.353 C 
HETATM   16  O2  UNL     1      16.501  38.818  23.136  1.00  0.00    -0.245 OA
HETATM   17  N3  UNL     1      18.505  39.895  23.542  1.00  0.00    -0.248 N 
ATOM     18  H3  UNL     1      18.997  40.764  23.746  1.00  0.00     0.192 HD
ATOM     19  H2  UNL     1      16.746  42.018  23.195  1.00  0.00     0.189 HD
BRANCH  17  20
HETATM   20  N4  UNL     1      19.225  38.712  23.421  1.00  0.00    -0.265 N 
HETATM   21  C5  UNL     1      19.631  38.018  24.587  1.00  0.00     0.243 C 
HETATM   22  O3  UNL     1      19.331  38.489  25.715  1.00  0.00    -0.271 OA
ATOM     23  H4  UNL     1      19.458  38.345  22.498  1.00  0.00     0.190 HD
BRANCH  21  24
HETATM   24  C6  UNL     1      20.398  36.754  24.537  1.00  0.00     0.032 C 
HETATM   25  C7  UNL     1      21.890  36.978  24.602  1.00  0.00     0.025 C 
HETATM   26  C8  UNL     1      20.115  36.013  23.239  1.00  0.00     0.025 C 
HETATM   27  C9  UNL     1      20.016  35.908  25.726  1.00  0.00     0.025 C 
ENDBRANCH  21  24
ENDBRANCH  17  20
ENDBRANCH   4  14
BRANCH   1  28
HETATM   28  O1  UNL     1      13.563  40.809  27.302  1.00  0.00    -0.340 OA
HETATM   29  C1  UNL     1      14.639  40.874  28.225  1.00  0.00     0.211 C 
ENDBRANCH   1  28
BRANCH   9  30
HETATM   30  C13 UNL     1       9.325  41.077  22.478  1.00  0.00     0.133 A 
HETATM   31  N6  UNL     1       9.050  42.214  21.731  1.00  0.00    -0.284 N 
HETATM   32  N7  UNL     1       8.059  41.955  20.912  1.00  0.00    -0.294 N 
ATOM     33  H6  UNL     1       9.538  43.107  21.807  1.00  0.00     0.188 HD
HETATM   34  C14 UNL     1       7.650  40.704  21.064  1.00  0.00     0.201 A 
ATOM     35  H7  UNL     1       7.661  42.622  20.252  1.00  0.00     0.187 HD
HETATM   36  N8  UNL     1       8.460  40.172  22.053  1.00  0.00    -0.331 N 
HETATM   37  C15 UNL     1       8.331  38.801  22.485  1.00  0.00     0.158 C 
ENDBRANCH   9  30
TORSDOF 5
ENDMDL
MODEL 4
REMARK VINA RESULT: -9.720137893      3.224      8.144
REMARK  5 active torsions:
REMARK  status: ('A' for Active; 'I' for Inactive)
REMARK    1  A    between atoms: O1_2  and  C2_3 
REMARK    2  A    between atoms: C3_6  and  N2_7 
REMARK       I    between atoms: N2_7  and  C4_9 
REMARK       I    between atoms: C4_9  and  N3_11 
REMARK    3  A    between atoms: N3_11  and  N4_13 
REMARK       I    between atoms: N4_13  and  C5_15 
REMARK    4  A    between atoms: C5_15  and  C6_17 
REMARK    5  A    between atoms: C12_25  and  C13_26 
ROOT
HETATM    1  C2  UNL     1      13.796  41.115  25.935  1.00  0.00     0.171 A 
HETATM    2  N1  UNL     1      13.357  41.137  24.642  1.00  0.00    -0.169 N 
ATOM      3  H1  UNL     1      12.547  41.705  24.395  1.00  0.00     0.186 HD
HETATM    4  C3  UNL     1      13.981  40.420  23.692  1.00  0.00     0.688 A 
HETATM    5  N5  UNL     1      15.043  39.685  24.053  1.00  0.00    -0.190 N 
ATOM      6  H5  UNL     1      15.519  39.140  23.334  1.00  0.00     0.184 HD
HETATM    7  C10 UNL     1      15.515  39.628  25.312  1.00  0.00     0.066 A 
HETATM    8  C11 UNL     1      16.599  38.876  25.670  1.00  0.00     0.046 A 
HETATM    9  C12 UNL     1      17.118  38.793  26.967  1.00  0.00     0.013 A 
HETATM   10  C16 UNL     1      16.485  39.522  27.937  1.00  0.00     0.043 A 
HETATM   11  C17 UNL     1      15.361  40.307  27.584  1.00  0.00     0.064 A 
HETATM   12  N9  UNL     1      14.733  41.048  28.622  1.00  0.00    -0.101 NA
HETATM   13  C18 UNL     1      14.888  40.357  26.298  1.00  0.00     0.067 A 
ENDROOT
BRANCH   4  14
HETATM   14  N2  UNL     1      13.562  40.439  22.450  1.00  0.00    -0.140 N 
HETATM   15  C4  UNL     1      12.944  41.644  21.962  1.00  0.00     0.353 C 
HETATM   16  O2  UNL     1      13.362  42.776  22.370  1.00  0.00    -0.245 OA
HETATM   17  N3  UNL     1      11.885  41.595  21.041  1.00  0.00    -0.248 N 
ATOM     18  H3  UNL     1      11.546  40.692  20.711  1.00  0.00     0.192 HD
ATOM     19  H2  UNL     1      13.671  39.624  21.847  1.00  0.00     0.189 HD
BRANCH  17  20
HETATM   20  N4  UNL     1      11.293  42.762  20.573  1.00  0.00    -0.265 N 
HETATM   21  C5  UNL     1      10.077  43.207  21.146  1.00  0.00     0.243 C 
HETATM   22  O3  UNL     1       9.554  42.534  22.072  1.00  0.00    -0.271 OA
ATOM     23  H4  UNL     1      11.731  43.295  19.822  1.00  0.00     0.190 HD
BRANCH  21  24
HETATM   24  C6  UNL     1       9.388  44.439  20.702  1.00  0.00     0.032 C 
HETATM   25  C7  UNL     1       9.970  45.000  19.426  1.00  0.00     0.025 C 
HETATM   26  C8  UNL     1       9.506  45.524  21.761  1.00  0.00     0.025 C 
HETATM   27  C9  UNL     1       7.940  44.113  20.432  1.00  0.00     0.025 C 
ENDBRANCH  21  24
ENDBRANCH  17  20
ENDBRANCH   4  14
BRANCH   1  28
HETATM   28  O1  UNL     1      13.172  41.846  26.938  1.00  0.00    -0.340 OA
HETATM   29  C1  UNL     1      11.761  41.976  27.012  1.00  0.00     0.211 C 
ENDBRANCH   1  28
BRANCH   9  30
HETATM   30  C13 UNL     1      18.256  37.920  27.158  1.00  0.00     0.133 A 
HETATM   31  N6  UNL     1      18.485  37.200  28.322  1.00  0.00    -0.284 N 
HETATM   32  N7  UNL     1      19.577  36.489  28.174  1.00  0.00    -0.294 N 
ATOM     33  H6  UNL     1      17.899  37.219  29.157  1.00  0.00     0.188 HD
HETATM   34  C14 UNL     1      20.099  36.691  26.972  1.00  0.00     0.201 A 
ATOM     35  H7  UNL     1      19.969  35.870  28.883  1.00  0.00     0.187 HD
HETATM   36  N8  UNL     1      19.251  37.593  26.353  1.00  0.00    -0.331 N 
HETATM   37  C15 UNL     1      19.480  38.043  25.000  1.00  0.00     0.158 C 
ENDBRANCH   9  30
TORSDOF 5
ENDMDL
MODEL 5
REMARK VINA RESULT: -9.620415326      3.136      8.410
REMARK  5 active torsions:
REMARK  status: ('A' for Active; 'I' for Inactive)
REMARK    1  A    between atoms: O1_2  and  C2_3 
REMARK    2  A    between atoms: C3_6  and  N2_7 
REMARK       I    between atoms: N2_7  and  C4_9 
REMARK       I    between atoms: C4_9  and  N3_11 
REMARK    3  A    between atoms: N3_11  and  N4_13 
REMARK       I    between atoms: N4_13  and  C5_15 
REMARK    4  A    between atoms: C5_15  and  C6_17 
REMARK    5  A    between atoms: C12_25  and  C13_26 
ROOT
HETATM    1  C2  UNL     1      14.335  40.197  27.901  1.00  0.00     0.171 A 
HETATM    2  N1  UNL     1      13.511  40.869  27.046  1.00  0.00    -0.169 N 
ATOM      3  H1  UNL     1      12.641  41.271  27.396  1.00  0.00     0.186 HD
HETATM    4  C3  UNL     1      13.833  41.010  25.749  1.00  0.00     0.688 A 
HETATM    5  N5  UNL     1      14.985  40.471  25.323  1.00  0.00    -0.190 N 
ATOM      6  H5  UNL     1      15.233  40.577  24.339  1.00  0.00     0.184 HD
HETATM    7  C10 UNL     1      15.833  39.799  26.125  1.00  0.00     0.066 A 
HETATM    8  C11 UNL     1      17.005  39.253  25.682  1.00  0.00     0.046 A 
HETATM    9  C12 UNL     1      17.909  38.549  26.485  1.00  0.00     0.013 A 
HETATM   10  C16 UNL     1      17.584  38.403  27.806  1.00  0.00     0.043 A 
HETATM   11  C17 UNL     1      16.374  38.963  28.282  1.00  0.00     0.064 A 
HETATM   12  N9  UNL     1      16.074  38.788  29.661  1.00  0.00    -0.101 NA
HETATM   13  C18 UNL     1      15.518  39.646  27.457  1.00  0.00     0.067 A 
ENDROOT
BRANCH   4  14
HETATM   14  N2  UNL     1      13.044  41.656  24.925  1.00  0.00    -0.140 N 
HETATM   15  C4  UNL     1      11.742  41.102  24.660  1.00  0.00     0.353 C 
HETATM   16  O2  UNL     1      11.114  40.496  25.589  1.00  0.00    -0.245 OA
HETATM   17  N3  UNL     1      11.149  41.216  23.392  1.00  0.00    -0.248 N 
ATOM     18  H3  UNL     1      11.647  41.698  22.645  1.00  0.00     0.192 HD
ATOM     19  H2  UNL     1      13.343  42.526  24.484  1.00  0.00     0.189 HD
BRANCH  17  20
HETATM   20  N4  UNL     1       9.891  40.678  23.143  1.00  0.00    -0.265 N 
HETATM   21  C5  UNL     1       9.721  39.766  22.073  1.00  0.00     0.243 C 
HETATM   22  O3  UNL     1      10.716  39.459  21.366  1.00  0.00    -0.271 OA
ATOM     23  H4  UNL     1       9.096  40.939  23.726  1.00  0.00     0.190 HD
BRANCH  21  24
HETATM   24  C6  UNL     1       8.415  39.154  21.747  1.00  0.00     0.032 C 
HETATM   25  C7  UNL     1       8.540  38.003  20.776  1.00  0.00     0.025 C 
HETATM   26  C8  UNL     1       7.493  40.180  21.105  1.00  0.00     0.025 C 
HETATM   27  C9  UNL     1       7.804  38.611  23.015  1.00  0.00     0.025 C 
ENDBRANCH  21  24
ENDBRANCH  17  20
ENDBRANCH   4  14
BRANCH   1  28
HETATM   28  O1  UNL     1      14.029  40.036  29.246  1.00  0.00    -0.340 OA
HETATM   29  C1  UNL     1      12.723  39.705  29.690  1.00  0.00     0.211 C 
ENDBRANCH   1  28
BRANCH   9  30
HETATM   30  C13 UNL     1      19.086  38.019  25.829  1.00  0.00     0.133 A 
HETATM   31  N6  UNL     1      19.538  38.456  24.592  1.00  0.00    -0.284 N 
HETATM   32  N7  UNL     1      20.632  37.803  24.285  1.00  0.00    -0.294 N 
ATOM     33  H6  UNL     1      19.091  39.168  24.015  1.00  0.00     0.188 HD
HETATM   34  C14 UNL     1      20.946  36.948  25.248  1.00  0.00     0.201 A 
ATOM     35  H7  UNL     1      21.167  37.934  23.427  1.00  0.00     0.187 HD
HETATM   36  N8  UNL     1      19.959  37.103  26.208  1.00  0.00    -0.331 N 
HETATM   37  C15 UNL     1      19.972  36.347  27.438  1.00  0.00     0.158 C 
ENDBRANCH   9  30
TORSDOF 5
ENDMDL
