MODEL 1
REMARK VINA RESULT: -5.541513491      0.000      0.000
REMARK  6 active torsions:
REMARK  status: ('A' for Active; 'I' for Inactive)
REMARK    1  A    between atoms: C2_2  and  N1_3 
REMARK       I    between atoms: N1_3  and  C3_5 
REMARK    2  A    between atoms: C3_5  and  C4_7 
REMARK       I    between atoms: N2_11  and  C8_12 
REMARK    3  A    between atoms: C8_12  and  C9_14 
REMARK    4  A    between atoms: C9_14  and  C10_15 
REMARK    5  A    between atoms: C9_14  and  N3_19 
REMARK    6  A    between atoms: C10_15  and  C11_16 
REMARK       I    between atoms: N3_19  and  C12_21 
REMARK       I    between atoms: C12_21  and  N4_23 
ROOT
HETATM    1  C4  UNL     1      12.029  24.380  20.116  1.00  0.00     0.179 C 
HETATM    2  C5  UNL     1      13.420  24.864  19.741  1.00  0.00     0.037 C 
HETATM    3  C6  UNL     1      14.024  25.296  21.036  1.00  0.00     0.022 C 
HETATM    4  C7  UNL     1      13.157  24.724  22.094  1.00  0.00     0.127 C 
HETATM    5  N2  UNL     1      12.180  23.879  21.441  1.00  0.00    -0.337 N 
HETATM    6  C8  UNL     1      11.493  22.759  21.998  1.00  0.00     0.244 C 
HETATM    7  O2  UNL     1      11.704  22.478  23.206  1.00  0.00    -0.271 OA
ENDROOT
BRANCH   6   8
HETATM    8  C9  UNL     1      10.545  21.894  21.267  1.00  0.00     0.188 C 
BRANCH   8   9
HETATM    9  C10 UNL     1      10.361  20.605  22.094  1.00  0.00     0.148 C 
BRANCH   9  10
HETATM   10  C11 UNL     1       9.848  19.559  21.196  1.00  0.00     0.175 C 
HETATM   11  O3  UNL     1       9.766  19.768  19.958  1.00  0.00    -0.648 OA
HETATM   12  O4  UNL     1       9.430  18.306  21.646  1.00  0.00    -0.648 OA
ENDBRANCH   9  10
ENDBRANCH   8   9
BRANCH   8  13
HETATM   13  N3  UNL     1       9.208  22.495  21.239  1.00  0.00    -0.329 N 
HETATM   14  C12 UNL     1       8.601  22.927  20.049  1.00  0.00     0.326 C 
HETATM   15  O5  UNL     1       9.212  22.801  18.959  1.00  0.00    -0.247 OA
HETATM   16  N4  UNL     1       7.308  23.508  20.022  1.00  0.00    -0.275 N 
HETATM   17 BR1  UNL     1       6.479  24.090  18.441  1.00  0.00     0.051 Br
ATOM     18  H4  UNL     1       6.805  23.614  20.902  1.00  0.00     0.178 HD
ATOM     19  H3  UNL     1       8.700  22.603  22.117  1.00  0.00     0.165 HD
ENDBRANCH   8  13
ENDBRANCH   6   8
BRANCH   1  20
HETATM   20  C3  UNL     1      11.129  25.565  20.043  1.00  0.00     0.240 C 
HETATM   21  N1  UNL     1      11.343  26.517  19.014  1.00  0.00    -0.360 N 
ATOM     22  H1  UNL     1      12.099  26.386  18.343  1.00  0.00     0.162 HD
HETATM   23  O1  UNL     1      10.215  25.678  20.894  1.00  0.00    -0.271 OA
BRANCH  21  24
HETATM   24  C2  UNL     1      10.476  27.686  18.921  1.00  0.00     0.118 C 
HETATM   25  C1  UNL     1       9.370  27.436  17.931  1.00  0.00     0.026 C 
ENDBRANCH  21  24
ENDBRANCH   1  20
TORSDOF 6
ENDMDL
MODEL 2
REMARK VINA RESULT: -5.431588565      3.150      4.972
REMARK  6 active torsions:
REMARK  status: ('A' for Active; 'I' for Inactive)
REMARK    1  A    between atoms: C2_2  and  N1_3 
REMARK       I    between atoms: N1_3  and  C3_5 
REMARK    2  A    between atoms: C3_5  and  C4_7 
REMARK       I    between atoms: N2_11  and  C8_12 
REMARK    3  A    between atoms: C8_12  and  C9_14 
REMARK    4  A    between atoms: C9_14  and  C10_15 
REMARK    5  A    between atoms: C9_14  and  N3_19 
REMARK    6  A    between atoms: C10_15  and  C11_16 
REMARK       I    between atoms: N3_19  and  C12_21 
REMARK       I    between atoms: C12_21  and  N4_23 
ROOT
HETATM    1  C4  UNL     1      10.413  25.634  23.184  1.00  0.00     0.179 C 
HETATM    2  C5  UNL     1      10.894  27.032  23.538  1.00  0.00     0.037 C 
HETATM    3  C6  UNL     1      12.296  27.082  23.030  1.00  0.00     0.022 C 
HETATM    4  C7  UNL     1      12.435  25.920  22.119  1.00  0.00     0.127 C 
HETATM    5  N2  UNL     1      11.127  25.311  21.995  1.00  0.00    -0.337 N 
HETATM    6  C8  UNL     1      10.633  24.537  20.903  1.00  0.00     0.244 C 
HETATM    7  O2  UNL     1      11.415  24.299  19.946  1.00  0.00    -0.271 OA
ENDROOT
BRANCH   6   8
HETATM    8  C9  UNL     1       9.266  23.985  20.803  1.00  0.00     0.188 C 
BRANCH   8   9
HETATM    9  C10 UNL     1       8.469  24.894  19.845  1.00  0.00     0.148 C 
BRANCH   9  10
HETATM   10  C11 UNL     1       7.719  24.031  18.919  1.00  0.00     0.175 C 
HETATM   11  O3  UNL     1       6.568  23.622  19.224  1.00  0.00    -0.648 OA
HETATM   12  O4  UNL     1       8.219  23.622  17.683  1.00  0.00    -0.648 OA
ENDBRANCH   9  10
ENDBRANCH   8   9
BRANCH   8  13
HETATM   13  N3  UNL     1       9.279  22.682  20.131  1.00  0.00    -0.329 N 
HETATM   14  C12 UNL     1       9.471  21.478  20.828  1.00  0.00     0.326 C 
HETATM   15  O5  UNL     1       9.639  21.501  22.072  1.00  0.00    -0.247 OA
HETATM   16  N4  UNL     1       9.483  20.217  20.180  1.00  0.00    -0.275 N 
HETATM   17 BR1  UNL     1       9.737  18.597  21.092  1.00  0.00     0.051 Br
ATOM     18  H4  UNL     1       9.348  20.190  19.169  1.00  0.00     0.178 HD
ATOM     19  H3  UNL     1       9.143  22.649  19.121  1.00  0.00     0.165 HD
ENDBRANCH   8  13
ENDBRANCH   6   8
BRANCH   1  20
HETATM   20  C3  UNL     1      10.769  24.756  24.332  1.00  0.00     0.240 C 
HETATM   21  N1  UNL     1      10.559  25.239  25.649  1.00  0.00    -0.360 N 
ATOM     22  H1  UNL     1      10.171  26.170  25.797  1.00  0.00     0.162 HD
HETATM   23  O1  UNL     1      11.243  23.619  24.094  1.00  0.00    -0.271 OA
BRANCH  21  24
HETATM   24  C2  UNL     1      10.901  24.398  26.790  1.00  0.00     0.118 C 
HETATM   25  C1  UNL     1       9.660  23.756  27.352  1.00  0.00     0.026 C 
ENDBRANCH  21  24
ENDBRANCH   1  20
TORSDOF 6
ENDMDL
MODEL 3
REMARK VINA RESULT: -5.398191907      3.255      5.452
REMARK  6 active torsions:
REMARK  status: ('A' for Active; 'I' for Inactive)
REMARK    1  A    between atoms: C2_2  and  N1_3 
REMARK       I    between atoms: N1_3  and  C3_5 
REMARK    2  A    between atoms: C3_5  and  C4_7 
REMARK       I    between atoms: N2_11  and  C8_12 
REMARK    3  A    between atoms: C8_12  and  C9_14 
REMARK    4  A    between atoms: C9_14  and  C10_15 
REMARK    5  A    between atoms: C9_14  and  N3_19 
REMARK    6  A    between atoms: C10_15  and  C11_16 
REMARK       I    between atoms: N3_19  and  C12_21 
REMARK       I    between atoms: C12_21  and  N4_23 
ROOT
HETATM    1  C4  UNL     1       9.096  23.578  20.902  1.00  0.00     0.179 C 
HETATM    2  C5  UNL     1       8.067  22.507  20.580  1.00  0.00     0.037 C 
HETATM    3  C6  UNL     1       8.850  21.237  20.551  1.00  0.00     0.022 C 
HETATM    4  C7  UNL     1      10.149  21.551  21.195  1.00  0.00     0.127 C 
HETATM    5  N2  UNL     1      10.062  22.904  21.702  1.00  0.00    -0.337 N 
HETATM    6  C8  UNL     1      10.792  23.469  22.791  1.00  0.00     0.244 C 
HETATM    7  O2  UNL     1      11.650  22.748  23.363  1.00  0.00    -0.271 OA
ENDROOT
BRANCH   6   8
HETATM    8  C9  UNL     1      10.623  24.843  23.306  1.00  0.00     0.188 C 
BRANCH   8   9
HETATM    9  C10 UNL     1       9.755  24.757  24.578  1.00  0.00     0.148 C 
BRANCH   9  10
HETATM   10  C11 UNL     1      10.618  25.034  25.736  1.00  0.00     0.175 C 
HETATM   11  O3  UNL     1      11.174  24.089  26.355  1.00  0.00    -0.648 OA
HETATM   12  O4  UNL     1      10.869  26.322  26.210  1.00  0.00    -0.648 OA
ENDBRANCH   9  10
ENDBRANCH   8   9
BRANCH   8  13
HETATM   13  N3  UNL     1      11.901  25.382  23.780  1.00  0.00    -0.329 N 
HETATM   14  C12 UNL     1      12.847  25.949  22.912  1.00  0.00     0.326 C 
HETATM   15  O5  UNL     1      12.606  26.005  21.681  1.00  0.00    -0.247 OA
HETATM   16  N4  UNL     1      14.083  26.471  23.370  1.00  0.00    -0.275 N 
HETATM   17 BR1  UNL     1      15.361  27.235  22.226  1.00  0.00     0.051 Br
ATOM     18  H4  UNL     1      14.287  26.430  24.368  1.00  0.00     0.178 HD
ATOM     19  H3  UNL     1      12.110  25.343  24.778  1.00  0.00     0.165 HD
ENDBRANCH   8  13
ENDBRANCH   6   8
BRANCH   1  20
HETATM   20  C3  UNL     1       9.647  24.048  19.600  1.00  0.00     0.240 C 
HETATM   21  N1  UNL     1      10.915  24.681  19.587  1.00  0.00    -0.360 N 
ATOM     22  H1  UNL     1      11.434  24.807  20.456  1.00  0.00     0.162 HD
HETATM   23  O1  UNL     1       8.967  23.868  18.561  1.00  0.00    -0.271 OA
BRANCH  21  24
HETATM   24  C2  UNL     1      11.476  25.150  18.326  1.00  0.00     0.118 C 
HETATM   25  C1  UNL     1      12.947  24.837  18.262  1.00  0.00     0.026 C 
ENDBRANCH  21  24
ENDBRANCH   1  20
TORSDOF 6
ENDMDL
MODEL 4
REMARK VINA RESULT: -5.348576063      2.858      4.291
REMARK  6 active torsions:
REMARK  status: ('A' for Active; 'I' for Inactive)
REMARK    1  A    between atoms: C2_2  and  N1_3 
REMARK       I    between atoms: N1_3  and  C3_5 
REMARK    2  A    between atoms: C3_5  and  C4_7 
REMARK       I    between atoms: N2_11  and  C8_12 
REMARK    3  A    between atoms: C8_12  and  C9_14 
REMARK    4  A    between atoms: C9_14  and  C10_15 
REMARK    5  A    between atoms: C9_14  and  N3_19 
REMARK    6  A    between atoms: C10_15  and  C11_16 
REMARK       I    between atoms: N3_19  and  C12_21 
REMARK       I    between atoms: C12_21  and  N4_23 
ROOT
HETATM    1  C4  UNL     1      13.221  25.269  22.326  1.00  0.00     0.179 C 
HETATM    2  C5  UNL     1      14.678  25.662  22.506  1.00  0.00     0.037 C 
HETATM    3  C6  UNL     1      14.652  27.151  22.600  1.00  0.00     0.022 C 
HETATM    4  C7  UNL     1      13.234  27.514  22.840  1.00  0.00     0.127 C 
HETATM    5  N2  UNL     1      12.499  26.280  23.022  1.00  0.00    -0.337 N 
HETATM    6  C8  UNL     1      11.287  26.094  23.753  1.00  0.00     0.244 C 
HETATM    7  O2  UNL     1      10.748  27.107  24.269  1.00  0.00    -0.271 OA
ENDROOT
BRANCH   6   8
HETATM    8  C9  UNL     1      10.608  24.798  23.955  1.00  0.00     0.188 C 
BRANCH   8   9
HETATM    9  C10 UNL     1       9.617  24.972  25.125  1.00  0.00     0.148 C 
BRANCH   9  10
HETATM   10  C11 UNL     1       9.987  24.014  26.178  1.00  0.00     0.175 C 
HETATM   11  O3  UNL     1      11.123  24.069  26.716  1.00  0.00    -0.648 OA
HETATM   12  O4  UNL     1       9.128  23.014  26.635  1.00  0.00    -0.648 OA
ENDBRANCH   9  10
ENDBRANCH   8   9
BRANCH   8  13
HETATM   13  N3  UNL     1       9.753  24.475  22.808  1.00  0.00    -0.329 N 
HETATM   14  C12 UNL     1       9.659  23.177  22.281  1.00  0.00     0.326 C 
HETATM   15  O5  UNL     1      10.325  22.247  22.800  1.00  0.00    -0.247 OA
HETATM   16  N4  UNL     1       8.833  22.863  21.173  1.00  0.00    -0.275 N 
HETATM   17 BR1  UNL     1       8.692  21.135  20.455  1.00  0.00     0.051 Br
ATOM     18  H4  UNL     1       8.290  23.613  20.746  1.00  0.00     0.178 HD
ATOM     19  H3  UNL     1       9.207  25.221  22.377  1.00  0.00     0.165 HD
ENDBRANCH   8  13
ENDBRANCH   6   8
BRANCH   1  20
HETATM   20  C3  UNL     1      12.956  25.271  20.860  1.00  0.00     0.240 C 
HETATM   21  N1  UNL     1      14.049  25.116  19.971  1.00  0.00    -0.360 N 
ATOM     22  H1  UNL     1      14.995  25.006  20.337  1.00  0.00     0.162 HD
HETATM   23  O1  UNL     1      11.773  25.410  20.464  1.00  0.00    -0.271 OA
BRANCH  21  24
HETATM   24  C2  UNL     1      13.816  25.115  18.532  1.00  0.00     0.118 C 
HETATM   25  C1  UNL     1      15.114  24.923  17.795  1.00  0.00     0.026 C 
ENDBRANCH  21  24
ENDBRANCH   1  20
TORSDOF 6
ENDMDL
MODEL 5
REMARK VINA RESULT: -5.143802917      3.884      5.834
REMARK  6 active torsions:
REMARK  status: ('A' for Active; 'I' for Inactive)
REMARK    1  A    between atoms: C2_2  and  N1_3 
REMARK       I    between atoms: N1_3  and  C3_5 
REMARK    2  A    between atoms: C3_5  and  C4_7 
REMARK       I    between atoms: N2_11  and  C8_12 
REMARK    3  A    between atoms: C8_12  and  C9_14 
REMARK    4  A    between atoms: C9_14  and  C10_15 
REMARK    5  A    between atoms: C9_14  and  N3_19 
REMARK    6  A    between atoms: C10_15  and  C11_16 
REMARK       I    between atoms: N3_19  and  C12_21 
REMARK       I    between atoms: C12_21  and  N4_23 
ROOT
HETATM    1  C4  UNL     1      10.402  25.858  24.037  1.00  0.00     0.179 C 
HETATM    2  C5  UNL     1       9.688  27.134  24.454  1.00  0.00     0.037 C 
HETATM    3  C6  UNL     1      10.709  27.891  25.236  1.00  0.00     0.022 C 
HETATM    4  C7  UNL     1      12.008  27.243  24.935  1.00  0.00     0.127 C 
HETATM    5  N2  UNL     1      11.766  26.248  23.912  1.00  0.00    -0.337 N 
HETATM    6  C8  UNL     1      12.699  25.744  22.956  1.00  0.00     0.244 C 
HETATM    7  O2  UNL     1      13.886  26.158  23.015  1.00  0.00    -0.271 OA
ENDROOT
BRANCH   6   8
HETATM    8  C9  UNL     1      12.383  24.767  21.894  1.00  0.00     0.188 C 
BRANCH   8   9
HETATM    9  C10 UNL     1      13.597  24.706  20.945  1.00  0.00     0.148 C 
BRANCH   9  10
HETATM   10  C11 UNL     1      13.162  25.170  19.619  1.00  0.00     0.175 C 
HETATM   11  O3  UNL     1      13.442  26.334  19.230  1.00  0.00    -0.648 OA
HETATM   12  O4  UNL     1      12.431  24.376  18.735  1.00  0.00    -0.648 OA
ENDBRANCH   9  10
ENDBRANCH   8   9
BRANCH   8  13
HETATM   13  N3  UNL     1      12.291  23.412  22.444  1.00  0.00    -0.329 N 
HETATM   14  C12 UNL     1      11.358  22.472  21.979  1.00  0.00     0.326 C 
HETATM   15  O5  UNL     1      10.565  22.788  21.057  1.00  0.00    -0.247 OA
HETATM   16  N4  UNL     1      11.268  21.161  22.510  1.00  0.00    -0.275 N 
HETATM   17 BR1  UNL     1      10.029  19.889  21.900  1.00  0.00     0.051 Br
ATOM     18  H4  UNL     1      11.907  20.896  23.259  1.00  0.00     0.178 HD
ATOM     19  H3  UNL     1      12.928  23.142  23.194  1.00  0.00     0.165 HD
ENDBRANCH   8  13
ENDBRANCH   6   8
BRANCH   1  20
HETATM   20  C3  UNL     1      10.178  24.867  25.125  1.00  0.00     0.240 C 
HETATM   21  N1  UNL     1       9.054  25.030  25.973  1.00  0.00    -0.360 N 
ATOM     22  H1  UNL     1       8.416  25.813  25.832  1.00  0.00     0.162 HD
HETATM   23  O1  UNL     1      10.994  23.922  25.254  1.00  0.00    -0.271 OA
BRANCH  21  24
HETATM   24  C2  UNL     1       8.813  24.074  27.047  1.00  0.00     0.118 C 
HETATM   25  C1  UNL     1       7.656  24.527  27.897  1.00  0.00     0.026 C 
ENDBRANCH  21  24
ENDBRANCH   1  20
TORSDOF 6
ENDMDL
