MODEL 1
REMARK VINA RESULT: -9.727033416      0.000      0.000
REMARK  10 active torsions:
REMARK  status: ('A' for Active; 'I' for Inactive)
REMARK       I    between atoms: N2_3  and  C2_5 
REMARK    1  A    between atoms: C2_5  and  C3_7 
REMARK    2  A    between atoms: C3_7  and  C13_32 
REMARK    3  A    between atoms: N3_8  and  N4_10 
REMARK    4  A    between atoms: N4_10  and  C4_12 
REMARK    5  A    between atoms: C4_12  and  N5_14 
REMARK    6  A    between atoms: N5_14  and  N6_16 
REMARK    7  A    between atoms: C5_18  and  C6_19 
REMARK    8  A    between atoms: C9_22  and  C10_23 
REMARK    9  A    between atoms: N13_37  and  N14_38 
REMARK   10  A    between atoms: C14_41  and  N15_42 
ROOT
HETATM    1  N1  UNL     1      41.499  35.510  18.085  1.00  0.00    -0.172 NA
HETATM    2  C1  UNL     1      41.510  34.387  18.363  1.00  0.00     0.184 C 
HETATM    3  N2  UNL     1      41.515  33.003  18.688  1.00  0.00    -0.258 N 
ATOM      4  H2  UNL     1      41.805  32.713  19.622  1.00  0.00     0.181 HD
HETATM    5  C2  UNL     1      41.132  32.029  17.761  1.00  0.00     0.284 C 
HETATM    6  O1  UNL     1      40.767  32.417  16.583  1.00  0.00    -0.265 OA
ENDROOT
BRANCH   5   7
HETATM    7  C3  UNL     1      41.120  30.609  18.042  1.00  0.00     0.149 C 
HETATM    8  N3  UNL     1      39.977  29.948  18.006  1.00  0.00    -0.291 N 
ATOM      9  H3  UNL     1      39.992  28.948  18.208  1.00  0.00     0.187 HD
BRANCH   8  10
HETATM   10  N4  UNL     1      38.769  30.529  17.710  1.00  0.00    -0.274 N 
ATOM     11  H4  UNL     1      38.541  31.448  18.092  1.00  0.00     0.189 HD
BRANCH  10  12
HETATM   12  C4  UNL     1      37.835  29.860  16.879  1.00  0.00     0.205 C 
HETATM   13  S1  UNL     1      37.837  30.033  15.256  1.00  0.00    -0.038 SA
BRANCH  12  14
HETATM   14  N5  UNL     1      36.874  29.016  17.474  1.00  0.00    -0.275 N 
ATOM     15  H5  UNL     1      35.989  29.406  17.796  1.00  0.00     0.189 HD
BRANCH  14  16
HETATM   16  N6  UNL     1      37.122  27.673  17.624  1.00  0.00    -0.309 N 
HETATM   17  C5  UNL     1      36.482  26.752  17.001  1.00  0.00     0.118 C 
ATOM     18  H6  UNL     1      37.859  27.391  18.270  1.00  0.00     0.186 HD
BRANCH  17  19
HETATM   19  C6  UNL     1      36.826  25.373  17.237  1.00  0.00    -0.019 A 
HETATM   20  C7  UNL     1      35.848  24.492  17.656  1.00  0.00     0.014 A 
HETATM   21  C8  UNL     1      36.146  23.168  17.890  1.00  0.00     0.016 A 
HETATM   22  C9  UNL     1      37.418  22.654  17.721  1.00  0.00     0.010 A 
HETATM   23  C11 UNL     1      38.379  23.548  17.303  1.00  0.00     0.016 A 
HETATM   24  C12 UNL     1      38.105  24.877  17.062  1.00  0.00     0.014 A 
BRANCH  22  25
HETATM   25  C10 UNL     1      37.732  21.255  17.969  1.00  0.00     0.141 A 
HETATM   26  N7  UNL     1      38.783  20.615  17.430  1.00  0.00    -0.270 N 
HETATM   27  N8  UNL     1      38.805  19.351  17.841  1.00  0.00    -0.007 NA
ATOM     28  H7  UNL     1      39.463  21.037  16.799  1.00  0.00     0.185 HD
HETATM   29  N9  UNL     1      37.752  19.197  18.649  1.00  0.00    -0.007 NA
HETATM   30  N10 UNL     1      37.094  20.360  18.728  1.00  0.00    -0.270 N 
ATOM     31  H10 UNL     1      36.250  20.533  19.275  1.00  0.00     0.185 HD
ENDBRANCH  22  25
ENDBRANCH  17  19
ENDBRANCH  14  16
ENDBRANCH  12  14
ENDBRANCH  10  12
ENDBRANCH   8  10
BRANCH   7  32
HETATM   32  C13 UNL     1      42.269  29.792  18.375  1.00  0.00     0.130 A 
HETATM   33  N11 UNL     1      43.385  30.081  19.044  1.00  0.00    -0.279 N 
HETATM   34  N12 UNL     1      44.185  29.034  19.124  1.00  0.00    -0.219 N 
ATOM     35  H11 UNL     1      43.595  30.996  19.444  1.00  0.00     0.189 HD
HETATM   36  N13 UNL     1      43.617  28.017  18.506  1.00  0.00    -0.170 N 
ATOM     37  H12 UNL     1      45.093  29.014  19.588  1.00  0.00     0.210 HD
HETATM   38  C14 UNL     1      42.437  28.441  18.030  1.00  0.00     0.171 A 
BRANCH  36  39
HETATM   39  N14 UNL     1      44.140  26.720  18.361  1.00  0.00    -0.321 N 
ATOM     40 2H14 UNL     1      44.924  26.334  18.887  1.00  0.00     0.179 HD
ATOM     41 1H14 UNL     1      43.813  25.997  17.721  1.00  0.00     0.179 HD
ENDBRANCH  36  39
BRANCH  38  42
HETATM   42  N15 UNL     1      41.605  27.712  17.368  1.00  0.00    -0.381 N 
ATOM     43 2H15 UNL     1      40.601  27.667  17.544  1.00  0.00     0.157 HD
ATOM     44 1H15 UNL     1      41.830  27.093  16.589  1.00  0.00     0.157 HD
ENDBRANCH  38  42
ENDBRANCH   7  32
ENDBRANCH   5   7
TORSDOF 10
ENDMDL
MODEL 2
REMARK VINA RESULT: -9.483693561      3.875      9.153
REMARK  10 active torsions:
REMARK  status: ('A' for Active; 'I' for Inactive)
REMARK       I    between atoms: N2_3  and  C2_5 
REMARK    1  A    between atoms: C2_5  and  C3_7 
REMARK    2  A    between atoms: C3_7  and  C13_32 
REMARK    3  A    between atoms: N3_8  and  N4_10 
REMARK    4  A    between atoms: N4_10  and  C4_12 
REMARK    5  A    between atoms: C4_12  and  N5_14 
REMARK    6  A    between atoms: N5_14  and  N6_16 
REMARK    7  A    between atoms: C5_18  and  C6_19 
REMARK    8  A    between atoms: C9_22  and  C10_23 
REMARK    9  A    between atoms: N13_37  and  N14_38 
REMARK   10  A    between atoms: C14_41  and  N15_42 
ROOT
HETATM    1  N1  UNL     1      36.709  24.469  18.161  1.00  0.00    -0.172 NA
HETATM    2  C1  UNL     1      35.969  24.978  17.431  1.00  0.00     0.184 C 
HETATM    3  N2  UNL     1      35.059  25.618  16.547  1.00  0.00    -0.258 N 
ATOM      4  H2  UNL     1      34.739  25.119  15.717  1.00  0.00     0.181 HD
HETATM    5  C2  UNL     1      34.590  26.914  16.785  1.00  0.00     0.284 C 
HETATM    6  O1  UNL     1      35.009  27.529  17.842  1.00  0.00    -0.265 OA
ENDROOT
BRANCH   5   7
HETATM    7  C3  UNL     1      33.664  27.608  15.916  1.00  0.00     0.149 C 
HETATM    8  N3  UNL     1      33.998  28.784  15.415  1.00  0.00    -0.291 N 
ATOM      9  H3  UNL     1      33.329  29.255  14.806  1.00  0.00     0.187 HD
BRANCH   8  10
HETATM   10  N4  UNL     1      35.194  29.408  15.668  1.00  0.00    -0.274 N 
ATOM     11  H4  UNL     1      35.656  29.273  16.568  1.00  0.00     0.189 HD
BRANCH  10  12
HETATM   12  C4  UNL     1      35.790  30.240  14.686  1.00  0.00     0.205 C 
HETATM   13  S1  UNL     1      35.292  30.245  13.133  1.00  0.00    -0.038 SA
BRANCH  12  14
HETATM   14  N5  UNL     1      36.849  31.091  15.066  1.00  0.00    -0.275 N 
ATOM     15  H5  UNL     1      36.761  32.099  14.934  1.00  0.00     0.189 HD
BRANCH  14  16
HETATM   16  N6  UNL     1      37.999  30.574  15.614  1.00  0.00    -0.309 N 
HETATM   17  C5  UNL     1      38.468  30.921  16.755  1.00  0.00     0.118 C 
ATOM     18  H6  UNL     1      38.509  29.871  15.079  1.00  0.00     0.186 HD
BRANCH  17  19
HETATM   19  C6  UNL     1      39.684  30.313  17.231  1.00  0.00    -0.019 A 
HETATM   20  C7  UNL     1      39.878  28.957  17.052  1.00  0.00     0.014 A 
HETATM   21  C8  UNL     1      41.031  28.346  17.496  1.00  0.00     0.016 A 
HETATM   22  C9  UNL     1      42.040  29.043  18.133  1.00  0.00     0.010 A 
HETATM   23  C11 UNL     1      41.828  30.394  18.300  1.00  0.00     0.016 A 
HETATM   24  C12 UNL     1      40.684  31.027  17.866  1.00  0.00     0.014 A 
BRANCH  22  25
HETATM   25  C10 UNL     1      43.257  28.397  18.601  1.00  0.00     0.141 A 
HETATM   26  N7  UNL     1      43.409  27.067  18.704  1.00  0.00    -0.270 N 
HETATM   27  N8  UNL     1      44.625  26.782  19.159  1.00  0.00    -0.007 NA
ATOM     28  H7  UNL     1      42.696  26.377  18.469  1.00  0.00     0.185 HD
HETATM   29  N9  UNL     1      45.244  27.951  19.343  1.00  0.00    -0.007 NA
HETATM   30  N10 UNL     1      44.410  28.942  19.002  1.00  0.00    -0.270 N 
ATOM     31  H10 UNL     1      44.618  29.939  19.043  1.00  0.00     0.185 HD
ENDBRANCH  22  25
ENDBRANCH  17  19
ENDBRANCH  14  16
ENDBRANCH  12  14
ENDBRANCH  10  12
ENDBRANCH   8  10
BRANCH   7  32
HETATM   32  C13 UNL     1      32.352  27.141  15.513  1.00  0.00     0.130 A 
HETATM   33  N11 UNL     1      31.145  27.372  16.027  1.00  0.00    -0.279 N 
HETATM   34  N12 UNL     1      30.203  26.746  15.347  1.00  0.00    -0.219 N 
ATOM     35  H11 UNL     1      30.970  27.959  16.843  1.00  0.00     0.189 HD
HETATM   36  N13 UNL     1      30.765  26.078  14.359  1.00  0.00    -0.170 N 
ATOM     37  H12 UNL     1      29.204  26.774  15.552  1.00  0.00     0.210 HD
HETATM   38  C14 UNL     1      32.087  26.294  14.425  1.00  0.00     0.171 A 
BRANCH  36  39
HETATM   39  N14 UNL     1      30.112  25.280  13.402  1.00  0.00    -0.321 N 
ATOM     40 2H14 UNL     1      29.109  25.274  13.219  1.00  0.00     0.179 HD
ATOM     41 1H14 UNL     1      30.545  24.609  12.768  1.00  0.00     0.179 HD
ENDBRANCH  36  39
BRANCH  38  42
HETATM   42  N15 UNL     1      32.956  25.798  13.613  1.00  0.00    -0.381 N 
ATOM     43 2H15 UNL     1      33.248  26.228  12.736  1.00  0.00     0.157 HD
ATOM     44 1H15 UNL     1      33.465  24.922  13.733  1.00  0.00     0.157 HD
ENDBRANCH  38  42
ENDBRANCH   7  32
ENDBRANCH   5   7
TORSDOF 10
ENDMDL
MODEL 3
REMARK VINA RESULT: -9.421059111      1.021      1.773
REMARK  10 active torsions:
REMARK  status: ('A' for Active; 'I' for Inactive)
REMARK       I    between atoms: N2_3  and  C2_5 
REMARK    1  A    between atoms: C2_5  and  C3_7 
REMARK    2  A    between atoms: C3_7  and  C13_32 
REMARK    3  A    between atoms: N3_8  and  N4_10 
REMARK    4  A    between atoms: N4_10  and  C4_12 
REMARK    5  A    between atoms: C4_12  and  N5_14 
REMARK    6  A    between atoms: N5_14  and  N6_16 
REMARK    7  A    between atoms: C5_18  and  C6_19 
REMARK    8  A    between atoms: C9_22  and  C10_23 
REMARK    9  A    between atoms: N13_37  and  N14_38 
REMARK   10  A    between atoms: C14_41  and  N15_42 
ROOT
HETATM    1  N1  UNL     1      41.159  34.593  18.053  1.00  0.00    -0.172 NA
HETATM    2  C1  UNL     1      41.161  33.492  17.698  1.00  0.00     0.184 C 
HETATM    3  N2  UNL     1      41.157  32.134  17.281  1.00  0.00    -0.258 N 
ATOM      4  H2  UNL     1      41.532  31.895  16.362  1.00  0.00     0.181 HD
HETATM    5  C2  UNL     1      40.655  31.114  18.095  1.00  0.00     0.284 C 
HETATM    6  O1  UNL     1      40.185  31.437  19.256  1.00  0.00    -0.265 OA
ENDROOT
BRANCH   5   7
HETATM    7  C3  UNL     1      40.629  29.718  17.716  1.00  0.00     0.149 C 
HETATM    8  N3  UNL     1      39.542  29.215  17.157  1.00  0.00    -0.291 N 
ATOM      9  H3  UNL     1      39.546  28.228  16.899  1.00  0.00     0.187 HD
BRANCH   8  10
HETATM   10  N4  UNL     1      38.408  29.945  16.905  1.00  0.00    -0.274 N 
ATOM     11  H4  UNL     1      38.086  30.634  17.586  1.00  0.00     0.189 HD
BRANCH  10  12
HETATM   12  C4  UNL     1      37.680  29.747  15.704  1.00  0.00     0.205 C 
HETATM   13  S1  UNL     1      38.005  30.587  14.343  1.00  0.00    -0.038 SA
BRANCH  12  14
HETATM   14  N5  UNL     1      36.642  28.792  15.685  1.00  0.00    -0.275 N 
ATOM     15  H5  UNL     1      35.695  29.079  15.439  1.00  0.00     0.189 HD
BRANCH  14  16
HETATM   16  N6  UNL     1      36.897  27.478  15.996  1.00  0.00    -0.309 N 
HETATM   17  C5  UNL     1      36.305  26.836  16.935  1.00  0.00     0.118 C 
ATOM     18  H6  UNL     1      37.600  26.983  15.446  1.00  0.00     0.186 HD
BRANCH  17  19
HETATM   19  C6  UNL     1      36.653  25.458  17.174  1.00  0.00    -0.019 A 
HETATM   20  C7  UNL     1      37.965  25.055  17.021  1.00  0.00     0.014 A 
HETATM   21  C8  UNL     1      38.329  23.744  17.242  1.00  0.00     0.016 A 
HETATM   22  C9  UNL     1      37.418  22.778  17.623  1.00  0.00     0.010 A 
HETATM   23  C11 UNL     1      36.116  23.200  17.771  1.00  0.00     0.016 A 
HETATM   24  C12 UNL     1      35.727  24.504  17.555  1.00  0.00     0.014 A 
BRANCH  22  25
HETATM   25  C10 UNL     1      37.804  21.394  17.857  1.00  0.00     0.141 A 
HETATM   26  N7  UNL     1      37.181  20.578  18.722  1.00  0.00    -0.270 N 
HETATM   27  N8  UNL     1      37.760  19.380  18.715  1.00  0.00    -0.007 NA
ATOM     28  H7  UNL     1      36.382  20.838  19.300  1.00  0.00     0.185 HD
HETATM   29  N9  UNL     1      38.759  19.449  17.832  1.00  0.00    -0.007 NA
HETATM   30  N10 UNL     1      38.789  20.679  17.305  1.00  0.00    -0.270 N 
ATOM     31  H10 UNL     1      39.450  21.014  16.604  1.00  0.00     0.185 HD
ENDBRANCH  22  25
ENDBRANCH  17  19
ENDBRANCH  14  16
ENDBRANCH  12  14
ENDBRANCH  10  12
ENDBRANCH   8  10
BRANCH   7  32
HETATM   32  C13 UNL     1      41.706  28.763  17.885  1.00  0.00     0.130 A 
HETATM   33  N11 UNL     1      41.809  27.485  17.522  1.00  0.00    -0.279 N 
HETATM   34  N12 UNL     1      42.975  26.976  17.872  1.00  0.00    -0.219 N 
ATOM     35  H11 UNL     1      41.079  26.966  17.034  1.00  0.00     0.189 HD
HETATM   36  N13 UNL     1      43.681  27.909  18.481  1.00  0.00    -0.170 N 
ATOM     37  H12 UNL     1      43.281  26.019  17.699  1.00  0.00     0.210 HD
HETATM   38  C14 UNL     1      42.936  29.024  18.511  1.00  0.00     0.171 A 
BRANCH  36  39
HETATM   39  N14 UNL     1      44.976  27.775  19.010  1.00  0.00    -0.321 N 
ATOM     40 2H14 UNL     1      45.236  27.190  19.804  1.00  0.00     0.179 HD
ATOM     41 1H14 UNL     1      45.823  28.235  18.677  1.00  0.00     0.179 HD
ENDBRANCH  36  39
BRANCH  38  42
HETATM   42  N15 UNL     1      43.306  30.144  19.032  1.00  0.00    -0.381 N 
ATOM     43 2H15 UNL     1      43.928  30.236  19.835  1.00  0.00     0.157 HD
ATOM     44 1H15 UNL     1      43.035  31.076  18.718  1.00  0.00     0.157 HD
ENDBRANCH  38  42
ENDBRANCH   7  32
ENDBRANCH   5   7
TORSDOF 10
ENDMDL
MODEL 4
REMARK VINA RESULT: -9.337385967      1.085      3.748
REMARK  10 active torsions:
REMARK  status: ('A' for Active; 'I' for Inactive)
REMARK       I    between atoms: N2_3  and  C2_5 
REMARK    1  A    between atoms: C2_5  and  C3_7 
REMARK    2  A    between atoms: C3_7  and  C13_32 
REMARK    3  A    between atoms: N3_8  and  N4_10 
REMARK    4  A    between atoms: N4_10  and  C4_12 
REMARK    5  A    between atoms: C4_12  and  N5_14 
REMARK    6  A    between atoms: N5_14  and  N6_16 
REMARK    7  A    between atoms: C5_18  and  C6_19 
REMARK    8  A    between atoms: C9_22  and  C10_23 
REMARK    9  A    between atoms: N13_37  and  N14_38 
REMARK   10  A    between atoms: C14_41  and  N15_42 
ROOT
HETATM    1  N1  UNL     1      44.364  28.169  19.063  1.00  0.00    -0.172 NA
HETATM    2  C1  UNL     1      43.707  29.121  19.079  1.00  0.00     0.184 C 
HETATM    3  N2  UNL     1      42.889  30.283  19.084  1.00  0.00    -0.258 N 
ATOM      4  H2  UNL     1      43.154  31.075  19.669  1.00  0.00     0.181 HD
HETATM    5  C2  UNL     1      41.728  30.369  18.308  1.00  0.00     0.284 C 
HETATM    6  O1  UNL     1      41.409  29.354  17.574  1.00  0.00    -0.265 OA
ENDROOT
BRANCH   5   7
HETATM    7  C3  UNL     1      40.863  31.528  18.279  1.00  0.00     0.149 C 
HETATM    8  N3  UNL     1      39.561  31.365  18.118  1.00  0.00    -0.291 N 
ATOM      9  H3  UNL     1      38.971  32.197  18.100  1.00  0.00     0.187 HD
BRANCH   8  10
HETATM   10  N4  UNL     1      38.959  30.140  17.974  1.00  0.00    -0.274 N 
ATOM     11  H4  UNL     1      39.301  29.341  18.507  1.00  0.00     0.189 HD
BRANCH  10  12
HETATM   12  C4  UNL     1      37.863  29.980  17.088  1.00  0.00     0.205 C 
HETATM   13  S1  UNL     1      37.775  30.771  15.663  1.00  0.00    -0.038 SA
BRANCH  12  14
HETATM   14  N5  UNL     1      36.815  29.109  17.450  1.00  0.00    -0.275 N 
ATOM     15  H5  UNL     1      35.878  29.480  17.604  1.00  0.00     0.189 HD
BRANCH  14  16
HETATM   16  N6  UNL     1      37.048  27.762  17.598  1.00  0.00    -0.309 N 
HETATM   17  C5  UNL     1      36.407  26.850  16.963  1.00  0.00     0.118 C 
ATOM     18  H6  UNL     1      37.774  27.470  18.253  1.00  0.00     0.186 HD
BRANCH  17  19
HETATM   19  C6  UNL     1      36.734  25.467  17.198  1.00  0.00    -0.019 A 
HETATM   20  C7  UNL     1      38.053  25.061  17.132  1.00  0.00     0.014 A 
HETATM   21  C8  UNL     1      38.397  23.745  17.352  1.00  0.00     0.016 A 
HETATM   22  C9  UNL     1      37.459  22.775  17.647  1.00  0.00     0.010 A 
HETATM   23  C11 UNL     1      36.151  23.199  17.709  1.00  0.00     0.016 A 
HETATM   24  C12 UNL     1      35.781  24.509  17.493  1.00  0.00     0.014 A 
BRANCH  22  25
HETATM   25  C10 UNL     1      37.823  21.385  17.879  1.00  0.00     0.141 A 
HETATM   26  N7  UNL     1      37.156  20.562  18.705  1.00  0.00    -0.270 N 
HETATM   27  N8  UNL     1      37.726  19.361  18.708  1.00  0.00    -0.007 NA
ATOM     28  H7  UNL     1      36.334  20.821  19.250  1.00  0.00     0.185 HD
HETATM   29  N9  UNL     1      38.765  19.433  17.872  1.00  0.00    -0.007 NA
HETATM   30  N10 UNL     1      38.827  20.670  17.364  1.00  0.00    -0.270 N 
ATOM     31  H10 UNL     1      39.522  21.008  16.698  1.00  0.00     0.185 HD
ENDBRANCH  22  25
ENDBRANCH  17  19
ENDBRANCH  14  16
ENDBRANCH  12  14
ENDBRANCH  10  12
ENDBRANCH   8  10
BRANCH   7  32
HETATM   32  C13 UNL     1      41.276  32.911  18.412  1.00  0.00     0.130 A 
HETATM   33  N11 UNL     1      41.457  33.671  19.492  1.00  0.00    -0.279 N 
HETATM   34  N12 UNL     1      41.844  34.890  19.165  1.00  0.00    -0.219 N 
ATOM     35  H11 UNL     1      41.315  33.351  20.450  1.00  0.00     0.189 HD
HETATM   36  N13 UNL     1      41.929  34.971  17.852  1.00  0.00    -0.170 N 
ATOM     37  H12 UNL     1      42.044  35.645  19.821  1.00  0.00     0.210 HD
HETATM   38  C14 UNL     1      41.588  33.775  17.350  1.00  0.00     0.171 A 
BRANCH  36  39
HETATM   39  N14 UNL     1      42.306  36.098  17.100  1.00  0.00    -0.321 N 
ATOM     40 2H14 UNL     1      42.557  37.009  17.482  1.00  0.00     0.179 HD
ATOM     41 1H14 UNL     1      42.380  36.158  16.085  1.00  0.00     0.179 HD
ENDBRANCH  36  39
BRANCH  38  42
HETATM   42  N15 UNL     1      41.558  33.484  16.094  1.00  0.00    -0.381 N 
ATOM     43 2H15 UNL     1      40.805  33.737  15.455  1.00  0.00     0.157 HD
ATOM     44 1H15 UNL     1      42.271  32.971  15.575  1.00  0.00     0.157 HD
ENDBRANCH  38  42
ENDBRANCH   7  32
ENDBRANCH   5   7
TORSDOF 10
ENDMDL
MODEL 5
REMARK VINA RESULT: -9.313220584      3.578      8.712
REMARK  10 active torsions:
REMARK  status: ('A' for Active; 'I' for Inactive)
REMARK       I    between atoms: N2_3  and  C2_5 
REMARK    1  A    between atoms: C2_5  and  C3_7 
REMARK    2  A    between atoms: C3_7  and  C13_32 
REMARK    3  A    between atoms: N3_8  and  N4_10 
REMARK    4  A    between atoms: N4_10  and  C4_12 
REMARK    5  A    between atoms: C4_12  and  N5_14 
REMARK    6  A    between atoms: N5_14  and  N6_16 
REMARK    7  A    between atoms: C5_18  and  C6_19 
REMARK    8  A    between atoms: C9_22  and  C10_23 
REMARK    9  A    between atoms: N13_37  and  N14_38 
REMARK   10  A    between atoms: C14_41  and  N15_42 
ROOT
HETATM    1  N1  UNL     1      37.822  26.142  18.331  1.00  0.00    -0.172 NA
HETATM    2  C1  UNL     1      37.043  26.279  17.487  1.00  0.00     0.184 C 
HETATM    3  N2  UNL     1      36.084  26.465  16.454  1.00  0.00    -0.258 N 
ATOM      4  H2  UNL     1      35.738  25.652  15.945  1.00  0.00     0.181 HD
HETATM    5  C2  UNL     1      35.603  27.734  16.118  1.00  0.00     0.284 C 
HETATM    6  O1  UNL     1      36.055  28.752  16.775  1.00  0.00    -0.265 OA
ENDROOT
BRANCH   5   7
HETATM    7  C3  UNL     1      34.628  27.976  15.076  1.00  0.00     0.149 C 
HETATM    8  N3  UNL     1      34.956  28.728  14.040  1.00  0.00    -0.291 N 
ATOM      9  H3  UNL     1      34.253  28.886  13.318  1.00  0.00     0.187 HD
BRANCH   8  10
HETATM   10  N4  UNL     1      36.189  29.309  13.880  1.00  0.00    -0.274 N 
ATOM     11  H4  UNL     1      37.007  28.724  13.706  1.00  0.00     0.189 HD
BRANCH  10  12
HETATM   12  C4  UNL     1      36.333  30.718  13.955  1.00  0.00     0.205 C 
HETATM   13  S1  UNL     1      35.842  31.707  12.753  1.00  0.00    -0.038 SA
BRANCH  12  14
HETATM   14  N5  UNL     1      36.918  31.283  15.107  1.00  0.00    -0.275 N 
ATOM     15  H5  UNL     1      36.496  32.105  15.538  1.00  0.00     0.189 HD
BRANCH  14  16
HETATM   16  N6  UNL     1      38.054  30.735  15.653  1.00  0.00    -0.309 N 
HETATM   17  C5  UNL     1      38.552  31.092  16.780  1.00  0.00     0.118 C 
ATOM     18  H6  UNL     1      38.530  29.999  15.130  1.00  0.00     0.186 HD
BRANCH  17  19
HETATM   19  C6  UNL     1      39.750  30.448  17.255  1.00  0.00    -0.019 A 
HETATM   20  C7  UNL     1      39.913  29.090  17.060  1.00  0.00     0.014 A 
HETATM   21  C8  UNL     1      41.047  28.446  17.504  1.00  0.00     0.016 A 
HETATM   22  C9  UNL     1      42.068  29.111  18.156  1.00  0.00     0.010 A 
HETATM   23  C11 UNL     1      41.887  30.463  18.340  1.00  0.00     0.016 A 
HETATM   24  C12 UNL     1      40.762  31.130  17.906  1.00  0.00     0.014 A 
BRANCH  22  25
HETATM   25  C10 UNL     1      43.266  28.430  18.624  1.00  0.00     0.141 A 
HETATM   26  N7  UNL     1      43.366  27.098  18.764  1.00  0.00    -0.270 N 
HETATM   27  N8  UNL     1      44.578  26.777  19.208  1.00  0.00    -0.007 NA
ATOM     28  H7  UNL     1      42.622  26.431  18.560  1.00  0.00     0.185 HD
HETATM   29  N9  UNL     1      45.246  27.925  19.348  1.00  0.00    -0.007 NA
HETATM   30  N10 UNL     1      44.446  28.938  18.991  1.00  0.00    -0.270 N 
ATOM     31  H10 UNL     1      44.695  29.927  19.000  1.00  0.00     0.185 HD
ENDBRANCH  22  25
ENDBRANCH  17  19
ENDBRANCH  14  16
ENDBRANCH  12  14
ENDBRANCH  10  12
ENDBRANCH   8  10
BRANCH   7  32
HETATM   32  C13 UNL     1      33.272  27.466  15.035  1.00  0.00     0.130 A 
HETATM   33  N11 UNL     1      32.709  26.537  14.263  1.00  0.00    -0.279 N 
HETATM   34  N12 UNL     1      31.433  26.373  14.558  1.00  0.00    -0.219 N 
ATOM     35  H11 UNL     1      33.202  26.018  13.536  1.00  0.00     0.189 HD
HETATM   36  N13 UNL     1      31.114  27.195  15.539  1.00  0.00    -0.170 N 
ATOM     37  H12 UNL     1      30.798  25.718  14.103  1.00  0.00     0.210 HD
HETATM   38  C14 UNL     1      32.218  27.887  15.862  1.00  0.00     0.171 A 
BRANCH  36  39
HETATM   39  N14 UNL     1      29.854  27.335  16.146  1.00  0.00    -0.321 N 
ATOM     40 2H14 UNL     1      28.972  27.482  15.655  1.00  0.00     0.179 HD
ATOM     41 1H14 UNL     1      29.650  27.307  17.144  1.00  0.00     0.179 HD
ENDBRANCH  36  39
BRANCH  38  42
HETATM   42  N15 UNL     1      32.281  28.785  16.784  1.00  0.00    -0.381 N 
ATOM     43 2H15 UNL     1      32.578  29.750  16.639  1.00  0.00     0.157 HD
ATOM     44 1H15 UNL     1      32.045  28.659  17.768  1.00  0.00     0.157 HD
ENDBRANCH  38  42
ENDBRANCH   7  32
ENDBRANCH   5   7
TORSDOF 10
ENDMDL
