MODEL 1
REMARK VINA RESULT: -10.333413908      0.000      0.000
REMARK  8 active torsions:
REMARK  status: ('A' for Active; 'I' for Inactive)
REMARK    1  A    between atoms: N1_2  and  S1_4 
REMARK    2  A    between atoms: S1_4  and  N2_7 
REMARK       I    between atoms: N2_7  and  C2_9 
REMARK       I    between atoms: C2_9  and  N3_11 
REMARK    3  A    between atoms: N3_11  and  C3_12 
REMARK    4  A    between atoms: C3_12  and  C4_13 
REMARK    5  A    between atoms: C5_14  and  O4_15 
REMARK    6  A    between atoms: N4_17  and  C6_18 
REMARK    7  A    between atoms: C9_21  and  O5_22 
REMARK    8  A    between atoms: N5_28  and  C13_29 
ROOT
HETATM    1  C4  UNL     1      38.956  25.318  17.004  1.00  0.00     0.126 A 
HETATM    2  C5  UNL     1      39.697  26.419  17.514  1.00  0.00     0.181 A 
HETATM    3  N4  UNL     1      40.889  26.000  17.897  1.00  0.00    -0.241 N 
HETATM    4  C12 UNL     1      40.930  24.725  17.689  1.00  0.00     0.342 A 
HETATM    5  O6  UNL     1      41.862  23.889  17.879  1.00  0.00    -0.245 OA
HETATM    6  N5  UNL     1      39.739  24.286  17.144  1.00  0.00    -0.237 N 
ENDROOT
BRANCH   1   7
HETATM    7  C3  UNL     1      37.638  25.606  16.485  1.00  0.00     0.222 C 
BRANCH   7   8
HETATM    8  N3  UNL     1      36.355  25.660  16.565  1.00  0.00    -0.362 NA
HETATM    9  C2  UNL     1      34.980  25.716  16.652  1.00  0.00     0.408 C 
HETATM   10  N2  UNL     1      34.394  26.309  15.470  1.00  0.00    -0.207 N 
HETATM   11  O3  UNL     1      34.331  25.312  17.558  1.00  0.00    -0.229 OA
ATOM     12  H2  UNL     1      35.154  26.673  14.895  1.00  0.00     0.186 HD
BRANCH  10  13
HETATM   13  S1  UNL     1      32.955  26.629  14.682  1.00  0.00     0.323 S 
HETATM   14  O1  UNL     1      32.537  25.461  13.787  1.00  0.00    -0.182 OA
HETATM   15  O2  UNL     1      32.830  27.933  13.894  1.00  0.00    -0.182 OA
BRANCH  13  16
HETATM   16  N1  UNL     1      31.730  26.650  15.979  1.00  0.00    -0.307 N 
HETATM   17  C1  UNL     1      30.538  27.206  15.383  1.00  0.00     0.161 C 
ATOM     18  H1  UNL     1      31.848  26.335  16.942  1.00  0.00     0.173 HD
ENDBRANCH  13  16
ENDBRANCH  10  13
ENDBRANCH   7   8
ENDBRANCH   1   7
BRANCH   2  19
HETATM   19  O4  UNL     1      39.274  27.778  17.641  1.00  0.00    -0.344 OA
ATOM     20  H4  UNL     1      39.792  28.528  17.910  1.00  0.00     0.219 HD
ENDBRANCH   2  19
BRANCH   6  21
HETATM   21  C13 UNL     1      39.436  22.961  16.851  1.00  0.00     0.184 A 
HETATM   22  N6  UNL     1      39.900  22.080  16.059  1.00  0.00    -0.221 N 
HETATM   23  O7  UNL     1      39.394  20.871  16.227  1.00  0.00    -0.153 OA
ATOM     24  H6  UNL     1      40.604  22.290  15.352  1.00  0.00     0.198 HD
HETATM   25  N7  UNL     1      38.551  20.919  17.204  1.00  0.00    -0.222 N 
HETATM   26  C14 UNL     1      38.517  22.208  17.675  1.00  0.00     0.168 A 
ATOM     27  H7  UNL     1      38.005  20.135  17.563  1.00  0.00     0.198 HD
HETATM   28  N8  UNL     1      37.773  22.652  18.599  1.00  0.00    -0.381 N 
ATOM     29  H82 UNL     1      37.748  23.610  18.949  1.00  0.00     0.157 HD
ATOM     30  H81 UNL     1      37.125  22.121  19.180  1.00  0.00     0.157 HD
ENDBRANCH   6  21
BRANCH   3  31
HETATM   31  C6  UNL     1      41.983  26.840  18.237  1.00  0.00     0.046 A 
HETATM   32  C7  UNL     1      42.182  28.139  18.056  1.00  0.00     0.033 A 
HETATM   33  C8  UNL     1      43.349  28.747  18.409  1.00  0.00     0.039 A 
HETATM   34  C9  UNL     1      44.374  28.014  18.991  1.00  0.00     0.065 A 
HETATM   35  C10 UNL     1      44.210  26.661  19.212  1.00  0.00     0.039 A 
HETATM   36  C11 UNL     1      43.029  26.041  18.840  1.00  0.00     0.033 A 
BRANCH  34  37
HETATM   37  O5  UNL     1      45.616  28.595  19.376  1.00  0.00    -0.361 OA
ATOM     38  H5  UNL     1      46.455  28.245  19.101  1.00  0.00     0.217 HD
ENDBRANCH  34  37
ENDBRANCH   3  31
TORSDOF 8
ENDMDL
MODEL 2
REMARK VINA RESULT: -10.099927089      1.037      1.151
REMARK  8 active torsions:
REMARK  status: ('A' for Active; 'I' for Inactive)
REMARK    1  A    between atoms: N1_2  and  S1_4 
REMARK    2  A    between atoms: S1_4  and  N2_7 
REMARK       I    between atoms: N2_7  and  C2_9 
REMARK       I    between atoms: C2_9  and  N3_11 
REMARK    3  A    between atoms: N3_11  and  C3_12 
REMARK    4  A    between atoms: C3_12  and  C4_13 
REMARK    5  A    between atoms: C5_14  and  O4_15 
REMARK    6  A    between atoms: N4_17  and  C6_18 
REMARK    7  A    between atoms: C9_21  and  O5_22 
REMARK    8  A    between atoms: N5_28  and  C13_29 
ROOT
HETATM    1  C4  UNL     1      38.952  25.347  17.003  1.00  0.00     0.126 A 
HETATM    2  C5  UNL     1      39.692  26.448  17.515  1.00  0.00     0.181 A 
HETATM    3  N4  UNL     1      40.884  26.027  17.897  1.00  0.00    -0.241 N 
HETATM    4  C12 UNL     1      40.925  24.753  17.687  1.00  0.00     0.342 A 
HETATM    5  O6  UNL     1      41.856  23.916  17.875  1.00  0.00    -0.245 OA
HETATM    6  N5  UNL     1      39.734  24.315  17.141  1.00  0.00    -0.237 N 
ENDROOT
BRANCH   1   7
HETATM    7  C3  UNL     1      37.634  25.638  16.485  1.00  0.00     0.222 C 
BRANCH   7   8
HETATM    8  N3  UNL     1      36.350  25.682  16.561  1.00  0.00    -0.362 NA
HETATM    9  C2  UNL     1      34.974  25.729  16.644  1.00  0.00     0.408 C 
HETATM   10  N2  UNL     1      34.377  26.134  15.391  1.00  0.00    -0.207 N 
HETATM   11  O3  UNL     1      34.334  25.452  17.601  1.00  0.00    -0.229 OA
ATOM     12  H2  UNL     1      35.130  26.422  14.765  1.00  0.00     0.186 HD
BRANCH  10  13
HETATM   13  S1  UNL     1      32.932  26.313  14.570  1.00  0.00     0.323 S 
HETATM   14  O1  UNL     1      31.769  26.557  15.533  1.00  0.00    -0.182 OA
HETATM   15  O2  UNL     1      32.529  25.236  13.561  1.00  0.00    -0.182 OA
BRANCH  13  16
HETATM   16  N1  UNL     1      33.106  27.854  13.689  1.00  0.00    -0.307 N 
HETATM   17  C1  UNL     1      34.460  28.292  13.930  1.00  0.00     0.161 C 
ATOM     18  H1  UNL     1      32.396  28.327  13.130  1.00  0.00     0.173 HD
ENDBRANCH  13  16
ENDBRANCH  10  13
ENDBRANCH   7   8
ENDBRANCH   1   7
BRANCH   2  19
HETATM   19  O4  UNL     1      39.270  27.806  17.645  1.00  0.00    -0.344 OA
ATOM     20  H4  UNL     1      38.811  28.208  18.374  1.00  0.00     0.219 HD
ENDBRANCH   2  19
BRANCH   6  21
HETATM   21  C13 UNL     1      39.430  22.991  16.844  1.00  0.00     0.184 A 
HETATM   22  N6  UNL     1      39.896  22.111  16.053  1.00  0.00    -0.221 N 
HETATM   23  O7  UNL     1      39.388  20.901  16.217  1.00  0.00    -0.153 OA
ATOM     24  H6  UNL     1      40.603  22.321  15.349  1.00  0.00     0.198 HD
HETATM   25  N7  UNL     1      38.541  20.950  17.191  1.00  0.00    -0.222 N 
HETATM   26  C14 UNL     1      38.507  22.238  17.663  1.00  0.00     0.168 A 
ATOM     27  H7  UNL     1      37.993  20.166  17.547  1.00  0.00     0.198 HD
HETATM   28  N8  UNL     1      37.760  22.682  18.586  1.00  0.00    -0.381 N 
ATOM     29  H82 UNL     1      37.735  23.639  18.937  1.00  0.00     0.157 HD
ATOM     30  H81 UNL     1      37.109  22.150  19.163  1.00  0.00     0.157 HD
ENDBRANCH   6  21
BRANCH   3  31
HETATM   31  C6  UNL     1      41.979  26.866  18.240  1.00  0.00     0.046 A 
HETATM   32  C7  UNL     1      42.182  28.163  18.053  1.00  0.00     0.033 A 
HETATM   33  C8  UNL     1      43.349  28.769  18.410  1.00  0.00     0.039 A 
HETATM   34  C9  UNL     1      44.369  28.037  19.002  1.00  0.00     0.065 A 
HETATM   35  C10 UNL     1      44.200  26.686  19.229  1.00  0.00     0.039 A 
HETATM   36  C11 UNL     1      43.019  26.066  18.853  1.00  0.00     0.033 A 
BRANCH  34  37
HETATM   37  O5  UNL     1      45.609  28.616  19.391  1.00  0.00    -0.361 OA
ATOM     38  H5  UNL     1      46.444  28.334  19.035  1.00  0.00     0.217 HD
ENDBRANCH  34  37
ENDBRANCH   3  31
TORSDOF 8
ENDMDL
MODEL 3
REMARK VINA RESULT: -9.804296509      3.550      5.777
REMARK  8 active torsions:
REMARK  status: ('A' for Active; 'I' for Inactive)
REMARK    1  A    between atoms: N1_2  and  S1_4 
REMARK    2  A    between atoms: S1_4  and  N2_7 
REMARK       I    between atoms: N2_7  and  C2_9 
REMARK       I    between atoms: C2_9  and  N3_11 
REMARK    3  A    between atoms: N3_11  and  C3_12 
REMARK    4  A    between atoms: C3_12  and  C4_13 
REMARK    5  A    between atoms: C5_14  and  O4_15 
REMARK    6  A    between atoms: N4_17  and  C6_18 
REMARK    7  A    between atoms: C9_21  and  O5_22 
REMARK    8  A    between atoms: N5_28  and  C13_29 
ROOT
HETATM    1  C4  UNL     1      40.858  28.145  17.338  1.00  0.00     0.126 A 
HETATM    2  C5  UNL     1      40.416  29.489  17.486  1.00  0.00     0.181 A 
HETATM    3  N4  UNL     1      41.374  30.200  18.050  1.00  0.00    -0.241 N 
HETATM    4  C12 UNL     1      42.359  29.397  18.286  1.00  0.00     0.342 A 
HETATM    5  O6  UNL     1      43.497  29.615  18.794  1.00  0.00    -0.245 OA
HETATM    6  N5  UNL     1      42.053  28.119  17.857  1.00  0.00    -0.237 N 
ENDROOT
BRANCH   1   7
HETATM    7  C3  UNL     1      39.949  27.232  16.683  1.00  0.00     0.222 C 
BRANCH   7   8
HETATM    8  N3  UNL     1      39.027  26.334  16.672  1.00  0.00    -0.362 NA
HETATM    9  C2  UNL     1      38.038  25.373  16.661  1.00  0.00     0.408 C 
HETATM   10  N2  UNL     1      38.558  24.068  17.003  1.00  0.00    -0.207 N 
HETATM   11  O3  UNL     1      36.893  25.569  16.430  1.00  0.00    -0.229 OA
ATOM     12  H2  UNL     1      39.575  24.138  17.045  1.00  0.00     0.186 HD
BRANCH  10  13
HETATM   13  S1  UNL     1      38.138  22.488  17.355  1.00  0.00     0.323 S 
HETATM   14  O1  UNL     1      38.278  22.194  18.849  1.00  0.00    -0.182 OA
HETATM   15  O2  UNL     1      38.801  21.363  16.559  1.00  0.00    -0.182 OA
BRANCH  13  16
HETATM   16  N1  UNL     1      36.382  22.415  17.053  1.00  0.00    -0.307 N 
HETATM   17  C1  UNL     1      35.755  22.858  18.276  1.00  0.00     0.161 C 
ATOM     18  H1  UNL     1      35.916  22.120  16.194  1.00  0.00     0.173 HD
ENDBRANCH  13  16
ENDBRANCH  10  13
ENDBRANCH   7   8
ENDBRANCH   1   7
BRANCH   2  19
HETATM   19  O4  UNL     1      39.148  30.041  17.126  1.00  0.00    -0.344 OA
ATOM     20  H4  UNL     1      38.969  30.894  16.749  1.00  0.00     0.219 HD
ENDBRANCH   2  19
BRANCH   6  21
HETATM   21  C13 UNL     1      42.873  27.007  18.010  1.00  0.00     0.184 A 
HETATM   22  N6  UNL     1      44.107  26.761  17.830  1.00  0.00    -0.221 N 
HETATM   23  O7  UNL     1      44.501  25.577  18.265  1.00  0.00    -0.153 OA
ATOM     24  H6  UNL     1      44.742  27.424  17.385  1.00  0.00     0.198 HD
HETATM   25  N7  UNL     1      43.482  24.984  18.794  1.00  0.00    -0.222 N 
HETATM   26  C14 UNL     1      42.400  25.822  18.690  1.00  0.00     0.168 A 
ATOM     27  H7  UNL     1      43.483  24.055  19.215  1.00  0.00     0.198 HD
HETATM   28  N8  UNL     1      41.214  25.568  19.056  1.00  0.00    -0.381 N 
ATOM     29  H82 UNL     1      40.409  26.190  18.980  1.00  0.00     0.157 HD
ATOM     30  H81 UNL     1      40.881  24.731  19.536  1.00  0.00     0.157 HD
ENDBRANCH   6  21
BRANCH   3  31
HETATM   31  C6  UNL     1      41.395  31.618  18.145  1.00  0.00     0.046 A 
HETATM   32  C7  UNL     1      41.080  32.435  19.141  1.00  0.00     0.033 A 
HETATM   33  C8  UNL     1      41.114  33.789  19.001  1.00  0.00     0.039 A 
HETATM   34  C9  UNL     1      41.500  34.362  17.797  1.00  0.00     0.065 A 
HETATM   35  C10 UNL     1      41.850  33.553  16.735  1.00  0.00     0.039 A 
HETATM   36  C11 UNL     1      41.802  32.176  16.872  1.00  0.00     0.033 A 
BRANCH  34  37
HETATM   37  O5  UNL     1      41.550  35.770  17.592  1.00  0.00    -0.361 OA
ATOM     38  H5  UNL     1      42.156  36.337  18.057  1.00  0.00     0.217 HD
ENDBRANCH  34  37
ENDBRANCH   3  31
TORSDOF 8
ENDMDL
MODEL 4
REMARK VINA RESULT: -9.761136548      0.970      1.402
REMARK  8 active torsions:
REMARK  status: ('A' for Active; 'I' for Inactive)
REMARK    1  A    between atoms: N1_2  and  S1_4 
REMARK    2  A    between atoms: S1_4  and  N2_7 
REMARK       I    between atoms: N2_7  and  C2_9 
REMARK       I    between atoms: C2_9  and  N3_11 
REMARK    3  A    between atoms: N3_11  and  C3_12 
REMARK    4  A    between atoms: C3_12  and  C4_13 
REMARK    5  A    between atoms: C5_14  and  O4_15 
REMARK    6  A    between atoms: N4_17  and  C6_18 
REMARK    7  A    between atoms: C9_21  and  O5_22 
REMARK    8  A    between atoms: N5_28  and  C13_29 
ROOT
HETATM    1  C4  UNL     1      38.507  25.133  17.120  1.00  0.00     0.126 A 
HETATM    2  C5  UNL     1      39.080  26.361  17.551  1.00  0.00     0.181 A 
HETATM    3  N4  UNL     1      40.375  26.192  17.741  1.00  0.00    -0.241 N 
HETATM    4  C12 UNL     1      40.640  24.953  17.488  1.00  0.00     0.342 A 
HETATM    5  O6  UNL     1      41.738  24.323  17.512  1.00  0.00    -0.245 OA
HETATM    6  N5  UNL     1      39.493  24.282  17.110  1.00  0.00    -0.237 N 
ENDROOT
BRANCH   1   7
HETATM    7  C3  UNL     1      37.096  25.149  16.811  1.00  0.00     0.222 C 
BRANCH   7   8
HETATM    8  N3  UNL     1      35.940  25.710  16.728  1.00  0.00    -0.362 NA
HETATM    9  C2  UNL     1      34.702  26.311  16.641  1.00  0.00     0.408 C 
HETATM   10  N2  UNL     1      34.152  26.210  15.308  1.00  0.00    -0.207 N 
HETATM   11  O3  UNL     1      34.125  26.828  17.537  1.00  0.00    -0.229 OA
ATOM     12  H2  UNL     1      34.877  25.828  14.699  1.00  0.00     0.186 HD
BRANCH  10  13
HETATM   13  S1  UNL     1      32.790  26.478  14.376  1.00  0.00     0.323 S 
HETATM   14  O1  UNL     1      32.384  25.221  13.606  1.00  0.00    -0.182 OA
HETATM   15  O2  UNL     1      32.783  27.674  13.422  1.00  0.00    -0.182 OA
BRANCH  13  16
HETATM   16  N1  UNL     1      31.477  26.713  15.561  1.00  0.00    -0.307 N 
HETATM   17  C1  UNL     1      31.325  28.142  15.700  1.00  0.00     0.161 C 
ATOM     18  H1  UNL     1      30.945  25.987  16.041  1.00  0.00     0.173 HD
ENDBRANCH  13  16
ENDBRANCH  10  13
ENDBRANCH   7   8
ENDBRANCH   1   7
BRANCH   2  19
HETATM   19  O4  UNL     1      38.417  27.606  17.783  1.00  0.00    -0.344 OA
ATOM     20  H4  UNL     1      38.630  28.458  17.419  1.00  0.00     0.219 HD
ENDBRANCH   2  19
BRANCH   6  21
HETATM   21  C13 UNL     1      39.421  22.924  16.821  1.00  0.00     0.184 A 
HETATM   22  N6  UNL     1      40.027  22.133  16.031  1.00  0.00    -0.221 N 
HETATM   23  O7  UNL     1      39.738  20.855  16.205  1.00  0.00    -0.153 OA
ATOM     24  H6  UNL     1      40.684  22.458  15.322  1.00  0.00     0.198 HD
HETATM   25  N7  UNL     1      38.900  20.761  17.183  1.00  0.00    -0.222 N 
HETATM   26  C14 UNL     1      38.646  22.027  17.650  1.00  0.00     0.168 A 
ATOM     27  H7  UNL     1      38.497  19.897  17.546  1.00  0.00     0.198 HD
HETATM   28  N8  UNL     1      37.839  22.340  18.575  1.00  0.00    -0.381 N 
ATOM     29  H82 UNL     1      37.651  23.281  18.922  1.00  0.00     0.157 HD
ATOM     30  H81 UNL     1      37.293  21.708  19.159  1.00  0.00     0.157 HD
ENDBRANCH   6  21
BRANCH   3  31
HETATM   31  C6  UNL     1      41.318  27.237  17.944  1.00  0.00     0.046 A 
HETATM   32  C7  UNL     1      42.551  27.223  18.431  1.00  0.00     0.033 A 
HETATM   33  C8  UNL     1      43.273  28.366  18.599  1.00  0.00     0.039 A 
HETATM   34  C9  UNL     1      42.734  29.596  18.245  1.00  0.00     0.065 A 
HETATM   35  C10 UNL     1      41.459  29.660  17.721  1.00  0.00     0.039 A 
HETATM   36  C11 UNL     1      40.719  28.499  17.563  1.00  0.00     0.033 A 
BRANCH  34  37
HETATM   37  O5  UNL     1      43.440  30.822  18.402  1.00  0.00    -0.361 OA
ATOM     38  H5  UNL     1      43.099  31.656  18.099  1.00  0.00     0.217 HD
ENDBRANCH  34  37
ENDBRANCH   3  31
TORSDOF 8
ENDMDL
MODEL 5
REMARK VINA RESULT: -9.748731089      3.750      7.803
REMARK  8 active torsions:
REMARK  status: ('A' for Active; 'I' for Inactive)
REMARK    1  A    between atoms: N1_2  and  S1_4 
REMARK    2  A    between atoms: S1_4  and  N2_7 
REMARK       I    between atoms: N2_7  and  C2_9 
REMARK       I    between atoms: C2_9  and  N3_11 
REMARK    3  A    between atoms: N3_11  and  C3_12 
REMARK    4  A    between atoms: C3_12  and  C4_13 
REMARK    5  A    between atoms: C5_14  and  O4_15 
REMARK    6  A    between atoms: N4_17  and  C6_18 
REMARK    7  A    between atoms: C9_21  and  O5_22 
REMARK    8  A    between atoms: N5_28  and  C13_29 
ROOT
HETATM    1  C4  UNL     1      39.013  26.828  17.135  1.00  0.00     0.126 A 
HETATM    2  C5  UNL     1      39.292  25.539  17.667  1.00  0.00     0.181 A 
HETATM    3  N4  UNL     1      38.245  24.758  17.478  1.00  0.00    -0.241 N 
HETATM    4  C12 UNL     1      37.335  25.469  16.899  1.00  0.00     0.342 A 
HETATM    5  O6  UNL     1      36.174  25.160  16.502  1.00  0.00    -0.245 OA
HETATM    6  N5  UNL     1      37.792  26.756  16.686  1.00  0.00    -0.237 N 
ENDROOT
BRANCH   1   7
HETATM    7  C3  UNL     1      40.077  27.804  17.207  1.00  0.00     0.222 C 
BRANCH   7   8
HETATM    8  N3  UNL     1      40.612  28.897  17.625  1.00  0.00    -0.362 NA
HETATM    9  C2  UNL     1      41.186  30.068  18.075  1.00  0.00     0.408 C 
HETATM   10  N2  UNL     1      40.702  31.215  17.340  1.00  0.00    -0.207 N 
HETATM   11  O3  UNL     1      41.960  30.155  18.967  1.00  0.00    -0.229 OA
ATOM     12  H2  UNL     1      40.139  30.873  16.561  1.00  0.00     0.186 HD
BRANCH  10  13
HETATM   13  S1  UNL     1      40.707  32.886  17.273  1.00  0.00     0.323 S 
HETATM   14  O1  UNL     1      39.304  33.458  17.477  1.00  0.00    -0.182 OA
HETATM   15  O2  UNL     1      41.353  33.564  16.064  1.00  0.00    -0.182 OA
BRANCH  13  16
HETATM   16  N1  UNL     1      41.605  33.389  18.730  1.00  0.00    -0.307 N 
HETATM   17  C1  UNL     1      41.737  34.824  18.634  1.00  0.00     0.161 C 
ATOM     18  H1  UNL     1      41.953  32.787  19.477  1.00  0.00     0.173 HD
ENDBRANCH  13  16
ENDBRANCH  10  13
ENDBRANCH   7   8
ENDBRANCH   1   7
BRANCH   2  19
HETATM   19  O4  UNL     1      40.479  25.101  18.329  1.00  0.00    -0.344 OA
ATOM     20  H4  UNL     1      41.259  24.722  17.940  1.00  0.00     0.219 HD
ENDBRANCH   2  19
BRANCH   6  21
HETATM   21  C13 UNL     1      37.044  27.788  16.132  1.00  0.00     0.184 A 
HETATM   22  N6  UNL     1      36.733  28.149  14.953  1.00  0.00    -0.221 N 
HETATM   23  O7  UNL     1      35.846  29.127  14.894  1.00  0.00    -0.153 OA
ATOM     24  H6  UNL     1      37.135  27.719  14.120  1.00  0.00     0.198 HD
HETATM   25  N7  UNL     1      35.513  29.442  16.102  1.00  0.00    -0.222 N 
HETATM   26  C14 UNL     1      36.215  28.634  16.962  1.00  0.00     0.168 A 
ATOM     27  H7  UNL     1      34.844  30.164  16.369  1.00  0.00     0.198 HD
HETATM   28  N8  UNL     1      36.187  28.679  18.228  1.00  0.00    -0.381 N 
ATOM     29  H82 UNL     1      36.709  28.079  18.867  1.00  0.00     0.157 HD
ATOM     30  H81 UNL     1      35.602  29.277  18.812  1.00  0.00     0.157 HD
ENDBRANCH   6  21
BRANCH   3  31
HETATM   31  C6  UNL     1      38.231  23.348  17.660  1.00  0.00     0.046 A 
HETATM   32  C7  UNL     1      37.589  22.582  18.532  1.00  0.00     0.033 A 
HETATM   33  C8  UNL     1      37.765  21.233  18.574  1.00  0.00     0.039 A 
HETATM   34  C9  UNL     1      38.625  20.608  17.680  1.00  0.00     0.065 A 
HETATM   35  C10 UNL     1      39.306  21.361  16.745  1.00  0.00     0.039 A 
HETATM   36  C11 UNL     1      39.138  22.736  16.711  1.00  0.00     0.033 A 
BRANCH  34  37
HETATM   37  O5  UNL     1      38.851  19.203  17.680  1.00  0.00    -0.361 OA
ATOM     38  H5  UNL     1      39.647  18.809  17.341  1.00  0.00     0.217 HD
ENDBRANCH  34  37
ENDBRANCH   3  31
TORSDOF 8
ENDMDL
