MODEL 1
REMARK VINA RESULT: -6.128070015      0.000      0.000
REMARK  16 active torsions:
REMARK  status: ('A' for Active; 'I' for Inactive)
REMARK    1  A    between atoms: C2_2  and  C3_3 
REMARK    2  A    between atoms: C3_3  and  O2_5 
REMARK    3  A    between atoms: O2_5  and  C4_6 
REMARK    4  A    between atoms: C5_7  and  C6_8 
REMARK    5  A    between atoms: C8_10  and  O3_11 
REMARK    6  A    between atoms: C9_13  and  O4_14 
REMARK    7  A    between atoms: C10_18  and  C11_19 
REMARK    8  A    between atoms: C12_22  and  O9_23 
REMARK    9  A    between atoms: O9_23  and  S1_24 
REMARK   10  A    between atoms: C14_28  and  C15_29 
REMARK   11  A    between atoms: C17_34  and  O15_35 
REMARK   12  A    between atoms: C17_34  and  C18_37 
REMARK   13  A    between atoms: C18_37  and  N1_43 
REMARK   14  A    between atoms: C19_38  and  C20_39 
REMARK   15  A    between atoms: C20_39  and  O17_41 
REMARK   16  A    between atoms: N1_43  and  S2_45 
ROOT
HETATM    1  C4  UNL     1      -2.404 -24.059  16.173  1.00  0.00     0.200 C 
HETATM    2  C5  UNL     1      -1.784 -22.974  15.363  1.00  0.00     0.212 C 
HETATM    3  O6  UNL     1      -2.244 -22.816  14.118  1.00  0.00    -0.349 OA
HETATM    4  C10 UNL     1      -3.607 -22.966  13.853  1.00  0.00     0.219 C 
HETATM    5  C12 UNL     1      -3.641 -24.145  12.887  1.00  0.00     0.231 C 
HETATM    6  C14 UNL     1      -3.239 -25.338  13.667  1.00  0.00     0.256 C 
HETATM    7  O14 UNL     1      -3.868 -25.473  14.881  1.00  0.00    -0.361 OA
HETATM    8  C16 UNL     1      -3.819 -24.428  15.740  1.00  0.00     0.199 C 
HETATM    9  C17 UNL     1      -4.394 -23.202  15.123  1.00  0.00     0.173 C 
ENDROOT
BRANCH   9  10
HETATM   10  O15 UNL     1      -4.044 -22.134  16.009  1.00  0.00    -0.377 OA
ATOM     11  H15 UNL     1      -4.683 -22.156  16.711  1.00  0.00     0.211 HD
ENDBRANCH   9  10
BRANCH   9  12
HETATM   12  C18 UNL     1      -5.845 -23.096  14.995  1.00  0.00     0.069 C 
HETATM   13  C19 UNL     1      -6.487 -22.245  15.834  1.00  0.00     0.111 C 
BRANCH  13  14
HETATM   14  C20 UNL     1      -7.872 -21.964  15.903  1.00  0.00     0.284 C 
HETATM   15  O16 UNL     1      -8.591 -21.862  14.897  1.00  0.00    -0.260 OA
BRANCH  14  16
HETATM   16  O17 UNL     1      -8.512 -21.781  17.138  1.00  0.00    -0.323 OA
HETATM   17  C21 UNL     1      -9.516 -20.805  17.315  1.00  0.00     0.213 C 
ENDBRANCH  14  16
ENDBRANCH  13  14
BRANCH  12  18
HETATM   18  N1  UNL     1      -6.688 -23.774  14.097  1.00  0.00    -0.266 N 
ATOM     19  H1  UNL     1      -6.861 -23.288  13.217  1.00  0.00     0.181 HD
BRANCH  18  20
HETATM   20  S2  UNL     1      -7.464 -25.277  14.252  1.00  0.00     0.209 S 
HETATM   21  O18 UNL     1      -7.125 -26.279  13.182  1.00  0.00    -0.578 OA
HETATM   22  O19 UNL     1      -8.970 -25.135  14.289  1.00  0.00    -0.578 OA
HETATM   23  O20 UNL     1      -7.073 -26.097  15.701  1.00  0.00    -0.578 OA
ENDBRANCH  18  20
ENDBRANCH  12  18
ENDBRANCH   9  12
BRANCH   4  24
HETATM   24  C11 UNL     1      -4.061 -21.711  13.267  1.00  0.00     0.216 C 
HETATM   25  O7  UNL     1      -3.333 -20.668  13.419  1.00  0.00    -0.646 OA
HETATM   26  O8  UNL     1      -5.207 -21.472  12.544  1.00  0.00    -0.646 OA
ENDBRANCH   4  24
BRANCH   5  27
HETATM   27  O9  UNL     1      -4.721 -24.227  12.076  1.00  0.00    -0.264 OA
BRANCH  27  28
HETATM   28  S1  UNL     1      -4.459 -24.310  10.446  1.00  0.00     0.262 S 
HETATM   29  C13 UNL     1      -5.624 -23.291   9.519  1.00  0.00     0.194 C 
HETATM   30  O10 UNL     1      -3.082 -23.790  10.052  1.00  0.00    -0.199 OA
HETATM   31  O11 UNL     1      -4.651 -25.672   9.841  1.00  0.00    -0.199 OA
ENDBRANCH  27  28
ENDBRANCH   5  27
BRANCH   1  32
HETATM   32  O2  UNL     1      -1.576 -25.193  16.319  1.00  0.00    -0.307 OA
BRANCH  32  33
HETATM   33  C3  UNL     1      -1.203 -25.736  17.511  1.00  0.00     0.282 C 
HETATM   34  O1  UNL     1      -0.895 -26.934  17.577  1.00  0.00    -0.260 OA
BRANCH  33  35
HETATM   35  C2  UNL     1      -1.164 -24.905  18.725  1.00  0.00     0.072 C 
HETATM   36  C1  UNL     1      -1.925 -25.166  19.772  1.00  0.00     0.017 C 
ENDBRANCH  33  35
ENDBRANCH  32  33
ENDBRANCH   1  32
BRANCH   2  37
HETATM   37  C6  UNL     1      -0.299 -23.237  15.315  1.00  0.00     0.090 A 
HETATM   38  C7  UNL     1       0.410 -23.763  14.236  1.00  0.00     0.077 A 
HETATM   39  C8  UNL     1       1.735 -23.848  14.596  1.00  0.00     0.126 A 
HETATM   40  C9  UNL     1       1.797 -23.372  15.882  1.00  0.00     0.217 A 
HETATM   41  O5  UNL     1       0.606 -23.036  16.245  1.00  0.00    -0.287 OA
BRANCH  39  42
HETATM   42  O3  UNL     1       2.770 -24.317  13.810  1.00  0.00    -0.356 OA
ATOM     43  H3  UNL     1       3.378 -25.011  14.033  1.00  0.00     0.218 HD
ENDBRANCH  39  42
BRANCH  40  44
HETATM   44  O4  UNL     1       2.925 -23.254  16.689  1.00  0.00    -0.339 OA
ATOM     45  H4  UNL     1       2.953 -23.136  17.632  1.00  0.00     0.220 HD
ENDBRANCH  40  44
ENDBRANCH   2  37
BRANCH   6  46
HETATM   46  C15 UNL     1      -3.267 -26.645  12.981  1.00  0.00     0.206 C 
HETATM   47  O12 UNL     1      -4.160 -27.512  13.174  1.00  0.00    -0.646 OA
HETATM   48  O13 UNL     1      -2.291 -27.011  12.064  1.00  0.00    -0.646 OA
ENDBRANCH   6  46
TORSDOF 16
ENDMDL
MODEL 2
REMARK VINA RESULT: -5.833839191      2.454      4.755
REMARK  16 active torsions:
REMARK  status: ('A' for Active; 'I' for Inactive)
REMARK    1  A    between atoms: C2_2  and  C3_3 
REMARK    2  A    between atoms: C3_3  and  O2_5 
REMARK    3  A    between atoms: O2_5  and  C4_6 
REMARK    4  A    between atoms: C5_7  and  C6_8 
REMARK    5  A    between atoms: C8_10  and  O3_11 
REMARK    6  A    between atoms: C9_13  and  O4_14 
REMARK    7  A    between atoms: C10_18  and  C11_19 
REMARK    8  A    between atoms: C12_22  and  O9_23 
REMARK    9  A    between atoms: O9_23  and  S1_24 
REMARK   10  A    between atoms: C14_28  and  C15_29 
REMARK   11  A    between atoms: C17_34  and  O15_35 
REMARK   12  A    between atoms: C17_34  and  C18_37 
REMARK   13  A    between atoms: C18_37  and  N1_43 
REMARK   14  A    between atoms: C19_38  and  C20_39 
REMARK   15  A    between atoms: C20_39  and  O17_41 
REMARK   16  A    between atoms: N1_43  and  S2_45 
ROOT
HETATM    1  C4  UNL     1      -3.076 -22.150  16.713  1.00  0.00     0.200 C 
HETATM    2  C5  UNL     1      -2.000 -23.113  16.346  1.00  0.00     0.212 C 
HETATM    3  O6  UNL     1      -2.182 -23.816  15.224  1.00  0.00    -0.349 OA
HETATM    4  C10 UNL     1      -2.759 -23.210  14.106  1.00  0.00     0.219 C 
HETATM    5  C12 UNL     1      -4.035 -24.019  13.898  1.00  0.00     0.231 C 
HETATM    6  C14 UNL     1      -4.921 -23.703  15.042  1.00  0.00     0.256 C 
HETATM    7  O14 UNL     1      -5.039 -22.364  15.329  1.00  0.00    -0.361 OA
HETATM    8  C16 UNL     1      -3.902 -21.658  15.529  1.00  0.00     0.199 C 
HETATM    9  C17 UNL     1      -3.009 -21.737  14.341  1.00  0.00     0.173 C 
ENDROOT
BRANCH   9  10
HETATM   10  O15 UNL     1      -1.759 -21.189  14.772  1.00  0.00    -0.377 OA
ATOM     11  H15 UNL     1      -1.760 -21.246  15.720  1.00  0.00     0.211 HD
ENDBRANCH   9  10
BRANCH   9  12
HETATM   12  C18 UNL     1      -3.348 -20.956  13.156  1.00  0.00     0.069 C 
HETATM   13  C19 UNL     1      -2.913 -19.673  13.105  1.00  0.00     0.111 C 
BRANCH  13  14
HETATM   14  C20 UNL     1      -3.104 -18.724  12.073  1.00  0.00     0.284 C 
HETATM   15  O16 UNL     1      -2.898 -18.978  10.876  1.00  0.00    -0.260 OA
BRANCH  14  16
HETATM   16  O17 UNL     1      -3.543 -17.422  12.358  1.00  0.00    -0.323 OA
HETATM   17  C21 UNL     1      -2.653 -16.421  12.803  1.00  0.00     0.213 C 
ENDBRANCH  14  16
ENDBRANCH  13  14
BRANCH  12  18
HETATM   18  N1  UNL     1      -4.084 -21.365  12.029  1.00  0.00    -0.266 N 
ATOM     19  H1  UNL     1      -3.546 -21.862  11.320  1.00  0.00     0.181 HD
BRANCH  18  20
HETATM   20  S2  UNL     1      -5.730 -21.160  11.667  1.00  0.00     0.209 S 
HETATM   21  O18 UNL     1      -6.672 -21.462  12.801  1.00  0.00    -0.578 OA
HETATM   22  O19 UNL     1      -6.157 -21.994  10.479  1.00  0.00    -0.578 OA
HETATM   23  O20 UNL     1      -6.135 -19.555  11.234  1.00  0.00    -0.578 OA
ENDBRANCH  18  20
ENDBRANCH  12  18
ENDBRANCH   9  12
BRANCH   4  24
HETATM   24  C11 UNL     1      -1.798 -23.336  13.017  1.00  0.00     0.216 C 
HETATM   25  O7  UNL     1      -0.559 -23.467  13.310  1.00  0.00    -0.646 OA
HETATM   26  O8  UNL     1      -2.038 -23.335  11.662  1.00  0.00    -0.646 OA
ENDBRANCH   4  24
BRANCH   5  27
HETATM   27  O9  UNL     1      -4.553 -24.014  12.648  1.00  0.00    -0.264 OA
BRANCH  27  28
HETATM   28  S1  UNL     1      -4.763 -25.470  11.894  1.00  0.00     0.262 S 
HETATM   29  C13 UNL     1      -3.990 -26.823  12.804  1.00  0.00     0.194 C 
HETATM   30  O10 UNL     1      -6.232 -25.861  11.782  1.00  0.00    -0.199 OA
HETATM   31  O11 UNL     1      -4.131 -25.577  10.535  1.00  0.00    -0.199 OA
ENDBRANCH  27  28
ENDBRANCH   5  27
BRANCH   1  32
HETATM   32  O2  UNL     1      -3.884 -22.593  17.782  1.00  0.00    -0.307 OA
BRANCH  32  33
HETATM   33  C3  UNL     1      -4.392 -21.790  18.759  1.00  0.00     0.282 C 
HETATM   34  O1  UNL     1      -5.384 -21.085  18.529  1.00  0.00    -0.260 OA
BRANCH  33  35
HETATM   35  C2  UNL     1      -3.766 -21.757  20.090  1.00  0.00     0.072 C 
HETATM   36  C1  UNL     1      -4.384 -22.220  21.161  1.00  0.00     0.017 C 
ENDBRANCH  33  35
ENDBRANCH  32  33
ENDBRANCH   1  32
BRANCH   2  37
HETATM   37  C6  UNL     1      -1.828 -24.061  17.506  1.00  0.00     0.090 A 
HETATM   38  C7  UNL     1      -2.057 -25.436  17.486  1.00  0.00     0.077 A 
HETATM   39  C8  UNL     1      -1.786 -25.932  18.740  1.00  0.00     0.126 A 
HETATM   40  C9  UNL     1      -1.399 -24.848  19.489  1.00  0.00     0.217 A 
HETATM   41  O5  UNL     1      -1.441 -23.803  18.733  1.00  0.00    -0.287 OA
BRANCH  39  42
HETATM   42  O3  UNL     1      -1.887 -27.251  19.140  1.00  0.00    -0.356 OA
ATOM     43  H3  UNL     1      -2.690 -27.727  19.316  1.00  0.00     0.218 HD
ENDBRANCH  39  42
BRANCH  40  44
HETATM   44  O4  UNL     1      -1.020 -24.833  20.828  1.00  0.00    -0.339 OA
ATOM     45  H4  UNL     1      -0.912 -25.579  21.407  1.00  0.00     0.220 HD
ENDBRANCH  40  44
ENDBRANCH   2  37
BRANCH   6  46
HETATM   46  C15 UNL     1      -6.273 -24.300  15.045  1.00  0.00     0.206 C 
HETATM   47  O12 UNL     1      -7.332 -23.618  15.036  1.00  0.00    -0.646 OA
HETATM   48  O13 UNL     1      -6.466 -25.674  15.060  1.00  0.00    -0.646 OA
ENDBRANCH   6  46
TORSDOF 16
ENDMDL
MODEL 3
REMARK VINA RESULT: -5.814354228      2.440      5.153
REMARK  16 active torsions:
REMARK  status: ('A' for Active; 'I' for Inactive)
REMARK    1  A    between atoms: C2_2  and  C3_3 
REMARK    2  A    between atoms: C3_3  and  O2_5 
REMARK    3  A    between atoms: O2_5  and  C4_6 
REMARK    4  A    between atoms: C5_7  and  C6_8 
REMARK    5  A    between atoms: C8_10  and  O3_11 
REMARK    6  A    between atoms: C9_13  and  O4_14 
REMARK    7  A    between atoms: C10_18  and  C11_19 
REMARK    8  A    between atoms: C12_22  and  O9_23 
REMARK    9  A    between atoms: O9_23  and  S1_24 
REMARK   10  A    between atoms: C14_28  and  C15_29 
REMARK   11  A    between atoms: C17_34  and  O15_35 
REMARK   12  A    between atoms: C17_34  and  C18_37 
REMARK   13  A    between atoms: C18_37  and  N1_43 
REMARK   14  A    between atoms: C19_38  and  C20_39 
REMARK   15  A    between atoms: C20_39  and  O17_41 
REMARK   16  A    between atoms: N1_43  and  S2_45 
ROOT
HETATM    1  C4  UNL     1      -4.240 -21.623  16.407  1.00  0.00     0.200 C 
HETATM    2  C5  UNL     1      -2.906 -22.277  16.523  1.00  0.00     0.212 C 
HETATM    3  O6  UNL     1      -2.627 -23.232  15.631  1.00  0.00    -0.349 OA
HETATM    4  C10 UNL     1      -3.036 -23.089  14.303  1.00  0.00     0.219 C 
HETATM    5  C12 UNL     1      -3.984 -24.266  14.108  1.00  0.00     0.231 C 
HETATM    6  C14 UNL     1      -5.177 -23.985  14.940  1.00  0.00     0.256 C 
HETATM    7  O14 UNL     1      -5.683 -22.714  14.813  1.00  0.00    -0.361 OA
HETATM    8  C16 UNL     1      -4.838 -21.674  15.005  1.00  0.00     0.199 C 
HETATM    9  C17 UNL     1      -3.685 -21.743  14.066  1.00  0.00     0.173 C 
ENDROOT
BRANCH   9  10
HETATM   10  O15 UNL     1      -2.753 -20.766  14.541  1.00  0.00    -0.377 OA
ATOM     11  H15 UNL     1      -3.275 -20.049  14.881  1.00  0.00     0.211 HD
ENDBRANCH   9  10
BRANCH   9  12
HETATM   12  C18 UNL     1      -3.896 -21.381  12.668  1.00  0.00     0.069 C 
HETATM   13  C19 UNL     1      -3.384 -20.200  12.242  1.00  0.00     0.111 C 
BRANCH  13  14
HETATM   14  C20 UNL     1      -3.448 -19.634  10.947  1.00  0.00     0.284 C 
HETATM   15  O16 UNL     1      -3.328 -20.306   9.911  1.00  0.00    -0.260 OA
BRANCH  14  16
HETATM   16  O17 UNL     1      -3.654 -18.258  10.768  1.00  0.00    -0.323 OA
HETATM   17  C21 UNL     1      -2.709 -17.304  11.205  1.00  0.00     0.213 C 
ENDBRANCH  14  16
ENDBRANCH  13  14
BRANCH  12  18
HETATM   18  N1  UNL     1      -4.577 -22.111  11.677  1.00  0.00    -0.266 N 
ATOM     19  H1  UNL     1      -3.988 -22.719  11.108  1.00  0.00     0.181 HD
BRANCH  18  20
HETATM   20  S2  UNL     1      -6.227 -22.135  11.279  1.00  0.00     0.209 S 
HETATM   21  O18 UNL     1      -7.117 -21.360  12.212  1.00  0.00    -0.578 OA
HETATM   22  O19 UNL     1      -6.768 -23.545  11.193  1.00  0.00    -0.578 OA
HETATM   23  O20 UNL     1      -6.567 -21.450   9.749  1.00  0.00    -0.578 OA
ENDBRANCH  18  20
ENDBRANCH  12  18
ENDBRANCH   9  12
BRANCH   4  24
HETATM   24  C11 UNL     1      -1.832 -23.159  13.484  1.00  0.00     0.216 C 
HETATM   25  O7  UNL     1      -0.701 -22.935  14.040  1.00  0.00    -0.646 OA
HETATM   26  O8  UNL     1      -1.729 -23.444  12.141  1.00  0.00    -0.646 OA
ENDBRANCH   4  24
BRANCH   5  27
HETATM   27  O9  UNL     1      -4.159 -24.693  12.836  1.00  0.00    -0.264 OA
BRANCH  27  28
HETATM   28  S1  UNL     1      -3.900 -26.293  12.515  1.00  0.00     0.262 S 
HETATM   29  C13 UNL     1      -5.417 -27.142  12.028  1.00  0.00     0.194 C 
HETATM   30  O10 UNL     1      -2.941 -26.505  11.351  1.00  0.00    -0.199 OA
HETATM   31  O11 UNL     1      -3.424 -27.106  13.686  1.00  0.00    -0.199 OA
ENDBRANCH  27  28
ENDBRANCH   5  27
BRANCH   1  32
HETATM   32  O2  UNL     1      -5.157 -22.039  17.395  1.00  0.00    -0.307 OA
BRANCH  32  33
HETATM   33  C3  UNL     1      -6.226 -21.310  17.823  1.00  0.00     0.282 C 
HETATM   34  O1  UNL     1      -7.268 -21.289  17.155  1.00  0.00    -0.260 OA
BRANCH  33  35
HETATM   35  C2  UNL     1      -6.147 -20.546  19.078  1.00  0.00     0.072 C 
HETATM   36  C1  UNL     1      -7.209 -19.967  19.607  1.00  0.00     0.017 C 
ENDBRANCH  33  35
ENDBRANCH  32  33
ENDBRANCH   1  32
BRANCH   2  37
HETATM   37  C6  UNL     1      -2.805 -22.850  17.915  1.00  0.00     0.090 A 
HETATM   38  C7  UNL     1      -2.244 -24.079  18.260  1.00  0.00     0.077 A 
HETATM   39  C8  UNL     1      -2.349 -24.228  19.624  1.00  0.00     0.126 A 
HETATM   40  C9  UNL     1      -2.969 -23.088  20.071  1.00  0.00     0.217 A 
HETATM   41  O5  UNL     1      -3.208 -22.333  19.052  1.00  0.00    -0.287 OA
BRANCH  39  42
HETATM   42  O3  UNL     1      -1.912 -25.308  20.367  1.00  0.00    -0.356 OA
ATOM     43  H3  UNL     1      -1.989 -25.414  21.308  1.00  0.00     0.218 HD
ENDBRANCH  39  42
BRANCH  40  44
HETATM   44  O4  UNL     1      -3.301 -22.762  21.383  1.00  0.00    -0.339 OA
ATOM     45  H4  UNL     1      -3.994 -22.183  21.678  1.00  0.00     0.220 HD
ENDBRANCH  40  44
ENDBRANCH   2  37
BRANCH   6  46
HETATM   46  C15 UNL     1      -6.300 -24.942  14.869  1.00  0.00     0.206 C 
HETATM   47  O12 UNL     1      -7.408 -24.673  14.333  1.00  0.00    -0.646 OA
HETATM   48  O13 UNL     1      -6.207 -26.220  15.402  1.00  0.00    -0.646 OA
ENDBRANCH   6  46
TORSDOF 16
ENDMDL
MODEL 4
REMARK VINA RESULT: -5.753436651      2.421      4.743
REMARK  16 active torsions:
REMARK  status: ('A' for Active; 'I' for Inactive)
REMARK    1  A    between atoms: C2_2  and  C3_3 
REMARK    2  A    between atoms: C3_3  and  O2_5 
REMARK    3  A    between atoms: O2_5  and  C4_6 
REMARK    4  A    between atoms: C5_7  and  C6_8 
REMARK    5  A    between atoms: C8_10  and  O3_11 
REMARK    6  A    between atoms: C9_13  and  O4_14 
REMARK    7  A    between atoms: C10_18  and  C11_19 
REMARK    8  A    between atoms: C12_22  and  O9_23 
REMARK    9  A    between atoms: O9_23  and  S1_24 
REMARK   10  A    between atoms: C14_28  and  C15_29 
REMARK   11  A    between atoms: C17_34  and  O15_35 
REMARK   12  A    between atoms: C17_34  and  C18_37 
REMARK   13  A    between atoms: C18_37  and  N1_43 
REMARK   14  A    between atoms: C19_38  and  C20_39 
REMARK   15  A    between atoms: C20_39  and  O17_41 
REMARK   16  A    between atoms: N1_43  and  S2_45 
ROOT
HETATM    1  C4  UNL     1      -3.525 -22.040  15.892  1.00  0.00     0.200 C 
HETATM    2  C5  UNL     1      -2.398 -22.962  15.577  1.00  0.00     0.212 C 
HETATM    3  O6  UNL     1      -2.564 -23.774  14.528  1.00  0.00    -0.349 OA
HETATM    4  C10 UNL     1      -3.210 -23.311  13.381  1.00  0.00     0.219 C 
HETATM    5  C12 UNL     1      -4.435 -24.213  13.288  1.00  0.00     0.231 C 
HETATM    6  C14 UNL     1      -5.309 -23.851  14.428  1.00  0.00     0.256 C 
HETATM    7  O14 UNL     1      -5.506 -22.502  14.599  1.00  0.00    -0.361 OA
HETATM    8  C16 UNL     1      -4.413 -21.710  14.697  1.00  0.00     0.199 C 
HETATM    9  C17 UNL     1      -3.549 -21.841  13.492  1.00  0.00     0.173 C 
ENDROOT
BRANCH   9  10
HETATM   10  O15 UNL     1      -2.326 -21.178  13.831  1.00  0.00    -0.377 OA
ATOM     11  H15 UNL     1      -1.629 -21.785  13.612  1.00  0.00     0.211 HD
ENDBRANCH   9  10
BRANCH   9  12
HETATM   12  C18 UNL     1      -3.970 -21.193  12.254  1.00  0.00     0.069 C 
HETATM   13  C19 UNL     1      -3.325 -20.058  11.889  1.00  0.00     0.111 C 
BRANCH  13  14
HETATM   14  C20 UNL     1      -3.542 -19.258  10.742  1.00  0.00     0.284 C 
HETATM   15  O16 UNL     1      -3.527 -19.714   9.588  1.00  0.00    -0.260 OA
BRANCH  14  16
HETATM   16  O17 UNL     1      -3.789 -17.882  10.856  1.00  0.00    -0.323 OA
HETATM   17  C21 UNL     1      -4.490 -17.170   9.859  1.00  0.00     0.213 C 
ENDBRANCH  14  16
ENDBRANCH  13  14
BRANCH  12  18
HETATM   18  N1  UNL     1      -4.982 -21.599  11.364  1.00  0.00    -0.266 N 
ATOM     19  H1  UNL     1      -4.696 -22.294  10.675  1.00  0.00     0.181 HD
BRANCH  18  20
HETATM   20  S2  UNL     1      -6.604 -21.110  11.260  1.00  0.00     0.209 S 
HETATM   21  O18 UNL     1      -7.467 -21.522  12.421  1.00  0.00    -0.578 OA
HETATM   22  O19 UNL     1      -7.266 -21.610   9.995  1.00  0.00    -0.578 OA
HETATM   23  O20 UNL     1      -6.799 -19.411  11.206  1.00  0.00    -0.578 OA
ENDBRANCH  18  20
ENDBRANCH  12  18
ENDBRANCH   9  12
BRANCH   4  24
HETATM   24  C11 UNL     1      -2.272 -23.475  12.276  1.00  0.00     0.216 C 
HETATM   25  O7  UNL     1      -1.037 -23.675  12.549  1.00  0.00    -0.646 OA
HETATM   26  O8  UNL     1      -2.531 -23.445  10.925  1.00  0.00    -0.646 OA
ENDBRANCH   4  24
BRANCH   5  27
HETATM   27  O9  UNL     1      -4.986 -24.355  12.060  1.00  0.00    -0.264 OA
BRANCH  27  28
HETATM   28  S1  UNL     1      -5.039 -25.873  11.408  1.00  0.00     0.262 S 
HETATM   29  C13 UNL     1      -4.973 -25.839   9.605  1.00  0.00     0.194 C 
HETATM   30  O10 UNL     1      -3.849 -26.727  11.828  1.00  0.00    -0.199 OA
HETATM   31  O11 UNL     1      -6.302 -26.638  11.682  1.00  0.00    -0.199 OA
ENDBRANCH  27  28
ENDBRANCH   5  27
BRANCH   1  32
HETATM   32  O2  UNL     1      -4.272 -22.433  17.022  1.00  0.00    -0.307 OA
BRANCH  32  33
HETATM   33  C3  UNL     1      -4.872 -21.577  17.897  1.00  0.00     0.282 C 
HETATM   34  O1  UNL     1      -6.028 -21.186  17.686  1.00  0.00    -0.260 OA
BRANCH  33  35
HETATM   35  C2  UNL     1      -4.150 -21.113  19.092  1.00  0.00     0.072 C 
HETATM   36  C1  UNL     1      -4.140 -21.812  20.213  1.00  0.00     0.017 C 
ENDBRANCH  33  35
ENDBRANCH  32  33
ENDBRANCH   1  32
BRANCH   2  37
HETATM   37  C6  UNL     1      -2.132 -23.789  16.811  1.00  0.00     0.090 A 
HETATM   38  C7  UNL     1      -2.201 -25.178  16.901  1.00  0.00     0.077 A 
HETATM   39  C8  UNL     1      -1.891 -25.538  18.192  1.00  0.00     0.126 A 
HETATM   40  C9  UNL     1      -1.642 -24.360  18.852  1.00  0.00     0.217 A 
HETATM   41  O5  UNL     1      -1.794 -23.390  18.015  1.00  0.00    -0.287 OA
BRANCH  39  42
HETATM   42  O3  UNL     1      -1.844 -26.823  18.697  1.00  0.00    -0.356 OA
ATOM     43  H3  UNL     1      -1.511 -27.083  19.548  1.00  0.00     0.218 HD
ENDBRANCH  39  42
BRANCH  40  44
HETATM   44  O4  UNL     1      -1.284 -24.194  20.187  1.00  0.00    -0.339 OA
ATOM     45  H4  UNL     1      -1.847 -23.943  20.910  1.00  0.00     0.220 HD
ENDBRANCH  40  44
ENDBRANCH   2  37
BRANCH   6  46
HETATM   46  C15 UNL     1      -6.617 -24.528  14.528  1.00  0.00     0.206 C 
HETATM   47  O12 UNL     1      -7.717 -23.946  14.333  1.00  0.00    -0.646 OA
HETATM   48  O13 UNL     1      -6.722 -25.874  14.852  1.00  0.00    -0.646 OA
ENDBRANCH   6  46
TORSDOF 16
ENDMDL
MODEL 5
REMARK VINA RESULT: -5.713270839      2.615      6.842
REMARK  16 active torsions:
REMARK  status: ('A' for Active; 'I' for Inactive)
REMARK    1  A    between atoms: C2_2  and  C3_3 
REMARK    2  A    between atoms: C3_3  and  O2_5 
REMARK    3  A    between atoms: O2_5  and  C4_6 
REMARK    4  A    between atoms: C5_7  and  C6_8 
REMARK    5  A    between atoms: C8_10  and  O3_11 
REMARK    6  A    between atoms: C9_13  and  O4_14 
REMARK    7  A    between atoms: C10_18  and  C11_19 
REMARK    8  A    between atoms: C12_22  and  O9_23 
REMARK    9  A    between atoms: O9_23  and  S1_24 
REMARK   10  A    between atoms: C14_28  and  C15_29 
REMARK   11  A    between atoms: C17_34  and  O15_35 
REMARK   12  A    between atoms: C17_34  and  C18_37 
REMARK   13  A    between atoms: C18_37  and  N1_43 
REMARK   14  A    between atoms: C19_38  and  C20_39 
REMARK   15  A    between atoms: C20_39  and  O17_41 
REMARK   16  A    between atoms: N1_43  and  S2_45 
ROOT
HETATM    1  C4  UNL     1      -5.206 -22.100  11.702  1.00  0.00     0.200 C 
HETATM    2  C5  UNL     1      -3.772 -21.694  11.691  1.00  0.00     0.212 C 
HETATM    3  O6  UNL     1      -3.020 -22.125  12.708  1.00  0.00    -0.349 OA
HETATM    4  C10 UNL     1      -3.205 -23.411  13.219  1.00  0.00     0.219 C 
HETATM    5  C12 UNL     1      -3.630 -23.150  14.660  1.00  0.00     0.231 C 
HETATM    6  C14 UNL     1      -4.975 -22.534  14.594  1.00  0.00     0.256 C 
HETATM    7  O14 UNL     1      -5.862 -23.170  13.760  1.00  0.00    -0.361 OA
HETATM    8  C16 UNL     1      -5.484 -23.383  12.478  1.00  0.00     0.199 C 
HETATM    9  C17 UNL     1      -4.230 -24.182  12.417  1.00  0.00     0.173 C 
ENDROOT
BRANCH   9  10
HETATM   10  O15 UNL     1      -3.802 -24.108  11.053  1.00  0.00    -0.377 OA
ATOM     11  H15 UNL     1      -3.486 -24.975  10.829  1.00  0.00     0.211 HD
ENDBRANCH   9  10
BRANCH   9  12
HETATM   12  C18 UNL     1      -4.298 -25.615  12.689  1.00  0.00     0.069 C 
HETATM   13  C19 UNL     1      -3.832 -26.457  11.734  1.00  0.00     0.111 C 
BRANCH  13  14
HETATM   14  C20 UNL     1      -3.783 -27.871  11.761  1.00  0.00     0.284 C 
HETATM   15  O16 UNL     1      -2.721 -28.507  11.849  1.00  0.00    -0.260 OA
BRANCH  14  16
HETATM   16  O17 UNL     1      -4.955 -28.637  11.689  1.00  0.00    -0.323 OA
HETATM   17  C21 UNL     1      -5.943 -28.392  10.711  1.00  0.00     0.213 C 
ENDBRANCH  14  16
ENDBRANCH  13  14
BRANCH  12  18
HETATM   18  N1  UNL     1      -4.794 -26.256  13.838  1.00  0.00    -0.266 N 
ATOM     19  H1  UNL     1      -4.089 -26.501  14.534  1.00  0.00     0.181 HD
BRANCH  18  20
HETATM   20  S2  UNL     1      -6.385 -26.687  14.247  1.00  0.00     0.209 S 
HETATM   21  O18 UNL     1      -6.606 -28.159  14.470  1.00  0.00    -0.578 OA
HETATM   22  O19 UNL     1      -7.381 -26.224  13.207  1.00  0.00    -0.578 OA
HETATM   23  O20 UNL     1      -6.926 -25.980  15.707  1.00  0.00    -0.578 OA
ENDBRANCH  18  20
ENDBRANCH  12  18
ENDBRANCH   9  12
BRANCH   4  24
HETATM   24  C11 UNL     1      -1.926 -24.100  13.097  1.00  0.00     0.216 C 
HETATM   25  O7  UNL     1      -1.017 -23.573  12.364  1.00  0.00    -0.646 OA
HETATM   26  O8  UNL     1      -1.535 -25.284  13.678  1.00  0.00    -0.646 OA
ENDBRANCH   4  24
BRANCH   5  27
HETATM   27  O9  UNL     1      -3.411 -24.153  15.542  1.00  0.00    -0.264 OA
BRANCH  27  28
HETATM   28  S1  UNL     1      -2.246 -23.928  16.692  1.00  0.00     0.262 S 
HETATM   29  C13 UNL     1      -1.501 -25.486  17.218  1.00  0.00     0.194 C 
HETATM   30  O10 UNL     1      -1.080 -23.089  16.183  1.00  0.00    -0.199 OA
HETATM   31  O11 UNL     1      -2.735 -23.338  17.985  1.00  0.00    -0.199 OA
ENDBRANCH  27  28
ENDBRANCH   5  27
BRANCH   1  32
HETATM   32  O2  UNL     1      -6.082 -21.054  12.064  1.00  0.00    -0.307 OA
BRANCH  32  33
HETATM   33  C3  UNL     1      -7.247 -20.756  11.423  1.00  0.00     0.282 C 
HETATM   34  O1  UNL     1      -8.273 -21.404  11.670  1.00  0.00    -0.260 OA
BRANCH  33  35
HETATM   35  C2  UNL     1      -7.291 -19.666  10.436  1.00  0.00     0.072 C 
HETATM   36  C1  UNL     1      -7.248 -18.397  10.799  1.00  0.00     0.017 C 
ENDBRANCH  33  35
ENDBRANCH  32  33
ENDBRANCH   1  32
BRANCH   2  37
HETATM   37  C6  UNL     1      -3.730 -20.187  11.643  1.00  0.00     0.090 A 
HETATM   38  C7  UNL     1      -3.498 -19.405  10.513  1.00  0.00     0.077 A 
HETATM   39  C8  UNL     1      -3.539 -18.084  10.891  1.00  0.00     0.126 A 
HETATM   40  C9  UNL     1      -3.795 -18.096  12.240  1.00  0.00     0.217 A 
HETATM   41  O5  UNL     1      -3.896 -19.325  12.619  1.00  0.00    -0.287 OA
BRANCH  39  42
HETATM   42  O3  UNL     1      -3.359 -16.988  10.068  1.00  0.00    -0.356 OA
ATOM     43  H3  UNL     1      -2.663 -16.345  10.130  1.00  0.00     0.218 HD
ENDBRANCH  39  42
BRANCH  40  44
HETATM   44  O4  UNL     1      -3.932 -17.000  13.087  1.00  0.00    -0.339 OA
ATOM     45  H4  UNL     1      -4.588 -16.868  13.762  1.00  0.00     0.220 HD
ENDBRANCH  40  44
ENDBRANCH   2  37
BRANCH   6  46
HETATM   46  C15 UNL     1      -5.660 -22.251  15.872  1.00  0.00     0.206 C 
HETATM   47  O12 UNL     1      -6.827 -22.644  16.136  1.00  0.00    -0.646 OA
HETATM   48  O13 UNL     1      -5.051 -21.519  16.882  1.00  0.00    -0.646 OA
ENDBRANCH   6  46
TORSDOF 16
ENDMDL
