MODEL 1
REMARK VINA RESULT: -9.384882851      0.000      0.000
REMARK  15 active torsions:
REMARK  status: ('A' for Active; 'I' for Inactive)
REMARK    1  A    between atoms: O1_2  and  C2_3 
REMARK    2  A    between atoms: C2_3  and  C3_5 
REMARK    3  A    between atoms: C3_5  and  C4_6 
REMARK    4  A    between atoms: C5_9  and  N2_10 
REMARK    5  A    between atoms: C6_14  and  S2_15 
REMARK    6  A    between atoms: S2_15  and  N3_18 
REMARK       I    between atoms: N3_18  and  C7_20 
REMARK    7  A    between atoms: C7_20  and  C8_22 
REMARK    8  A    between atoms: C8_22  and  N4_23 
REMARK    9  A    between atoms: N4_23  and  C9_25 
REMARK   10  A    between atoms: C11_28  and  C12_29 
REMARK   11  A    between atoms: C13_32  and  C14_33 
REMARK   12  A    between atoms: C13_32  and  C17_41 
REMARK   13  A    between atoms: C14_33  and  N6_34 
REMARK   14  A    between atoms: C18_44  and  O8_45 
REMARK   15  A    between atoms: C18_44  and  C19_47 
ROOT
HETATM    1  C9  UNL     1       2.386 -23.292  15.155  1.00  0.00     0.113 A 
HETATM    2  S3  UNL     1       3.878 -23.590  14.394  1.00  0.00    -0.076 SA
HETATM    3  C10 UNL     1       4.531 -22.095  13.933  1.00  0.00     0.075 A 
HETATM    4  C11 UNL     1       3.735 -21.021  14.266  1.00  0.00     0.057 A 
HETATM    5  S4  UNL     1       2.346 -21.608  15.044  1.00  0.00    -0.061 SA
ENDROOT
BRANCH   1   6
HETATM    6  N4  UNL     1       1.535 -24.145  15.677  1.00  0.00    -0.370 N 
ATOM      7  H4  UNL     1       1.821 -24.710  16.477  1.00  0.00     0.161 HD
BRANCH   6   8
HETATM    8  C8  UNL     1       0.211 -24.299  15.146  1.00  0.00     0.224 C 
BRANCH   8   9
HETATM    9  C7  UNL     1      -0.726 -23.462  15.898  1.00  0.00     0.248 C 
HETATM   10  N3  UNL     1      -1.063 -23.913  17.221  1.00  0.00    -0.248 N 
ATOM     11  H3  UNL     1      -0.664 -24.769  17.606  1.00  0.00     0.182 HD
HETATM   12  O5  UNL     1      -1.195 -22.426  15.407  1.00  0.00    -0.271 OA
BRANCH  10  13
HETATM   13  S2  UNL     1      -2.166 -22.951  18.132  1.00  0.00     0.273 S 
HETATM   14  O3  UNL     1      -3.461 -22.822  17.438  1.00  0.00    -0.200 OA
HETATM   15  O4  UNL     1      -1.513 -21.622  18.390  1.00  0.00    -0.200 OA
BRANCH  13  16
HETATM   16  C6  UNL     1      -2.355 -23.732  19.702  1.00  0.00     0.146 A 
HETATM   17  C4  UNL     1      -3.052 -23.357  20.814  1.00  0.00     0.051 A 
HETATM   18  N1  UNL     1      -3.045 -24.150  21.848  1.00  0.00    -0.338 N 
HETATM   19  C5  UNL     1      -2.357 -25.292  21.777  1.00  0.00     0.143 A 
ATOM     20  H1  UNL     1      -3.555 -23.903  22.696  1.00  0.00     0.168 HD
HETATM   21  S1  UNL     1      -1.699 -25.252  20.210  1.00  0.00    -0.039 SA
BRANCH  17  22
HETATM   22  C3  UNL     1      -3.780 -22.015  20.831  1.00  0.00     0.170 C 
BRANCH  22  23
HETATM   23  C2  UNL     1      -5.175 -22.174  21.297  1.00  0.00     0.264 C 
HETATM   24  O2  UNL     1      -5.363 -22.699  22.435  1.00  0.00    -0.265 OA
BRANCH  23  25
HETATM   25  O1  UNL     1      -6.279 -21.797  20.592  1.00  0.00    -0.326 OA
HETATM   26  C1  UNL     1      -7.038 -20.667  20.966  1.00  0.00     0.213 C 
ENDBRANCH  23  25
ENDBRANCH  22  23
ENDBRANCH  17  22
BRANCH  19  27
HETATM   27  N2  UNL     1      -2.238 -26.204  22.723  1.00  0.00    -0.380 N 
ATOM     28  H22 UNL     1      -2.790 -26.345  23.569  1.00  0.00     0.158 HD
ATOM     29  H21 UNL     1      -1.548 -26.954  22.767  1.00  0.00     0.158 HD
ENDBRANCH  19  27
ENDBRANCH  13  16
ENDBRANCH  10  13
ENDBRANCH   8   9
ENDBRANCH   6   8
ENDBRANCH   1   6
BRANCH   4  30
HETATM   30  C12 UNL     1       4.118 -19.626  13.956  1.00  0.00     0.118 C 
HETATM   31  N5  UNL     1       3.338 -18.601  14.105  1.00  0.00    -0.351 N 
HETATM   32  C13 UNL     1       4.090 -17.359  13.678  1.00  0.00     0.198 C 
ATOM     33  H5  UNL     1       2.379 -18.628  14.451  1.00  0.00     0.162 HD
HETATM   34  C18 UNL     1       5.471 -17.763  13.968  1.00  0.00     0.252 C 
HETATM   35  N10 UNL     1       5.374 -19.159  13.477  1.00  0.00    -0.334 N 
ATOM     36  H10 UNL     1       6.058 -19.671  12.919  1.00  0.00     0.164 HD
BRANCH  32  37
HETATM   37  C14 UNL     1       3.623 -16.967  12.349  1.00  0.00     0.198 C 
BRANCH  37  38
HETATM   38  N6  UNL     1       4.516 -16.248  11.490  1.00  0.00    -0.285 N 
HETATM   39  C15 UNL     1       5.121 -16.623  10.381  1.00  0.00     0.130 A 
HETATM   40  C16 UNL     1       5.897 -15.575   9.870  1.00  0.00     0.127 A 
HETATM   41  N7  UNL     1       5.709 -14.585  10.741  1.00  0.00    -0.296 N 
HETATM   42  N8  UNL     1       4.902 -14.958  11.697  1.00  0.00    -0.241 N 
ATOM     43  H7  UNL     1       6.136 -13.661  10.671  1.00  0.00     0.187 HD
ATOM     44  H8  UNL     1       4.606 -14.374  12.478  1.00  0.00     0.208 HD
ENDBRANCH  37  38
ENDBRANCH  32  37
BRANCH  32  45
HETATM   45  C17 UNL     1       3.589 -16.312  14.650  1.00  0.00     0.210 C 
HETATM   46  O6  UNL     1       3.628 -15.074  14.353  1.00  0.00    -0.646 OA
HETATM   47  O7  UNL     1       3.070 -16.637  15.890  1.00  0.00    -0.646 OA
ENDBRANCH  32  45
BRANCH  34  48
HETATM   48  O8  UNL     1       5.589 -18.024  15.406  1.00  0.00    -0.361 OA
ATOM     49  H8  UNL     1       6.505 -18.160  15.616  1.00  0.00     0.213 HD
ENDBRANCH  34  48
BRANCH  34  50
HETATM   50  C19 UNL     1       6.597 -16.993  13.580  1.00  0.00     0.290 C 
HETATM   51  N9  UNL     1       7.580 -17.611  12.701  1.00  0.00    -0.057 NA
HETATM   52  O9  UNL     1       6.877 -15.820  13.892  1.00  0.00    -0.271 OA
ENDBRANCH  34  50
ENDBRANCH   4  30
TORSDOF 15
ENDMDL
MODEL 2
REMARK VINA RESULT: -9.292380974      2.564      3.680
REMARK  15 active torsions:
REMARK  status: ('A' for Active; 'I' for Inactive)
REMARK    1  A    between atoms: O1_2  and  C2_3 
REMARK    2  A    between atoms: C2_3  and  C3_5 
REMARK    3  A    between atoms: C3_5  and  C4_6 
REMARK    4  A    between atoms: C5_9  and  N2_10 
REMARK    5  A    between atoms: C6_14  and  S2_15 
REMARK    6  A    between atoms: S2_15  and  N3_18 
REMARK       I    between atoms: N3_18  and  C7_20 
REMARK    7  A    between atoms: C7_20  and  C8_22 
REMARK    8  A    between atoms: C8_22  and  N4_23 
REMARK    9  A    between atoms: N4_23  and  C9_25 
REMARK   10  A    between atoms: C11_28  and  C12_29 
REMARK   11  A    between atoms: C13_32  and  C14_33 
REMARK   12  A    between atoms: C13_32  and  C17_41 
REMARK   13  A    between atoms: C14_33  and  N6_34 
REMARK   14  A    between atoms: C18_44  and  O8_45 
REMARK   15  A    between atoms: C18_44  and  C19_47 
ROOT
HETATM    1  C9  UNL     1       3.536 -21.784  16.064  1.00  0.00     0.113 A 
HETATM    2  S3  UNL     1       2.746 -20.380  16.609  1.00  0.00    -0.076 SA
HETATM    3  C10 UNL     1       3.126 -19.124  15.535  1.00  0.00     0.075 A 
HETATM    4  C11 UNL     1       3.956 -19.511  14.507  1.00  0.00     0.057 A 
HETATM    5  S4  UNL     1       4.305 -21.161  14.697  1.00  0.00    -0.061 SA
ENDROOT
BRANCH   1   6
HETATM    6  N4  UNL     1       3.526 -22.994  16.575  1.00  0.00    -0.370 N 
ATOM      7  H4  UNL     1       3.888 -23.141  17.517  1.00  0.00     0.161 HD
BRANCH   6   8
HETATM    8  C8  UNL     1       3.015 -24.113  15.836  1.00  0.00     0.224 C 
BRANCH   8   9
HETATM    9  C7  UNL     1       1.610 -23.882  15.493  1.00  0.00     0.248 C 
HETATM   10  N3  UNL     1       0.685 -23.833  16.593  1.00  0.00    -0.248 N 
ATOM     11  H3  UNL     1       1.000 -23.953  17.555  1.00  0.00     0.182 HD
HETATM   12  O5  UNL     1       1.254 -23.738  14.315  1.00  0.00    -0.271 OA
BRANCH  10  13
HETATM   13  S2  UNL     1      -0.977 -23.566  16.223  1.00  0.00     0.273 S 
HETATM   14  O3  UNL     1      -1.507 -24.626  15.345  1.00  0.00    -0.200 OA
HETATM   15  O4  UNL     1      -1.098 -22.197  15.614  1.00  0.00    -0.200 OA
BRANCH  13  16
HETATM   16  C6  UNL     1      -1.844 -23.511  17.758  1.00  0.00     0.146 A 
HETATM   17  C4  UNL     1      -2.066 -24.475  18.699  1.00  0.00     0.051 A 
HETATM   18  N1  UNL     1      -2.727 -24.151  19.774  1.00  0.00    -0.338 N 
HETATM   19  C5  UNL     1      -3.159 -22.895  19.909  1.00  0.00     0.143 A 
ATOM     20  H1  UNL     1      -2.911 -24.844  20.500  1.00  0.00     0.168 HD
HETATM   21  S1  UNL     1      -2.622 -22.144  18.482  1.00  0.00    -0.039 SA
BRANCH  17  22
HETATM   22  C3  UNL     1      -1.574 -25.899  18.452  1.00  0.00     0.170 C 
BRANCH  22  23
HETATM   23  C2  UNL     1      -1.444 -26.644  19.723  1.00  0.00     0.264 C 
HETATM   24  O2  UNL     1      -1.710 -27.883  19.712  1.00  0.00    -0.265 OA
BRANCH  23  25
HETATM   25  O1  UNL     1      -1.058 -26.096  20.910  1.00  0.00    -0.326 OA
HETATM   26  C1  UNL     1      -1.458 -26.657  22.142  1.00  0.00     0.213 C 
ENDBRANCH  23  25
ENDBRANCH  22  23
ENDBRANCH  17  22
BRANCH  19  27
HETATM   27  N2  UNL     1      -3.842 -22.398  20.923  1.00  0.00    -0.380 N 
ATOM     28  H22 UNL     1      -4.456 -22.865  21.590  1.00  0.00     0.158 HD
ATOM     29  H21 UNL     1      -3.868 -21.424  21.224  1.00  0.00     0.158 HD
ENDBRANCH  19  27
ENDBRANCH  13  16
ENDBRANCH  10  13
ENDBRANCH   8   9
ENDBRANCH   6   8
ENDBRANCH   1   6
BRANCH   4  30
HETATM   30  C12 UNL     1       4.410 -18.570  13.459  1.00  0.00     0.118 C 
HETATM   31  N5  UNL     1       4.082 -17.317  13.407  1.00  0.00    -0.351 N 
HETATM   32  C13 UNL     1       4.740 -16.699  12.193  1.00  0.00     0.198 C 
ATOM     33  H5  UNL     1       3.481 -16.830  14.073  1.00  0.00     0.162 HD
HETATM   34  C18 UNL     1       5.931 -17.547  12.066  1.00  0.00     0.252 C 
HETATM   35  N10 UNL     1       5.279 -18.845  12.366  1.00  0.00    -0.334 N 
ATOM     36  H10 UNL     1       5.422 -19.737  11.893  1.00  0.00     0.164 HD
BRANCH  32  37
HETATM   37  C14 UNL     1       3.733 -16.552  11.143  1.00  0.00     0.198 C 
BRANCH  37  38
HETATM   38  N6  UNL     1       2.356 -16.440  11.522  1.00  0.00    -0.285 N 
HETATM   39  C15 UNL     1       1.733 -15.503  12.207  1.00  0.00     0.130 A 
HETATM   40  C16 UNL     1       0.371 -15.809  12.326  1.00  0.00     0.127 A 
HETATM   41  N7  UNL     1       0.247 -16.967  11.679  1.00  0.00    -0.296 N 
HETATM   42  N8  UNL     1       1.397 -17.353  11.199  1.00  0.00    -0.241 N 
ATOM     43  H7  UNL     1      -0.627 -17.481  11.572  1.00  0.00     0.187 HD
ATOM     44  H8  UNL     1       1.555 -18.207  10.665  1.00  0.00     0.208 HD
ENDBRANCH  37  38
ENDBRANCH  32  37
BRANCH  32  45
HETATM   45  C17 UNL     1       5.086 -15.304  12.672  1.00  0.00     0.210 C 
HETATM   46  O6  UNL     1       5.386 -14.385  11.843  1.00  0.00    -0.646 OA
HETATM   47  O7  UNL     1       5.093 -14.958  14.011  1.00  0.00    -0.646 OA
ENDBRANCH  32  45
BRANCH  34  48
HETATM   48  O8  UNL     1       6.741 -17.401  13.280  1.00  0.00    -0.361 OA
ATOM     49  H8  UNL     1       6.948 -18.266  13.612  1.00  0.00     0.213 HD
ENDBRANCH  34  48
BRANCH  34  50
HETATM   50  C19 UNL     1       6.809 -17.481  10.954  1.00  0.00     0.290 C 
HETATM   51  N9  UNL     1       8.005 -18.312  10.974  1.00  0.00    -0.057 NA
HETATM   52  O9  UNL     1       6.703 -16.789   9.924  1.00  0.00    -0.271 OA
ENDBRANCH  34  50
ENDBRANCH   4  30
TORSDOF 15
ENDMDL
MODEL 3
REMARK VINA RESULT: -9.079814582      1.449      1.861
REMARK  15 active torsions:
REMARK  status: ('A' for Active; 'I' for Inactive)
REMARK    1  A    between atoms: O1_2  and  C2_3 
REMARK    2  A    between atoms: C2_3  and  C3_5 
REMARK    3  A    between atoms: C3_5  and  C4_6 
REMARK    4  A    between atoms: C5_9  and  N2_10 
REMARK    5  A    between atoms: C6_14  and  S2_15 
REMARK    6  A    between atoms: S2_15  and  N3_18 
REMARK       I    between atoms: N3_18  and  C7_20 
REMARK    7  A    between atoms: C7_20  and  C8_22 
REMARK    8  A    between atoms: C8_22  and  N4_23 
REMARK    9  A    between atoms: N4_23  and  C9_25 
REMARK   10  A    between atoms: C11_28  and  C12_29 
REMARK   11  A    between atoms: C13_32  and  C14_33 
REMARK   12  A    between atoms: C13_32  and  C17_41 
REMARK   13  A    between atoms: C14_33  and  N6_34 
REMARK   14  A    between atoms: C18_44  and  O8_45 
REMARK   15  A    between atoms: C18_44  and  C19_47 
ROOT
HETATM    1  C9  UNL     1       2.832 -22.630  15.402  1.00  0.00     0.113 A 
HETATM    2  S3  UNL     1       4.322 -23.120  14.743  1.00  0.00    -0.076 SA
HETATM    3  C10 UNL     1       4.979 -21.796  13.911  1.00  0.00     0.075 A 
HETATM    4  C11 UNL     1       4.187 -20.670  13.956  1.00  0.00     0.057 A 
HETATM    5  S4  UNL     1       2.797 -21.033  14.860  1.00  0.00    -0.061 SA
ENDROOT
BRANCH   1   6
HETATM    6  N4  UNL     1       1.979 -23.317  16.127  1.00  0.00    -0.370 N 
ATOM      7  H4  UNL     1       2.187 -23.492  17.110  1.00  0.00     0.161 HD
BRANCH   6   8
HETATM    8  C8  UNL     1       0.761 -23.826  15.565  1.00  0.00     0.224 C 
BRANCH   8   9
HETATM    9  C7  UNL     1      -0.389 -23.186  16.210  1.00  0.00     0.248 C 
HETATM   10  N3  UNL     1      -0.767 -23.704  17.496  1.00  0.00    -0.248 N 
ATOM     11  H3  UNL     1      -0.256 -24.473  17.929  1.00  0.00     0.182 HD
HETATM   12  O5  UNL     1      -0.991 -22.252  15.663  1.00  0.00    -0.271 OA
BRANCH  10  13
HETATM   13  S2  UNL     1      -2.117 -22.975  18.281  1.00  0.00     0.273 S 
HETATM   14  O3  UNL     1      -3.339 -23.094  17.463  1.00  0.00    -0.200 OA
HETATM   15  O4  UNL     1      -1.760 -21.546  18.580  1.00  0.00    -0.200 OA
BRANCH  13  16
HETATM   16  C6  UNL     1      -2.307 -23.782  19.838  1.00  0.00     0.146 A 
HETATM   17  C4  UNL     1      -3.013 -23.431  20.951  1.00  0.00     0.051 A 
HETATM   18  N1  UNL     1      -3.003 -24.241  21.973  1.00  0.00    -0.338 N 
HETATM   19  C5  UNL     1      -2.304 -25.374  21.887  1.00  0.00     0.143 A 
ATOM     20  H1  UNL     1      -3.520 -24.012  22.822  1.00  0.00     0.168 HD
HETATM   21  S1  UNL     1      -1.638 -25.304  20.325  1.00  0.00    -0.039 SA
BRANCH  17  22
HETATM   22  C3  UNL     1      -3.754 -22.097  20.986  1.00  0.00     0.170 C 
BRANCH  22  23
HETATM   23  C2  UNL     1      -5.158 -22.280  21.414  1.00  0.00     0.264 C 
HETATM   24  O2  UNL     1      -5.367 -22.848  22.528  1.00  0.00    -0.265 OA
BRANCH  23  25
HETATM   25  O1  UNL     1      -6.248 -21.884  20.698  1.00  0.00    -0.326 OA
HETATM   26  C1  UNL     1      -7.012 -20.762  21.086  1.00  0.00     0.213 C 
ENDBRANCH  23  25
ENDBRANCH  22  23
ENDBRANCH  17  22
BRANCH  19  27
HETATM   27  N2  UNL     1      -2.181 -26.300  22.820  1.00  0.00    -0.380 N 
ATOM     28  H22 UNL     1      -2.053 -26.202  23.826  1.00  0.00     0.158 HD
ATOM     29  H21 UNL     1      -2.199 -27.311  22.683  1.00  0.00     0.158 HD
ENDBRANCH  19  27
ENDBRANCH  13  16
ENDBRANCH  10  13
ENDBRANCH   8   9
ENDBRANCH   6   8
ENDBRANCH   1   6
BRANCH   4  30
HETATM   30  C12 UNL     1       4.574 -19.404  13.295  1.00  0.00     0.118 C 
HETATM   31  N5  UNL     1       3.980 -18.267  13.486  1.00  0.00    -0.351 N 
HETATM   32  C13 UNL     1       4.663 -17.221  12.632  1.00  0.00     0.198 C 
ATOM     33  H5  UNL     1       3.187 -18.105  14.107  1.00  0.00     0.162 HD
HETATM   34  C18 UNL     1       6.020 -17.774  12.556  1.00  0.00     0.252 C 
HETATM   35  N10 UNL     1       5.643 -19.196  12.379  1.00  0.00    -0.334 N 
ATOM     36  H10 UNL     1       6.058 -19.876  11.742  1.00  0.00     0.164 HD
BRANCH  32  37
HETATM   37  C14 UNL     1       3.827 -16.960  11.461  1.00  0.00     0.198 C 
BRANCH  37  38
HETATM   38  N6  UNL     1       2.481 -16.511  11.663  1.00  0.00    -0.285 N 
HETATM   39  C15 UNL     1       1.339 -17.029  11.260  1.00  0.00     0.130 A 
HETATM   40  C16 UNL     1       0.265 -16.249  11.706  1.00  0.00     0.127 A 
HETATM   41  N7  UNL     1       0.848 -15.259  12.381  1.00  0.00    -0.296 N 
HETATM   42  N8  UNL     1       2.146 -15.395  12.368  1.00  0.00    -0.241 N 
ATOM     43  H7  UNL     1       0.350 -14.499  12.844  1.00  0.00     0.187 HD
ATOM     44  H8  UNL     1       2.808 -14.763  12.818  1.00  0.00     0.208 HD
ENDBRANCH  37  38
ENDBRANCH  32  37
BRANCH  32  45
HETATM   45  C17 UNL     1       4.602 -15.984  13.503  1.00  0.00     0.210 C 
HETATM   46  O6  UNL     1       4.195 -16.053  14.707  1.00  0.00    -0.646 OA
HETATM   47  O7  UNL     1       4.980 -14.734  13.046  1.00  0.00    -0.646 OA
ENDBRANCH  32  45
BRANCH  34  48
HETATM   48  O8  UNL     1       6.574 -17.840  13.912  1.00  0.00    -0.361 OA
ATOM     49  H8  UNL     1       6.410 -18.707  14.264  1.00  0.00     0.213 HD
ENDBRANCH  34  48
BRANCH  34  50
HETATM   50  C19 UNL     1       7.024 -17.238  11.709  1.00  0.00     0.290 C 
HETATM   51  N9  UNL     1       7.964 -16.282  12.279  1.00  0.00    -0.057 NA
HETATM   52  O9  UNL     1       7.227 -17.475  10.503  1.00  0.00    -0.271 OA
ENDBRANCH  34  50
ENDBRANCH   4  30
TORSDOF 15
ENDMDL
MODEL 4
REMARK VINA RESULT: -9.028404350      1.870      2.491
REMARK  15 active torsions:
REMARK  status: ('A' for Active; 'I' for Inactive)
REMARK    1  A    between atoms: O1_2  and  C2_3 
REMARK    2  A    between atoms: C2_3  and  C3_5 
REMARK    3  A    between atoms: C3_5  and  C4_6 
REMARK    4  A    between atoms: C5_9  and  N2_10 
REMARK    5  A    between atoms: C6_14  and  S2_15 
REMARK    6  A    between atoms: S2_15  and  N3_18 
REMARK       I    between atoms: N3_18  and  C7_20 
REMARK    7  A    between atoms: C7_20  and  C8_22 
REMARK    8  A    between atoms: C8_22  and  N4_23 
REMARK    9  A    between atoms: N4_23  and  C9_25 
REMARK   10  A    between atoms: C11_28  and  C12_29 
REMARK   11  A    between atoms: C13_32  and  C14_33 
REMARK   12  A    between atoms: C13_32  and  C17_41 
REMARK   13  A    between atoms: C14_33  and  N6_34 
REMARK   14  A    between atoms: C18_44  and  O8_45 
REMARK   15  A    between atoms: C18_44  and  C19_47 
ROOT
HETATM    1  C9  UNL     1       2.493 -22.110  15.660  1.00  0.00     0.113 A 
HETATM    2  S3  UNL     1       1.549 -20.723  15.938  1.00  0.00    -0.076 SA
HETATM    3  C10 UNL     1       2.177 -19.471  14.982  1.00  0.00     0.075 A 
HETATM    4  C11 UNL     1       3.266 -19.848  14.227  1.00  0.00     0.057 A 
HETATM    5  S4  UNL     1       3.591 -21.484  14.541  1.00  0.00    -0.061 SA
ENDROOT
BRANCH   1   6
HETATM    6  N4  UNL     1       2.374 -23.313  16.175  1.00  0.00    -0.370 N 
ATOM      7  H4  UNL     1       2.771 -23.503  17.095  1.00  0.00     0.161 HD
BRANCH   6   8
HETATM    8  C8  UNL     1       1.697 -24.363  15.470  1.00  0.00     0.224 C 
BRANCH   8   9
HETATM    9  C7  UNL     1       0.266 -24.329  15.782  1.00  0.00     0.248 C 
HETATM   10  N3  UNL     1      -0.103 -24.683  17.126  1.00  0.00    -0.248 N 
ATOM     11  H3  UNL     1       0.602 -24.941  17.817  1.00  0.00     0.182 HD
HETATM   12  O5  UNL     1      -0.568 -24.010  14.923  1.00  0.00    -0.271 OA
BRANCH  10  13
HETATM   13  S2  UNL     1      -1.779 -24.655  17.524  1.00  0.00     0.273 S 
HETATM   14  O3  UNL     1      -2.534 -25.640  16.726  1.00  0.00    -0.200 OA
HETATM   15  O4  UNL     1      -2.275 -23.250  17.327  1.00  0.00    -0.200 OA
BRANCH  13  16
HETATM   16  C6  UNL     1      -1.904 -24.996  19.250  1.00  0.00     0.146 A 
HETATM   17  C4  UNL     1      -2.422 -24.259  20.276  1.00  0.00     0.051 A 
HETATM   18  N1  UNL     1      -2.413 -24.772  21.474  1.00  0.00    -0.338 N 
HETATM   19  C5  UNL     1      -1.898 -25.991  21.646  1.00  0.00     0.143 A 
ATOM     20  H1  UNL     1      -2.791 -24.251  22.264  1.00  0.00     0.168 HD
HETATM   21  S1  UNL     1      -1.411 -26.434  20.080  1.00  0.00    -0.039 SA
BRANCH  17  22
HETATM   22  C3  UNL     1      -2.954 -22.855  20.002  1.00  0.00     0.170 C 
BRANCH  22  23
HETATM   23  C2  UNL     1      -4.035 -22.503  20.949  1.00  0.00     0.264 C 
HETATM   24  O2  UNL     1      -3.777 -22.561  22.189  1.00  0.00    -0.265 OA
BRANCH  23  25
HETATM   25  O1  UNL     1      -5.292 -22.120  20.589  1.00  0.00    -0.326 OA
HETATM   26  C1  UNL     1      -6.037 -21.214  21.375  1.00  0.00     0.213 C 
ENDBRANCH  23  25
ENDBRANCH  22  23
ENDBRANCH  17  22
BRANCH  19  27
HETATM   27  N2  UNL     1      -1.805 -26.656  22.783  1.00  0.00    -0.380 N 
ATOM     28  H22 UNL     1      -2.188 -26.438  23.702  1.00  0.00     0.158 HD
ATOM     29  H21 UNL     1      -1.316 -27.539  22.936  1.00  0.00     0.158 HD
ENDBRANCH  19  27
ENDBRANCH  13  16
ENDBRANCH  10  13
ENDBRANCH   8   9
ENDBRANCH   6   8
ENDBRANCH   1   6
BRANCH   4  30
HETATM   30  C12 UNL     1       3.965 -18.908  13.323  1.00  0.00     0.118 C 
HETATM   31  N5  UNL     1       3.926 -17.617  13.435  1.00  0.00    -0.351 N 
HETATM   32  C13 UNL     1       4.760 -17.015  12.325  1.00  0.00     0.198 C 
ATOM     33  H5  UNL     1       3.418 -17.096  14.150  1.00  0.00     0.162 HD
HETATM   34  C18 UNL     1       5.737 -18.087  12.104  1.00  0.00     0.252 C 
HETATM   35  N10 UNL     1       4.800 -19.231  12.217  1.00  0.00    -0.334 N 
ATOM     36  H10 UNL     1       4.763 -20.065  11.631  1.00  0.00     0.164 HD
BRANCH  32  37
HETATM   37  C14 UNL     1       3.859 -16.512  11.288  1.00  0.00     0.198 C 
BRANCH  37  38
HETATM   38  N6  UNL     1       2.461 -16.404  11.585  1.00  0.00    -0.285 N 
HETATM   39  C15 UNL     1       1.805 -15.504  12.288  1.00  0.00     0.130 A 
HETATM   40  C16 UNL     1       0.435 -15.797  12.299  1.00  0.00     0.127 A 
HETATM   41  N7  UNL     1       0.342 -16.908  11.570  1.00  0.00    -0.296 N 
HETATM   42  N8  UNL     1       1.517 -17.280  11.142  1.00  0.00    -0.241 N 
ATOM     43  H7  UNL     1      -0.529 -17.402  11.373  1.00  0.00     0.187 HD
ATOM     44  H8  UNL     1       1.700 -18.099  10.563  1.00  0.00     0.208 HD
ENDBRANCH  37  38
ENDBRANCH  32  37
BRANCH  32  45
HETATM   45  C17 UNL     1       5.384 -15.807  12.992  1.00  0.00     0.210 C 
HETATM   46  O6  UNL     1       6.542 -15.399  12.652  1.00  0.00    -0.646 OA
HETATM   47  O7  UNL     1       4.743 -15.093  13.988  1.00  0.00    -0.646 OA
ENDBRANCH  32  45
BRANCH  34  48
HETATM   48  O8  UNL     1       6.502 -18.283  13.339  1.00  0.00    -0.361 OA
ATOM     49  H8  UNL     1       7.042 -19.059  13.241  1.00  0.00     0.213 HD
ENDBRANCH  34  48
BRANCH  34  50
HETATM   50  C19 UNL     1       6.658 -18.080  11.026  1.00  0.00     0.290 C 
HETATM   51  N9  UNL     1       8.036 -18.464  11.298  1.00  0.00    -0.057 NA
HETATM   52  O9  UNL     1       6.452 -17.783   9.834  1.00  0.00    -0.271 OA
ENDBRANCH  34  50
ENDBRANCH   4  30
TORSDOF 15
ENDMDL
MODEL 5
REMARK VINA RESULT: -8.697432276      1.755      2.199
REMARK  15 active torsions:
REMARK  status: ('A' for Active; 'I' for Inactive)
REMARK    1  A    between atoms: O1_2  and  C2_3 
REMARK    2  A    between atoms: C2_3  and  C3_5 
REMARK    3  A    between atoms: C3_5  and  C4_6 
REMARK    4  A    between atoms: C5_9  and  N2_10 
REMARK    5  A    between atoms: C6_14  and  S2_15 
REMARK    6  A    between atoms: S2_15  and  N3_18 
REMARK       I    between atoms: N3_18  and  C7_20 
REMARK    7  A    between atoms: C7_20  and  C8_22 
REMARK    8  A    between atoms: C8_22  and  N4_23 
REMARK    9  A    between atoms: N4_23  and  C9_25 
REMARK   10  A    between atoms: C11_28  and  C12_29 
REMARK   11  A    between atoms: C13_32  and  C14_33 
REMARK   12  A    between atoms: C13_32  and  C17_41 
REMARK   13  A    between atoms: C14_33  and  N6_34 
REMARK   14  A    between atoms: C18_44  and  O8_45 
REMARK   15  A    between atoms: C18_44  and  C19_47 
ROOT
HETATM    1  C9  UNL     1       2.561 -22.904  14.511  1.00  0.00     0.113 A 
HETATM    2  S3  UNL     1       4.227 -23.227  14.398  1.00  0.00    -0.076 SA
HETATM    3  C10 UNL     1       4.998 -21.798  13.912  1.00  0.00     0.075 A 
HETATM    4  C11 UNL     1       4.134 -20.741  13.727  1.00  0.00     0.057 A 
HETATM    5  S4  UNL     1       2.559 -21.277  14.066  1.00  0.00    -0.061 SA
ENDROOT
BRANCH   1   6
HETATM    6  N4  UNL     1       1.581 -23.708  14.857  1.00  0.00    -0.370 N 
ATOM      7  H4  UNL     1       1.709 -24.341  15.646  1.00  0.00     0.161 HD
BRANCH   6   8
HETATM    8  C8  UNL     1       0.334 -23.713  14.147  1.00  0.00     0.224 C 
BRANCH   8   9
HETATM    9  C7  UNL     1      -0.779 -23.675  15.099  1.00  0.00     0.248 C 
HETATM   10  N3  UNL     1      -0.558 -22.931  16.310  1.00  0.00    -0.248 N 
ATOM     11  H3  UNL     1       0.328 -22.458  16.486  1.00  0.00     0.182 HD
HETATM   12  O5  UNL     1      -1.845 -24.257  14.859  1.00  0.00    -0.271 OA
BRANCH  10  13
HETATM   13  S2  UNL     1      -1.847 -22.870  17.452  1.00  0.00     0.273 S 
HETATM   14  O3  UNL     1      -3.154 -22.764  16.777  1.00  0.00    -0.200 OA
HETATM   15  O4  UNL     1      -1.582 -21.719  18.382  1.00  0.00    -0.200 OA
BRANCH  13  16
HETATM   16  C6  UNL     1      -1.744 -24.338  18.425  1.00  0.00     0.146 A 
HETATM   17  C4  UNL     1      -2.149 -24.599  19.702  1.00  0.00     0.051 A 
HETATM   18  N1  UNL     1      -1.974 -25.801  20.174  1.00  0.00    -0.338 N 
HETATM   19  C5  UNL     1      -1.407 -26.722  19.391  1.00  0.00     0.143 A 
ATOM     20  H1  UNL     1      -2.265 -26.033  21.123  1.00  0.00     0.168 HD
HETATM   21  S1  UNL     1      -1.109 -25.877  17.948  1.00  0.00    -0.039 SA
BRANCH  17  22
HETATM   22  C3  UNL     1      -2.751 -23.479  20.546  1.00  0.00     0.170 C 
BRANCH  22  23
HETATM   23  C2  UNL     1      -3.241 -23.997  21.843  1.00  0.00     0.264 C 
HETATM   24  O2  UNL     1      -2.491 -24.795  22.482  1.00  0.00    -0.265 OA
BRANCH  23  25
HETATM   25  O1  UNL     1      -4.441 -23.679  22.405  1.00  0.00    -0.326 OA
HETATM   26  C1  UNL     1      -5.239 -22.634  21.890  1.00  0.00     0.213 C 
ENDBRANCH  23  25
ENDBRANCH  22  23
ENDBRANCH  17  22
BRANCH  19  27
HETATM   27  N2  UNL     1      -1.153 -27.978  19.706  1.00  0.00    -0.380 N 
ATOM     28  H22 UNL     1      -1.736 -28.809  19.608  1.00  0.00     0.158 HD
ATOM     29  H21 UNL     1      -0.292 -28.344  20.114  1.00  0.00     0.158 HD
ENDBRANCH  19  27
ENDBRANCH  13  16
ENDBRANCH  10  13
ENDBRANCH   8   9
ENDBRANCH   6   8
ENDBRANCH   1   6
BRANCH   4  30
HETATM   30  C12 UNL     1       4.600 -19.402  13.304  1.00  0.00     0.118 C 
HETATM   31  N5  UNL     1       4.004 -18.290  13.605  1.00  0.00    -0.351 N 
HETATM   32  C13 UNL     1       4.781 -17.148  12.987  1.00  0.00     0.198 C 
ATOM     33  H5  UNL     1       3.155 -18.201  14.162  1.00  0.00     0.162 HD
HETATM   34  C18 UNL     1       6.133 -17.719  12.961  1.00  0.00     0.252 C 
HETATM   35  N10 UNL     1       5.758 -19.090  12.538  1.00  0.00    -0.334 N 
ATOM     36  H10 UNL     1       6.227 -19.679  11.850  1.00  0.00     0.164 HD
BRANCH  32  37
HETATM   37  C14 UNL     1       4.069 -16.695  11.792  1.00  0.00     0.198 C 
BRANCH  37  38
HETATM   38  N6  UNL     1       2.659 -16.458  11.881  1.00  0.00    -0.285 N 
HETATM   39  C15 UNL     1       1.644 -17.187  11.464  1.00  0.00     0.130 A 
HETATM   40  C16 UNL     1       0.431 -16.560  11.780  1.00  0.00     0.127 A 
HETATM   41  N7  UNL     1       0.803 -15.438  12.395  1.00  0.00    -0.296 N 
HETATM   42  N8  UNL     1       2.104 -15.360  12.465  1.00  0.00    -0.241 N 
ATOM     43  H7  UNL     1       0.160 -14.736  12.761  1.00  0.00     0.187 HD
ATOM     44  H8  UNL     1       2.624 -14.595  12.892  1.00  0.00     0.208 HD
ENDBRANCH  37  38
ENDBRANCH  32  37
BRANCH  32  45
HETATM   45  C17 UNL     1       4.648 -16.052  14.023  1.00  0.00     0.210 C 
HETATM   46  O6  UNL     1       4.896 -14.839  13.726  1.00  0.00    -0.646 OA
HETATM   47  O7  UNL     1       4.254 -16.304  15.325  1.00  0.00    -0.646 OA
ENDBRANCH  32  45
BRANCH  34  48
HETATM   48  O8  UNL     1       6.547 -18.000  14.340  1.00  0.00    -0.361 OA
ATOM     49  H8  UNL     1       6.007 -17.486  14.929  1.00  0.00     0.213 HD
ENDBRANCH  34  48
BRANCH  34  50
HETATM   50  C19 UNL     1       7.223 -17.091  12.306  1.00  0.00     0.290 C 
HETATM   51  N9  UNL     1       7.710 -17.680  11.067  1.00  0.00    -0.057 NA
HETATM   52  O9  UNL     1       7.847 -16.069  12.649  1.00  0.00    -0.271 OA
ENDBRANCH  34  50
ENDBRANCH   4  30
TORSDOF 15
ENDMDL
