MODEL 1
REMARK VINA RESULT: -7.625290644      0.000      0.000
REMARK  11 active torsions:
REMARK  status: ('A' for Active; 'I' for Inactive)
REMARK    1  A    between atoms: C2_2  and  C3_3 
REMARK    2  A    between atoms: C3_3  and  C4_4 
REMARK    3  A    between atoms: C4_4  and  C5_5 
REMARK    4  A    between atoms: C7_10  and  C8_11 
REMARK    5  A    between atoms: C8_11  and  C9_12 
REMARK    6  A    between atoms: C12_15  and  O2_16 
REMARK    7  A    between atoms: O2_16  and  C13_17 
REMARK    8  A    between atoms: C21_33  and  C22_34 
REMARK    9  A    between atoms: C22_34  and  C23_35 
REMARK   10  A    between atoms: C23_35  and  C24_36 
REMARK   11  A    between atoms: C24_36  and  N5_37 
ROOT
HETATM    1  C13 UNL     1       1.858  -8.557   9.323  1.00  0.00     0.299 C 
HETATM    2  C14 UNL     1       1.438  -7.141   9.224  1.00  0.00     0.085 C 
HETATM    3  N2  UNL     1       1.115  -6.032   9.134  1.00  0.00    -0.195 NA
ENDROOT
BRANCH   1   4
HETATM    4  O2  UNL     1       1.661  -8.946  10.652  1.00  0.00    -0.338 OA
BRANCH   4   5
HETATM    5  C12 UNL     1       1.166 -10.213  10.968  1.00  0.00     0.071 A 
HETATM    6  C11 UNL     1       0.078 -10.366  11.787  1.00  0.00     0.037 A 
HETATM    7  C10 UNL     1      -0.385 -11.625  12.079  1.00  0.00     0.011 A 
HETATM    8  C9  UNL     1       0.194 -12.775  11.584  1.00  0.00    -0.035 A 
HETATM    9  C16 UNL     1       1.289 -12.614  10.759  1.00  0.00     0.043 A 
HETATM   10  C15 UNL     1       1.764 -11.344  10.458  1.00  0.00     0.061 A 
HETATM   11 CL1  UNL     1       2.091 -14.011  10.083  1.00  0.00    -0.084 Cl
BRANCH   8  12
HETATM   12  C8  UNL     1      -0.353 -14.085  11.937  1.00  0.00     0.056 C 
BRANCH  12  13
HETATM   13  C7  UNL     1       0.633 -15.001  12.625  1.00  0.00     0.100 C 
HETATM   14  C6  UNL     1       0.528 -14.728  14.083  1.00  0.00     0.224 C 
HETATM   15  N1  UNL     1       1.626 -14.462  14.931  1.00  0.00    -0.347 N 
HETATM   16  O1  UNL     1      -0.655 -14.743  14.568  1.00  0.00    -0.273 OA
HETATM   17  C5  UNL     1       2.897 -15.156  14.886  1.00  0.00     0.176 C 
ATOM     18  H1  UNL     1       1.516 -13.726  15.629  1.00  0.00     0.163 HD
HETATM   19  C26 UNL     1       3.152 -15.966  16.076  1.00  0.00     0.241 C 
HETATM   20  N8  UNL     1       3.577 -17.307  16.115  1.00  0.00    -0.346 N 
HETATM   21  O5  UNL     1       2.972 -15.407  17.213  1.00  0.00    -0.271 OA
HETATM   22  C21 UNL     1       4.481 -17.953  15.217  1.00  0.00     0.176 C 
ATOM     23  H8  UNL     1       3.199 -17.881  16.868  1.00  0.00     0.163 HD
HETATM   24  C20 UNL     1       4.020 -19.310  14.818  1.00  0.00     0.240 C 
HETATM   25  N4  UNL     1       3.194 -19.579  13.694  1.00  0.00    -0.351 N 
HETATM   26  O4  UNL     1       4.395 -20.274  15.535  1.00  0.00    -0.271 OA
HETATM   27  C19 UNL     1       2.036 -18.808  13.309  1.00  0.00     0.225 C 
ATOM     28  H4  UNL     1       3.438 -20.381  13.113  1.00  0.00     0.163 HD
HETATM   29  C18 UNL     1       2.165 -18.207  11.975  1.00  0.00     0.235 C 
HETATM   30  N3  UNL     1       1.466 -17.059  11.567  1.00  0.00    -0.359 N 
HETATM   31  O3  UNL     1       2.948 -18.742  11.132  1.00  0.00    -0.272 OA
HETATM   32  C17 UNL     1       0.382 -16.454  12.313  1.00  0.00     0.137 C 
ATOM     33  H3  UNL     1       1.739 -16.623  10.687  1.00  0.00     0.162 HD
BRANCH  17  34
HETATM   34  C4  UNL     1       3.960 -14.155  14.574  1.00  0.00     0.035 C 
BRANCH  34  35
HETATM   35  C3  UNL     1       4.046 -13.833  13.099  1.00  0.00     0.002 C 
BRANCH  35  36
HETATM   36  C2  UNL     1       4.228 -12.323  12.893  1.00  0.00    -0.004 C 
HETATM   37  C1  UNL     1       3.297 -11.604  13.839  1.00  0.00     0.005 C 
ENDBRANCH  35  36
ENDBRANCH  34  35
ENDBRANCH  17  34
BRANCH  22  38
HETATM   38  C22 UNL     1       5.871 -18.114  15.810  1.00  0.00     0.036 C 
BRANCH  38  39
HETATM   39  C23 UNL     1       6.672 -16.836  15.689  1.00  0.00     0.022 C 
BRANCH  39  40
HETATM   40  C24 UNL     1       6.768 -16.454  14.209  1.00  0.00     0.122 C 
BRANCH  40  41
HETATM   41  N5  UNL     1       7.379 -15.174  14.030  1.00  0.00    -0.367 N 
HETATM   42  C25 UNL     1       7.538 -14.638  12.881  1.00  0.00     0.196 C 
HETATM   43  N6  UNL     1       8.154 -13.362  12.781  1.00  0.00    -0.067 NA
HETATM   44  N7  UNL     1       7.128 -15.246  11.653  1.00  0.00    -0.067 NA
ATOM     45  H5  UNL     1       7.702 -14.668  14.855  1.00  0.00     0.161 HD
ENDBRANCH  40  41
ENDBRANCH  39  40
ENDBRANCH  38  39
ENDBRANCH  22  38
ENDBRANCH  12  13
ENDBRANCH   8  12
ENDBRANCH   4   5
ENDBRANCH   1   4
TORSDOF 11
ENDMDL
MODEL 2
REMARK VINA RESULT: -7.542095448      0.982      1.098
REMARK  11 active torsions:
REMARK  status: ('A' for Active; 'I' for Inactive)
REMARK    1  A    between atoms: C2_2  and  C3_3 
REMARK    2  A    between atoms: C3_3  and  C4_4 
REMARK    3  A    between atoms: C4_4  and  C5_5 
REMARK    4  A    between atoms: C7_10  and  C8_11 
REMARK    5  A    between atoms: C8_11  and  C9_12 
REMARK    6  A    between atoms: C12_15  and  O2_16 
REMARK    7  A    between atoms: O2_16  and  C13_17 
REMARK    8  A    between atoms: C21_33  and  C22_34 
REMARK    9  A    between atoms: C22_34  and  C23_35 
REMARK   10  A    between atoms: C23_35  and  C24_36 
REMARK   11  A    between atoms: C24_36  and  N5_37 
ROOT
HETATM    1  C13 UNL     1       1.597  -9.466   9.329  1.00  0.00     0.299 C 
HETATM    2  C14 UNL     1       1.511  -7.990   9.259  1.00  0.00     0.085 C 
HETATM    3  N2  UNL     1       1.454  -6.835   9.192  1.00  0.00    -0.195 NA
ENDROOT
BRANCH   1   4
HETATM    4  O2  UNL     1       0.874  -9.861  10.459  1.00  0.00    -0.338 OA
BRANCH   4   5
HETATM    5  C12 UNL     1       0.714 -11.210  10.781  1.00  0.00     0.071 A 
HETATM    6  C11 UNL     1      -0.356 -11.643  11.519  1.00  0.00     0.037 A 
HETATM    7  C10 UNL     1      -0.485 -12.977  11.818  1.00  0.00     0.011 A 
HETATM    8  C9  UNL     1       0.422 -13.931  11.409  1.00  0.00    -0.035 A 
HETATM    9  C16 UNL     1       1.497 -13.490  10.664  1.00  0.00     0.043 A 
HETATM   10  C15 UNL     1       1.635 -12.142  10.357  1.00  0.00     0.061 A 
HETATM   11 CL1  UNL     1       2.699 -14.625  10.100  1.00  0.00    -0.084 Cl
BRANCH   8  12
HETATM   12  C8  UNL     1       0.221 -15.336  11.764  1.00  0.00     0.056 C 
BRANCH  12  13
HETATM   13  C7  UNL     1       1.309 -15.913  12.641  1.00  0.00     0.100 C 
HETATM   14  C6  UNL     1       0.931 -15.614  14.047  1.00  0.00     0.224 C 
HETATM   15  N1  UNL     1       1.787 -15.018  15.000  1.00  0.00    -0.347 N 
HETATM   16  O1  UNL     1      -0.262 -15.934  14.383  1.00  0.00    -0.273 OA
HETATM   17  C5  UNL     1       3.190 -15.336  15.169  1.00  0.00     0.176 C 
ATOM     18  H1  UNL     1       1.387 -14.310  15.616  1.00  0.00     0.163 HD
HETATM   19  C26 UNL     1       3.482 -15.990  16.444  1.00  0.00     0.241 C 
HETATM   20  N8  UNL     1       4.240 -17.158  16.644  1.00  0.00    -0.346 N 
HETATM   21  O5  UNL     1       3.000 -15.452  17.500  1.00  0.00    -0.271 OA
HETATM   22  C21 UNL     1       5.401 -17.569  15.920  1.00  0.00     0.176 C 
ATOM     23  H8  UNL     1       3.926 -17.780  17.389  1.00  0.00     0.163 HD
HETATM   24  C20 UNL     1       5.380 -19.017  15.580  1.00  0.00     0.240 C 
HETATM   25  N4  UNL     1       4.823 -19.554  14.388  1.00  0.00    -0.351 N 
HETATM   26  O4  UNL     1       5.894 -19.808  16.414  1.00  0.00    -0.271 OA
HETATM   27  C19 UNL     1       3.568 -19.150  13.802  1.00  0.00     0.225 C 
ATOM     28  H4  UNL     1       5.352 -20.283  13.909  1.00  0.00     0.163 HD
HETATM   29  C18 UNL     1       3.718 -18.598  12.449  1.00  0.00     0.235 C 
HETATM   30  N3  UNL     1       2.802 -17.707  11.866  1.00  0.00    -0.359 N 
HETATM   31  O3  UNL     1       4.726 -18.934  11.756  1.00  0.00    -0.272 OA
HETATM   32  C17 UNL     1       1.502 -17.391  12.420  1.00  0.00     0.137 C 
ATOM     33  H3  UNL     1       3.070 -17.253  10.994  1.00  0.00     0.162 HD
BRANCH  17  34
HETATM   34  C4  UNL     1       3.980 -14.096  14.910  1.00  0.00     0.035 C 
BRANCH  34  35
HETATM   35  C3  UNL     1       4.190 -13.833  13.435  1.00  0.00     0.002 C 
BRANCH  35  36
HETATM   36  C2  UNL     1       4.092 -12.329  13.143  1.00  0.00    -0.004 C 
HETATM   37  C1  UNL     1       2.901 -11.781  13.890  1.00  0.00     0.005 C 
ENDBRANCH  35  36
ENDBRANCH  34  35
ENDBRANCH  17  34
BRANCH  22  38
HETATM   38  C22 UNL     1       6.685 -17.314  16.691  1.00  0.00     0.036 C 
BRANCH  38  39
HETATM   39  C23 UNL     1       7.755 -16.723  15.799  1.00  0.00     0.022 C 
BRANCH  39  40
HETATM   40  C24 UNL     1       7.095 -16.210  14.515  1.00  0.00     0.122 C 
BRANCH  40  41
HETATM   41  N5  UNL     1       7.554 -14.900  14.171  1.00  0.00    -0.367 N 
HETATM   42  C25 UNL     1       7.717 -14.520  12.962  1.00  0.00     0.196 C 
HETATM   43  N6  UNL     1       8.176 -13.203  12.696  1.00  0.00    -0.067 NA
HETATM   44  N7  UNL     1       7.462 -15.348  11.824  1.00  0.00    -0.067 NA
ATOM     45  H5  UNL     1       7.759 -14.242  14.922  1.00  0.00     0.161 HD
ENDBRANCH  40  41
ENDBRANCH  39  40
ENDBRANCH  38  39
ENDBRANCH  22  38
ENDBRANCH  12  13
ENDBRANCH   8  12
ENDBRANCH   4   5
ENDBRANCH   1   4
TORSDOF 11
ENDMDL
MODEL 3
REMARK VINA RESULT: -7.512242184      0.758      1.011
REMARK  11 active torsions:
REMARK  status: ('A' for Active; 'I' for Inactive)
REMARK    1  A    between atoms: C2_2  and  C3_3 
REMARK    2  A    between atoms: C3_3  and  C4_4 
REMARK    3  A    between atoms: C4_4  and  C5_5 
REMARK    4  A    between atoms: C7_10  and  C8_11 
REMARK    5  A    between atoms: C8_11  and  C9_12 
REMARK    6  A    between atoms: C12_15  and  O2_16 
REMARK    7  A    between atoms: O2_16  and  C13_17 
REMARK    8  A    between atoms: C21_33  and  C22_34 
REMARK    9  A    between atoms: C22_34  and  C23_35 
REMARK   10  A    between atoms: C23_35  and  C24_36 
REMARK   11  A    between atoms: C24_36  and  N5_37 
ROOT
HETATM    1  C13 UNL     1       1.785  -8.229   9.341  1.00  0.00     0.299 C 
HETATM    2  C14 UNL     1       1.350  -6.815   9.376  1.00  0.00     0.085 C 
HETATM    3  N2  UNL     1       1.014  -5.706   9.389  1.00  0.00    -0.195 NA
ENDROOT
BRANCH   1   4
HETATM    4  O2  UNL     1       1.701  -8.711  10.651  1.00  0.00    -0.338 OA
BRANCH   4   5
HETATM    5  C12 UNL     1       1.235 -10.000  10.919  1.00  0.00     0.071 A 
HETATM    6  C11 UNL     1       0.135 -10.209  11.710  1.00  0.00     0.037 A 
HETATM    7  C10 UNL     1      -0.298 -11.488  11.954  1.00  0.00     0.011 A 
HETATM    8  C9  UNL     1       0.323 -12.605  11.436  1.00  0.00    -0.035 A 
HETATM    9  C16 UNL     1       1.429 -12.389  10.640  1.00  0.00     0.043 A 
HETATM   10  C15 UNL     1       1.874 -11.098  10.388  1.00  0.00     0.061 A 
HETATM   11 CL1  UNL     1       2.285 -13.742   9.939  1.00  0.00    -0.084 Cl
BRANCH   8  12
HETATM   12  C8  UNL     1      -0.194 -13.940  11.739  1.00  0.00     0.056 C 
BRANCH  12  13
HETATM   13  C7  UNL     1       0.781 -14.827  12.479  1.00  0.00     0.100 C 
HETATM   14  C6  UNL     1       0.791 -14.369  13.893  1.00  0.00     0.224 C 
HETATM   15  N1  UNL     1       1.957 -14.073  14.633  1.00  0.00    -0.347 N 
HETATM   16  O1  UNL     1      -0.356 -14.245  14.445  1.00  0.00    -0.273 OA
HETATM   17  C5  UNL     1       3.179 -14.850  14.602  1.00  0.00     0.176 C 
ATOM     18  H1  UNL     1       1.937 -13.250  15.236  1.00  0.00     0.163 HD
HETATM   19  C26 UNL     1       3.466 -15.521  15.870  1.00  0.00     0.241 C 
HETATM   20  N8  UNL     1       3.813 -16.872  16.055  1.00  0.00    -0.346 N 
HETATM   21  O5  UNL     1       3.395 -14.814  16.934  1.00  0.00    -0.271 OA
HETATM   22  C21 UNL     1       4.615 -17.683  15.195  1.00  0.00     0.176 C 
ATOM     23  H8  UNL     1       3.453 -17.321  16.897  1.00  0.00     0.163 HD
HETATM   24  C20 UNL     1       4.049 -19.046  15.002  1.00  0.00     0.240 C 
HETATM   25  N4  UNL     1       3.135 -19.397  13.973  1.00  0.00    -0.351 N 
HETATM   26  O4  UNL     1       4.414 -19.936  15.814  1.00  0.00    -0.271 OA
HETATM   27  C19 UNL     1       2.001 -18.605  13.562  1.00  0.00     0.225 C 
ATOM     28  H4  UNL     1       3.292 -20.279  13.486  1.00  0.00     0.163 HD
HETATM   29  C18 UNL     1       2.075 -18.184  12.156  1.00  0.00     0.235 C 
HETATM   30  N3  UNL     1       1.418 -17.052  11.647  1.00  0.00    -0.359 N 
HETATM   31  O3  UNL     1       2.767 -18.871  11.344  1.00  0.00    -0.272 OA
HETATM   32  C17 UNL     1       0.425 -16.288  12.371  1.00  0.00     0.137 C 
ATOM     33  H3  UNL     1       1.657 -16.748  10.703  1.00  0.00     0.162 HD
BRANCH  17  34
HETATM   34  C4  UNL     1       4.275 -13.969  14.102  1.00  0.00     0.035 C 
BRANCH  34  35
HETATM   35  C3  UNL     1       4.539 -14.145  12.623  1.00  0.00     0.002 C 
BRANCH  35  36
HETATM   36  C2  UNL     1       4.988 -12.816  12.001  1.00  0.00    -0.004 C 
HETATM   37  C1  UNL     1       5.769 -13.124  10.747  1.00  0.00     0.005 C 
ENDBRANCH  35  36
ENDBRANCH  34  35
ENDBRANCH  17  34
BRANCH  22  38
HETATM   38  C22 UNL     1       6.029 -17.862  15.721  1.00  0.00     0.036 C 
BRANCH  38  39
HETATM   39  C23 UNL     1       7.054 -17.646  14.628  1.00  0.00     0.022 C 
BRANCH  39  40
HETATM   40  C24 UNL     1       7.226 -16.141  14.405  1.00  0.00     0.122 C 
BRANCH  40  41
HETATM   41  N5  UNL     1       7.951 -15.862  13.206  1.00  0.00    -0.367 N 
HETATM   42  C25 UNL     1       8.363 -14.691  12.902  1.00  0.00     0.196 C 
HETATM   43  N6  UNL     1       9.078 -14.490  11.692  1.00  0.00    -0.067 NA
HETATM   44  N7  UNL     1       8.150 -13.535  13.717  1.00  0.00    -0.067 NA
ATOM     45  H5  UNL     1       8.148 -16.630  12.564  1.00  0.00     0.161 HD
ENDBRANCH  40  41
ENDBRANCH  39  40
ENDBRANCH  38  39
ENDBRANCH  22  38
ENDBRANCH  12  13
ENDBRANCH   8  12
ENDBRANCH   4   5
ENDBRANCH   1   4
TORSDOF 11
ENDMDL
MODEL 4
REMARK VINA RESULT: -7.423409375      0.979      1.344
REMARK  11 active torsions:
REMARK  status: ('A' for Active; 'I' for Inactive)
REMARK    1  A    between atoms: C2_2  and  C3_3 
REMARK    2  A    between atoms: C3_3  and  C4_4 
REMARK    3  A    between atoms: C4_4  and  C5_5 
REMARK    4  A    between atoms: C7_10  and  C8_11 
REMARK    5  A    between atoms: C8_11  and  C9_12 
REMARK    6  A    between atoms: C12_15  and  O2_16 
REMARK    7  A    between atoms: O2_16  and  C13_17 
REMARK    8  A    between atoms: C21_33  and  C22_34 
REMARK    9  A    between atoms: C22_34  and  C23_35 
REMARK   10  A    between atoms: C23_35  and  C24_36 
REMARK   11  A    between atoms: C24_36  and  N5_37 
ROOT
HETATM    1  C13 UNL     1       1.865  -8.574   9.204  1.00  0.00     0.299 C 
HETATM    2  C14 UNL     1       1.445  -7.156   9.148  1.00  0.00     0.085 C 
HETATM    3  N2  UNL     1       1.120  -6.045   9.090  1.00  0.00    -0.195 NA
ENDROOT
BRANCH   1   4
HETATM    4  O2  UNL     1       1.724  -8.987  10.532  1.00  0.00    -0.338 OA
BRANCH   4   5
HETATM    5  C12 UNL     1       1.219 -10.250  10.848  1.00  0.00     0.071 A 
HETATM    6  C11 UNL     1       0.076 -10.394  11.590  1.00  0.00     0.037 A 
HETATM    7  C10 UNL     1      -0.395 -11.650  11.883  1.00  0.00     0.011 A 
HETATM    8  C9  UNL     1       0.230 -12.805  11.463  1.00  0.00    -0.035 A 
HETATM    9  C16 UNL     1       1.380 -12.654  10.715  1.00  0.00     0.043 A 
HETATM   10  C15 UNL     1       1.863 -11.387  10.414  1.00  0.00     0.061 A 
HETATM   11 CL1  UNL     1       2.242 -14.059  10.137  1.00  0.00    -0.084 Cl
BRANCH   8  12
HETATM   12  C8  UNL     1      -0.329 -14.111  11.812  1.00  0.00     0.056 C 
BRANCH  12  13
HETATM   13  C7  UNL     1       0.631 -15.016  12.551  1.00  0.00     0.100 C 
HETATM   14  C6  UNL     1       0.694 -14.523  13.952  1.00  0.00     0.224 C 
HETATM   15  N1  UNL     1       1.889 -14.253  14.655  1.00  0.00    -0.347 N 
HETATM   16  O1  UNL     1      -0.433 -14.341  14.529  1.00  0.00    -0.273 OA
HETATM   17  C5  UNL     1       3.080 -15.077  14.614  1.00  0.00     0.176 C 
ATOM     18  H1  UNL     1       1.916 -13.416  15.236  1.00  0.00     0.163 HD
HETATM   19  C26 UNL     1       3.374 -15.726  15.891  1.00  0.00     0.241 C 
HETATM   20  N8  UNL     1       3.675 -17.084  16.103  1.00  0.00    -0.346 N 
HETATM   21  O5  UNL     1       3.358 -14.991  16.937  1.00  0.00    -0.271 OA
HETATM   22  C21 UNL     1       4.424 -17.947  15.245  1.00  0.00     0.176 C 
ATOM     23  H8  UNL     1       3.320 -17.498  16.965  1.00  0.00     0.163 HD
HETATM   24  C20 UNL     1       3.802 -19.291  15.102  1.00  0.00     0.240 C 
HETATM   25  N4  UNL     1       2.849 -19.633  14.105  1.00  0.00    -0.351 N 
HETATM   26  O4  UNL     1       4.154 -20.175  15.927  1.00  0.00    -0.271 OA
HETATM   27  C19 UNL     1       1.736 -18.809  13.701  1.00  0.00     0.225 C 
ATOM     28  H4  UNL     1       2.960 -20.533  13.638  1.00  0.00     0.163 HD
HETATM   29  C18 UNL     1       1.789 -18.427  12.284  1.00  0.00     0.235 C 
HETATM   30  N3  UNL     1       1.162 -17.284  11.761  1.00  0.00    -0.359 N 
HETATM   31  O3  UNL     1       2.434 -19.160  11.473  1.00  0.00    -0.272 OA
HETATM   32  C17 UNL     1       0.217 -16.464  12.490  1.00  0.00     0.137 C 
ATOM     33  H3  UNL     1       1.388 -17.013  10.805  1.00  0.00     0.162 HD
BRANCH  17  34
HETATM   34  C4  UNL     1       4.195 -14.252  14.064  1.00  0.00     0.035 C 
BRANCH  34  35
HETATM   35  C3  UNL     1       3.742 -12.881  13.613  1.00  0.00     0.002 C 
BRANCH  35  36
HETATM   36  C2  UNL     1       4.550 -12.429  12.389  1.00  0.00    -0.004 C 
HETATM   37  C1  UNL     1       5.825 -13.234  12.343  1.00  0.00     0.005 C 
ENDBRANCH  35  36
ENDBRANCH  34  35
ENDBRANCH  17  34
BRANCH  22  38
HETATM   38  C22 UNL     1       5.844 -18.166  15.740  1.00  0.00     0.036 C 
BRANCH  38  39
HETATM   39  C23 UNL     1       6.773 -17.080  15.243  1.00  0.00     0.022 C 
BRANCH  39  40
HETATM   40  C24 UNL     1       7.223 -17.430  13.821  1.00  0.00     0.122 C 
BRANCH  40  41
HETATM   41  N5  UNL     1       6.452 -16.738  12.836  1.00  0.00    -0.367 N 
HETATM   42  C25 UNL     1       5.756 -17.343  11.951  1.00  0.00     0.196 C 
HETATM   43  N6  UNL     1       5.016 -16.589  11.004  1.00  0.00    -0.067 NA
HETATM   44  N7  UNL     1       5.666 -18.766  11.844  1.00  0.00    -0.067 NA
ATOM     45  H5  UNL     1       6.458 -15.718  12.840  1.00  0.00     0.161 HD
ENDBRANCH  40  41
ENDBRANCH  39  40
ENDBRANCH  38  39
ENDBRANCH  22  38
ENDBRANCH  12  13
ENDBRANCH   8  12
ENDBRANCH   4   5
ENDBRANCH   1   4
TORSDOF 11
ENDMDL
MODEL 5
REMARK VINA RESULT: -7.364219412      1.226      1.291
REMARK  11 active torsions:
REMARK  status: ('A' for Active; 'I' for Inactive)
REMARK    1  A    between atoms: C2_2  and  C3_3 
REMARK    2  A    between atoms: C3_3  and  C4_4 
REMARK    3  A    between atoms: C4_4  and  C5_5 
REMARK    4  A    between atoms: C7_10  and  C8_11 
REMARK    5  A    between atoms: C8_11  and  C9_12 
REMARK    6  A    between atoms: C12_15  and  O2_16 
REMARK    7  A    between atoms: O2_16  and  C13_17 
REMARK    8  A    between atoms: C21_33  and  C22_34 
REMARK    9  A    between atoms: C22_34  and  C23_35 
REMARK   10  A    between atoms: C23_35  and  C24_36 
REMARK   11  A    between atoms: C24_36  and  N5_37 
ROOT
HETATM    1  C13 UNL     1       2.435  -9.212  10.748  1.00  0.00     0.299 C 
HETATM    2  C14 UNL     1       3.625  -9.828  10.120  1.00  0.00     0.085 C 
HETATM    3  N2  UNL     1       4.565 -10.299   9.635  1.00  0.00    -0.195 NA
ENDROOT
BRANCH   1   4
HETATM    4  O2  UNL     1       1.315  -9.866  10.222  1.00  0.00    -0.338 OA
BRANCH   4   5
HETATM    5  C12 UNL     1       0.939 -11.132  10.673  1.00  0.00     0.071 A 
HETATM    6  C11 UNL     1      -0.141 -11.301  11.500  1.00  0.00     0.037 A 
HETATM    7  C10 UNL     1      -0.485 -12.560  11.926  1.00  0.00     0.011 A 
HETATM    8  C9  UNL     1       0.209 -13.694  11.561  1.00  0.00    -0.035 A 
HETATM    9  C16 UNL     1       1.294 -13.519  10.728  1.00  0.00     0.043 A 
HETATM   10  C15 UNL     1       1.649 -12.248  10.292  1.00  0.00     0.061 A 
HETATM   11 CL1  UNL     1       2.236 -14.896  10.211  1.00  0.00    -0.084 Cl
BRANCH   8  12
HETATM   12  C8  UNL     1      -0.216 -15.005  12.054  1.00  0.00     0.056 C 
BRANCH  12  13
HETATM   13  C7  UNL     1       0.844 -15.743  12.840  1.00  0.00     0.100 C 
HETATM   14  C6  UNL     1       0.694 -15.326  14.259  1.00  0.00     0.224 C 
HETATM   15  N1  UNL     1       1.750 -14.866  15.077  1.00  0.00    -0.347 N 
HETATM   16  O1  UNL     1      -0.489 -15.404  14.739  1.00  0.00    -0.273 OA
HETATM   17  C5  UNL     1       3.082 -15.434  15.111  1.00  0.00     0.176 C 
ATOM     18  H1  UNL     1       1.560 -14.073  15.690  1.00  0.00     0.163 HD
HETATM   19  C26 UNL     1       3.397 -16.083  16.383  1.00  0.00     0.241 C 
HETATM   20  N8  UNL     1       3.949 -17.364  16.568  1.00  0.00    -0.346 N 
HETATM   21  O5  UNL     1       3.149 -15.425  17.451  1.00  0.00    -0.271 OA
HETATM   22  C21 UNL     1       4.922 -18.013  15.747  1.00  0.00     0.176 C 
ATOM     23  H8  UNL     1       3.616 -17.888  17.377  1.00  0.00     0.163 HD
HETATM   24  C20 UNL     1       4.598 -19.443  15.496  1.00  0.00     0.240 C 
HETATM   25  N4  UNL     1       3.817 -19.910  14.405  1.00  0.00    -0.351 N 
HETATM   26  O4  UNL     1       5.054 -20.284  16.315  1.00  0.00    -0.271 OA
HETATM   27  C19 UNL     1       2.597 -19.300  13.936  1.00  0.00     0.225 C 
ATOM     28  H4  UNL     1       4.145 -20.742  13.915  1.00  0.00     0.163 HD
HETATM   29  C18 UNL     1       2.685 -18.837  12.545  1.00  0.00     0.235 C 
HETATM   30  N3  UNL     1       1.884 -17.812  12.013  1.00  0.00    -0.359 N 
HETATM   31  O3  UNL     1       3.527 -19.381  11.767  1.00  0.00    -0.272 OA
HETATM   32  C17 UNL     1       0.738 -17.238  12.685  1.00  0.00     0.137 C 
ATOM     33  H3  UNL     1       2.127 -17.449  11.092  1.00  0.00     0.162 HD
BRANCH  17  34
HETATM   34  C4  UNL     1       4.048 -14.375  14.696  1.00  0.00     0.035 C 
BRANCH  34  35
HETATM   35  C3  UNL     1       3.909 -13.993  13.239  1.00  0.00     0.002 C 
BRANCH  35  36
HETATM   36  C2  UNL     1       4.139 -12.486  13.059  1.00  0.00    -0.004 C 
HETATM   37  C1  UNL     1       3.007 -11.753  13.734  1.00  0.00     0.005 C 
ENDBRANCH  35  36
ENDBRANCH  34  35
ENDBRANCH  17  34
BRANCH  22  38
HETATM   38  C22 UNL     1       6.313 -17.974  16.359  1.00  0.00     0.036 C 
BRANCH  38  39
HETATM   39  C23 UNL     1       7.050 -16.712  15.968  1.00  0.00     0.022 C 
BRANCH  39  40
HETATM   40  C24 UNL     1       6.940 -16.527  14.452  1.00  0.00     0.122 C 
BRANCH  40  41
HETATM   41  N5  UNL     1       7.420 -15.246  14.037  1.00  0.00    -0.367 N 
HETATM   42  C25 UNL     1       7.473 -14.890  12.811  1.00  0.00     0.196 C 
HETATM   43  N6  UNL     1       7.961 -13.600  12.475  1.00  0.00    -0.067 NA
HETATM   44  N7  UNL     1       7.063 -15.721  11.721  1.00  0.00    -0.067 NA
ATOM     45  H5  UNL     1       7.733 -14.588  14.751  1.00  0.00     0.161 HD
ENDBRANCH  40  41
ENDBRANCH  39  40
ENDBRANCH  38  39
ENDBRANCH  22  38
ENDBRANCH  12  13
ENDBRANCH   8  12
ENDBRANCH   4   5
ENDBRANCH   1   4
TORSDOF 11
ENDMDL
