MODEL 1
REMARK VINA RESULT: -8.503166534      0.000      0.000
REMARK  12 active torsions:
REMARK  status: ('A' for Active; 'I' for Inactive)
REMARK    1  A    between atoms: C3_5  and  N2_6 
REMARK    2  A    between atoms: N2_6  and  C4_8 
REMARK       I    between atoms: N3_11  and  C7_12 
REMARK    3  A    between atoms: C7_12  and  C8_14 
REMARK    4  A    between atoms: C8_14  and  C9_15 
REMARK    5  A    between atoms: C9_15  and  N4_16 
REMARK    6  A    between atoms: C11_19  and  C12_20 
REMARK    7  A    between atoms: C12_20  and  C13_21 
REMARK    8  A    between atoms: C13_21  and  C14_22 
REMARK    9  A    between atoms: C14_22  and  C15_23 
REMARK   10  A    between atoms: C15_23  and  C16_27 
REMARK   11  A    between atoms: C16_27  and  C17_28 
REMARK   12  A    between atoms: C22_37  and  N7_38 
REMARK       I    between atoms: N7_38  and  C23_40 
ROOT
HETATM    1  C4  UNL     1       0.190 -17.848  12.172  1.00  0.00     0.104 C 
HETATM    2  C5  UNL     1       0.144 -16.774  11.098  1.00  0.00     0.045 C 
HETATM    3  C6  UNL     1       1.124 -15.663  11.431  1.00  0.00     0.130 C 
HETATM    4  N3  UNL     1       1.318 -15.576  12.880  1.00  0.00    -0.331 N 
HETATM    5  C7  UNL     1       0.962 -14.430  13.623  1.00  0.00     0.223 C 
HETATM    6  O1  UNL     1       1.152 -14.427  14.861  1.00  0.00    -0.273 OA
HETATM    7  C22 UNL     1       1.899 -16.738  13.517  1.00  0.00     0.192 C 
HETATM    8  C24 UNL     1       1.666 -17.925  12.588  1.00  0.00     0.073 C 
ENDROOT
BRANCH   5   9
HETATM    9  C8  UNL     1       0.372 -13.229  12.999  1.00  0.00     0.123 C 
BRANCH   9  10
HETATM   10  C9  UNL     1       1.084 -11.962  13.419  1.00  0.00     0.145 C 
BRANCH  10  11
HETATM   11  N4  UNL     1       1.362 -11.111  12.272  1.00  0.00    -0.275 N 
HETATM   12  C10 UNL     1       2.612 -11.115  11.719  1.00  0.00     0.206 A 
HETATM   13  F1  UNL     1       3.552 -11.905  12.252  1.00  0.00    -0.185 F 
HETATM   14  C11 UNL     1       2.913 -10.327  10.634  1.00  0.00     0.066 A 
HETATM   15  C20 UNL     1       1.951  -9.519  10.090  1.00  0.00     0.260 A 
HETATM   16  O2  UNL     1       2.184  -8.791   9.109  1.00  0.00    -0.267 OA
HETATM   17  N6  UNL     1       0.713  -9.536  10.664  1.00  0.00    -0.275 N 
HETATM   18  C21 UNL     1       0.427 -10.312  11.726  1.00  0.00     0.331 A 
ATOM     19  H6  UNL     1      -0.020  -8.942  10.276  1.00  0.00     0.173 HD
HETATM   20  O3  UNL     1      -0.728 -10.311  12.241  1.00  0.00    -0.246 OA
BRANCH  14  21
HETATM   21  C12 UNL     1       4.292 -10.319  10.009  1.00  0.00     0.049 C 
BRANCH  21  22
HETATM   22  C13 UNL     1       4.718 -11.685   9.647  1.00  0.00     0.011 C 
BRANCH  22  23
HETATM   23  C14 UNL     1       6.158 -12.032   9.678  1.00  0.00     0.052 C 
BRANCH  23  24
HETATM   24  C15 UNL     1       6.570 -13.390  10.039  1.00  0.00    -0.020 C 
HETATM   25  N5  UNL     1       6.063 -14.335   9.257  1.00  0.00    -0.406 N 
ATOM     26  H52 UNL     1       5.445 -14.068   8.492  1.00  0.00     0.155 HD
ATOM     27  H51 UNL     1       6.351 -15.280   9.508  1.00  0.00     0.155 HD
BRANCH  24  28
HETATM   28  C16 UNL     1       7.462 -13.774  11.142  1.00  0.00     0.055 C 
BRANCH  28  29
HETATM   29  C17 UNL     1       7.041 -13.171  12.460  1.00  0.00    -0.018 C 
HETATM   30  C18 UNL     1       8.214 -13.180  13.412  1.00  0.00     0.010 C 
HETATM   31  C19 UNL     1       5.925 -13.987  13.074  1.00  0.00     0.010 C 
ENDBRANCH  28  29
ENDBRANCH  24  28
ENDBRANCH  23  24
ENDBRANCH  22  23
ENDBRANCH  21  22
ENDBRANCH  14  21
ENDBRANCH  10  11
ENDBRANCH   9  10
ENDBRANCH   5   9
BRANCH   7  32
HETATM   32  N7  UNL     1       3.308 -16.561  13.792  1.00  0.00    -0.324 N 
HETATM   33  C23 UNL     1       3.762 -16.751  15.123  1.00  0.00     0.330 C 
HETATM   34  N8  UNL     1       5.119 -16.596  15.476  1.00  0.00    -0.040 NA
HETATM   35  O4  UNL     1       2.950 -17.071  16.051  1.00  0.00    -0.251 OA
ATOM     36  H7  UNL     1       3.958 -16.307  13.048  1.00  0.00     0.166 HD
ENDBRANCH   7  32
BRANCH   1  37
HETATM   37  N2  UNL     1      -0.191 -19.108  11.622  1.00  0.00    -0.221 N 
ATOM     38  H2  UNL     1       0.413 -19.577  10.947  1.00  0.00     0.178 HD
BRANCH  37  39
HETATM   39  C3  UNL     1      -1.322 -19.656  11.989  1.00  0.00     0.679 A 
HETATM   40  N1  UNL     1      -2.325 -19.980  11.149  1.00  0.00    -0.191 N 
HETATM   41  C2  UNL     1      -3.331 -20.525  11.872  1.00  0.00     0.066 A 
ATOM     42  H1  UNL     1      -2.327 -19.838  10.138  1.00  0.00     0.184 HD
HETATM   43  C1  UNL     1      -4.482 -20.967  11.409  1.00  0.00     0.046 C 
HETATM   44  C25 UNL     1      -2.945 -20.542  13.195  1.00  0.00     0.066 A 
HETATM   45  N9  UNL     1      -1.715 -20.003  13.222  1.00  0.00    -0.191 N 
HETATM   46  C26 UNL     1      -3.670 -21.001  14.202  1.00  0.00     0.046 C 
ATOM     47  H9  UNL     1      -1.156 -19.876  14.065  1.00  0.00     0.184 HD
ENDBRANCH  37  39
ENDBRANCH   1  37
TORSDOF 12
ENDMDL
MODEL 2
REMARK VINA RESULT: -8.455687699      2.116      4.482
REMARK  12 active torsions:
REMARK  status: ('A' for Active; 'I' for Inactive)
REMARK    1  A    between atoms: C3_5  and  N2_6 
REMARK    2  A    between atoms: N2_6  and  C4_8 
REMARK       I    between atoms: N3_11  and  C7_12 
REMARK    3  A    between atoms: C7_12  and  C8_14 
REMARK    4  A    between atoms: C8_14  and  C9_15 
REMARK    5  A    between atoms: C9_15  and  N4_16 
REMARK    6  A    between atoms: C11_19  and  C12_20 
REMARK    7  A    between atoms: C12_20  and  C13_21 
REMARK    8  A    between atoms: C13_21  and  C14_22 
REMARK    9  A    between atoms: C14_22  and  C15_23 
REMARK   10  A    between atoms: C15_23  and  C16_27 
REMARK   11  A    between atoms: C16_27  and  C17_28 
REMARK   12  A    between atoms: C22_37  and  N7_38 
REMARK       I    between atoms: N7_38  and  C23_40 
ROOT
HETATM    1  C4  UNL     1      -0.033 -17.545  12.027  1.00  0.00     0.104 C 
HETATM    2  C5  UNL     1       0.350 -16.271  11.292  1.00  0.00     0.045 C 
HETATM    3  C6  UNL     1       1.583 -15.654  11.930  1.00  0.00     0.130 C 
HETATM    4  N3  UNL     1       1.652 -16.012  13.348  1.00  0.00    -0.331 N 
HETATM    5  C7  UNL     1       1.588 -15.046  14.376  1.00  0.00     0.223 C 
HETATM    6  O1  UNL     1       1.650 -15.425  15.568  1.00  0.00    -0.273 OA
HETATM    7  C22 UNL     1       1.792 -17.421  13.644  1.00  0.00     0.192 C 
HETATM    8  C24 UNL     1       1.304 -18.189  12.421  1.00  0.00     0.073 C 
ENDROOT
BRANCH   5   9
HETATM    9  C8  UNL     1       1.451 -13.601  14.103  1.00  0.00     0.123 C 
BRANCH   9  10
HETATM   10  C9  UNL     1       2.752 -12.858  14.308  1.00  0.00     0.145 C 
BRANCH  10  11
HETATM   11  N4  UNL     1       3.437 -12.640  13.044  1.00  0.00    -0.275 N 
HETATM   12  C10 UNL     1       3.082 -11.577  12.261  1.00  0.00     0.206 A 
HETATM   13  F1  UNL     1       2.106 -10.764  12.681  1.00  0.00    -0.185 F 
HETATM   14  C11 UNL     1       3.706 -11.337  11.061  1.00  0.00     0.066 A 
HETATM   15  C20 UNL     1       4.704 -12.169  10.632  1.00  0.00     0.260 A 
HETATM   16  O2  UNL     1       5.293 -11.985   9.552  1.00  0.00    -0.267 OA
HETATM   17  N6  UNL     1       5.037 -13.222  11.435  1.00  0.00    -0.275 N 
HETATM   18  C21 UNL     1       4.420 -13.449  12.609  1.00  0.00     0.331 A 
ATOM     19  H6  UNL     1       5.777 -13.857  11.135  1.00  0.00     0.173 HD
HETATM   20  O3  UNL     1       4.746 -14.432  13.336  1.00  0.00    -0.246 OA
BRANCH  14  21
HETATM   21  C12 UNL     1       3.324 -10.164  10.181  1.00  0.00     0.049 C 
BRANCH  21  22
HETATM   22  C13 UNL     1       1.978 -10.350   9.606  1.00  0.00     0.011 C 
BRANCH  22  23
HETATM   23  C14 UNL     1       1.080  -9.181   9.459  1.00  0.00     0.052 C 
BRANCH  23  24
HETATM   24  C15 UNL     1       1.599  -7.932   8.896  1.00  0.00    -0.020 C 
HETATM   25  N5  UNL     1       1.566  -6.906   9.736  1.00  0.00    -0.406 N 
ATOM     26  H52 UNL     1       1.195  -7.044  10.676  1.00  0.00     0.155 HD
ATOM     27  H51 UNL     1       1.928  -6.037   9.344  1.00  0.00     0.155 HD
BRANCH  24  28
HETATM   28  C16 UNL     1       2.133  -7.734   7.541  1.00  0.00     0.055 C 
BRANCH  28  29
HETATM   29  C17 UNL     1       1.076  -7.895   6.476  1.00  0.00    -0.018 C 
HETATM   30  C18 UNL     1       1.740  -8.205   5.155  1.00  0.00     0.010 C 
HETATM   31  C19 UNL     1       0.290  -6.613   6.321  1.00  0.00     0.010 C 
ENDBRANCH  28  29
ENDBRANCH  24  28
ENDBRANCH  23  24
ENDBRANCH  22  23
ENDBRANCH  21  22
ENDBRANCH  14  21
ENDBRANCH  10  11
ENDBRANCH   9  10
ENDBRANCH   5   9
BRANCH   7  32
HETATM   32  N7  UNL     1       3.155 -17.777  13.971  1.00  0.00    -0.324 N 
HETATM   33  C23 UNL     1       3.393 -18.493  15.173  1.00  0.00     0.330 C 
HETATM   34  N8  UNL     1       4.692 -18.876  15.566  1.00  0.00    -0.040 NA
HETATM   35  O4  UNL     1       2.430 -18.817  15.942  1.00  0.00    -0.251 OA
ATOM     36  H7  UNL     1       3.926 -17.519  13.354  1.00  0.00     0.166 HD
ENDBRANCH   7  32
BRANCH   1  37
HETATM   37  N2  UNL     1      -0.721 -18.430  11.146  1.00  0.00    -0.221 N 
ATOM     38  H2  UNL     1      -0.482 -18.456  10.154  1.00  0.00     0.178 HD
BRANCH  37  39
HETATM   39  C3  UNL     1      -1.661 -19.210  11.619  1.00  0.00     0.679 A 
HETATM   40  N1  UNL     1      -2.770 -19.570  10.942  1.00  0.00    -0.191 N 
HETATM   41  C2  UNL     1      -3.512 -20.377  11.736  1.00  0.00     0.066 A 
ATOM     42  H1  UNL     1      -3.010 -19.283   9.993  1.00  0.00     0.184 HD
HETATM   43  C1  UNL     1      -4.666 -20.934  11.431  1.00  0.00     0.046 C 
HETATM   44  C25 UNL     1      -2.850 -20.524  12.935  1.00  0.00     0.066 A 
HETATM   45  N9  UNL     1      -1.727 -19.796  12.821  1.00  0.00    -0.191 N 
HETATM   46  C26 UNL     1      -3.270 -21.243  13.964  1.00  0.00     0.046 C 
ATOM     47  H9  UNL     1      -1.020 -19.702  13.551  1.00  0.00     0.184 HD
ENDBRANCH  37  39
ENDBRANCH   1  37
TORSDOF 12
ENDMDL
MODEL 3
REMARK VINA RESULT: -8.391543057      3.825      7.534
REMARK  12 active torsions:
REMARK  status: ('A' for Active; 'I' for Inactive)
REMARK    1  A    between atoms: C3_5  and  N2_6 
REMARK    2  A    between atoms: N2_6  and  C4_8 
REMARK       I    between atoms: N3_11  and  C7_12 
REMARK    3  A    between atoms: C7_12  and  C8_14 
REMARK    4  A    between atoms: C8_14  and  C9_15 
REMARK    5  A    between atoms: C9_15  and  N4_16 
REMARK    6  A    between atoms: C11_19  and  C12_20 
REMARK    7  A    between atoms: C12_20  and  C13_21 
REMARK    8  A    between atoms: C13_21  and  C14_22 
REMARK    9  A    between atoms: C14_22  and  C15_23 
REMARK   10  A    between atoms: C15_23  and  C16_27 
REMARK   11  A    between atoms: C16_27  and  C17_28 
REMARK   12  A    between atoms: C22_37  and  N7_38 
REMARK       I    between atoms: N7_38  and  C23_40 
ROOT
HETATM    1  C4  UNL     1       4.791 -13.612  13.118  1.00  0.00     0.104 C 
HETATM    2  C5  UNL     1       3.888 -12.443  13.474  1.00  0.00     0.045 C 
HETATM    3  C6  UNL     1       2.693 -12.933  14.274  1.00  0.00     0.130 C 
HETATM    4  N3  UNL     1       2.387 -14.322  13.927  1.00  0.00    -0.331 N 
HETATM    5  C7  UNL     1       1.163 -14.701  13.333  1.00  0.00     0.223 C 
HETATM    6  O1  UNL     1       0.972 -15.908  13.058  1.00  0.00    -0.273 OA
HETATM    7  C22 UNL     1       3.414 -15.296  14.227  1.00  0.00     0.192 C 
HETATM    8  C24 UNL     1       4.733 -14.540  14.339  1.00  0.00     0.073 C 
ENDROOT
BRANCH   5   9
HETATM    9  C8  UNL     1       0.096 -13.730  13.020  1.00  0.00     0.123 C 
BRANCH   9  10
HETATM   10  C9  UNL     1      -0.024 -13.478  11.533  1.00  0.00     0.145 C 
BRANCH  10  11
HETATM   11  N4  UNL     1       1.076 -12.660  11.049  1.00  0.00    -0.275 N 
HETATM   12  C10 UNL     1       1.013 -11.301  11.181  1.00  0.00     0.206 A 
HETATM   13  F1  UNL     1      -0.067 -10.758  11.755  1.00  0.00    -0.185 F 
HETATM   14  C11 UNL     1       2.033 -10.494  10.737  1.00  0.00     0.066 A 
HETATM   15  C20 UNL     1       3.137 -11.050  10.150  1.00  0.00     0.260 A 
HETATM   16  O2  UNL     1       4.080 -10.355   9.736  1.00  0.00    -0.267 OA
HETATM   17  N6  UNL     1       3.171 -12.410  10.031  1.00  0.00    -0.275 N 
HETATM   18  C21 UNL     1       2.168 -13.192  10.470  1.00  0.00     0.331 A 
ATOM     19  H6  UNL     1       3.984 -12.847   9.596  1.00  0.00     0.173 HD
HETATM   20  O3  UNL     1       2.223 -14.450  10.348  1.00  0.00    -0.246 OA
BRANCH  14  21
HETATM   21  C12 UNL     1       1.979  -8.987  10.876  1.00  0.00     0.049 C 
BRANCH  21  22
HETATM   22  C13 UNL     1       1.152  -8.385   9.811  1.00  0.00     0.011 C 
BRANCH  22  23
HETATM   23  C14 UNL     1       1.799  -7.559   8.766  1.00  0.00     0.052 C 
BRANCH  23  24
HETATM   24  C15 UNL     1       1.348  -6.183   8.545  1.00  0.00    -0.020 C 
HETATM   25  N5  UNL     1       1.021  -5.537   9.656  1.00  0.00    -0.406 N 
ATOM     26  H52 UNL     1       1.098  -6.017  10.552  1.00  0.00     0.155 HD
ATOM     27  H51 UNL     1       0.707  -4.579   9.502  1.00  0.00     0.155 HD
BRANCH  24  28
HETATM   28  C16 UNL     1       1.237  -5.492   7.252  1.00  0.00     0.055 C 
BRANCH  28  29
HETATM   29  C17 UNL     1       0.642  -6.369   6.178  1.00  0.00    -0.018 C 
HETATM   30  C18 UNL     1       1.468  -6.249   4.919  1.00  0.00     0.010 C 
HETATM   31  C19 UNL     1      -0.769  -5.924   5.864  1.00  0.00     0.010 C 
ENDBRANCH  28  29
ENDBRANCH  24  28
ENDBRANCH  23  24
ENDBRANCH  22  23
ENDBRANCH  21  22
ENDBRANCH  14  21
ENDBRANCH  10  11
ENDBRANCH   9  10
ENDBRANCH   5   9
BRANCH   7  32
HETATM   32  N7  UNL     1       3.130 -16.031  15.439  1.00  0.00    -0.324 N 
HETATM   33  C23 UNL     1       3.336 -17.435  15.439  1.00  0.00     0.330 C 
HETATM   34  N8  UNL     1       3.082 -18.226  16.578  1.00  0.00    -0.040 NA
HETATM   35  O4  UNL     1       3.762 -18.033  14.396  1.00  0.00    -0.251 OA
ATOM     36  H7  UNL     1       2.791 -15.553  16.274  1.00  0.00     0.166 HD
ENDBRANCH   7  32
BRANCH   1  37
HETATM   37  N2  UNL     1       6.134 -13.161  12.954  1.00  0.00    -0.221 N 
ATOM     38  H2  UNL     1       6.406 -12.232  13.274  1.00  0.00     0.178 HD
BRANCH  37  39
HETATM   39  C3  UNL     1       7.014 -13.949  12.389  1.00  0.00     0.679 A 
HETATM   40  N1  UNL     1       8.344 -13.889  12.602  1.00  0.00    -0.191 N 
HETATM   41  C2  UNL     1       8.941 -14.849  11.857  1.00  0.00     0.066 A 
ATOM     42  H1  UNL     1       8.821 -13.232  13.221  1.00  0.00     0.184 HD
HETATM   43  C1  UNL     1      10.231 -15.107  11.795  1.00  0.00     0.046 C 
HETATM   44  C25 UNL     1       7.960 -15.522  11.163  1.00  0.00     0.066 A 
HETATM   45  N9  UNL     1       6.801 -14.942  11.516  1.00  0.00    -0.191 N 
HETATM   46  C26 UNL     1       8.161 -16.529  10.328  1.00  0.00     0.046 C 
ATOM     47  H9  UNL     1       5.883 -15.220  11.167  1.00  0.00     0.184 HD
ENDBRANCH  37  39
ENDBRANCH   1  37
TORSDOF 12
ENDMDL
MODEL 4
REMARK VINA RESULT: -8.356720085      2.554      4.730
REMARK  12 active torsions:
REMARK  status: ('A' for Active; 'I' for Inactive)
REMARK    1  A    between atoms: C3_5  and  N2_6 
REMARK    2  A    between atoms: N2_6  and  C4_8 
REMARK       I    between atoms: N3_11  and  C7_12 
REMARK    3  A    between atoms: C7_12  and  C8_14 
REMARK    4  A    between atoms: C8_14  and  C9_15 
REMARK    5  A    between atoms: C9_15  and  N4_16 
REMARK    6  A    between atoms: C11_19  and  C12_20 
REMARK    7  A    between atoms: C12_20  and  C13_21 
REMARK    8  A    between atoms: C13_21  and  C14_22 
REMARK    9  A    between atoms: C14_22  and  C15_23 
REMARK   10  A    between atoms: C15_23  and  C16_27 
REMARK   11  A    between atoms: C16_27  and  C17_28 
REMARK   12  A    between atoms: C22_37  and  N7_38 
REMARK       I    between atoms: N7_38  and  C23_40 
ROOT
HETATM    1  C4  UNL     1       0.166 -18.425  11.996  1.00  0.00     0.104 C 
HETATM    2  C5  UNL     1       0.005 -17.233  11.068  1.00  0.00     0.045 C 
HETATM    3  C6  UNL     1       0.726 -16.025  11.641  1.00  0.00     0.130 C 
HETATM    4  N3  UNL     1       0.781 -16.115  13.101  1.00  0.00    -0.331 N 
HETATM    5  C7  UNL     1       0.155 -15.168  13.941  1.00  0.00     0.223 C 
HETATM    6  O1  UNL     1       0.239 -15.310  15.183  1.00  0.00    -0.273 OA
HETATM    7  C22 UNL     1       1.518 -17.235  13.645  1.00  0.00     0.192 C 
HETATM    8  C24 UNL     1       1.590 -18.298  12.554  1.00  0.00     0.073 C 
ENDROOT
BRANCH   5   9
HETATM    9  C8  UNL     1      -0.599 -14.013  13.414  1.00  0.00     0.123 C 
BRANCH   9  10
HETATM   10  C9  UNL     1      -0.001 -12.696  13.855  1.00  0.00     0.145 C 
BRANCH  10  11
HETATM   11  N4  UNL     1       1.025 -12.248  12.927  1.00  0.00    -0.275 N 
HETATM   12  C10 UNL     1       0.656 -11.704  11.729  1.00  0.00     0.206 A 
HETATM   13  F1  UNL     1      -0.646 -11.599  11.440  1.00  0.00    -0.185 F 
HETATM   14  C11 UNL     1       1.597 -11.268  10.826  1.00  0.00     0.066 A 
HETATM   15  C20 UNL     1       2.929 -11.375  11.121  1.00  0.00     0.260 A 
HETATM   16  O2  UNL     1       3.809 -10.993  10.331  1.00  0.00    -0.267 OA
HETATM   17  N6  UNL     1       3.266 -11.924  12.325  1.00  0.00    -0.275 N 
HETATM   18  C21 UNL     1       2.338 -12.347  13.204  1.00  0.00     0.331 A 
ATOM     19  H6  UNL     1       4.253 -12.015  12.567  1.00  0.00     0.173 HD
HETATM   20  O3  UNL     1       2.676 -12.852  14.313  1.00  0.00    -0.246 OA
BRANCH  14  21
HETATM   21  C12 UNL     1       1.205 -10.662   9.493  1.00  0.00     0.049 C 
BRANCH  21  22
HETATM   22  C13 UNL     1       1.159  -9.189   9.574  1.00  0.00     0.011 C 
BRANCH  22  23
HETATM   23  C14 UNL     1       1.856  -8.381   8.546  1.00  0.00     0.052 C 
BRANCH  23  24
HETATM   24  C15 UNL     1       1.559  -6.953   8.420  1.00  0.00    -0.020 C 
HETATM   25  N5  UNL     1       1.441  -6.320   9.580  1.00  0.00    -0.406 N 
ATOM     26  H52 UNL     1       1.558  -6.845  10.447  1.00  0.00     0.155 HD
ATOM     27  H51 UNL     1       1.235  -5.326   9.492  1.00  0.00     0.155 HD
BRANCH  24  28
HETATM   28  C16 UNL     1       1.391  -6.197   7.170  1.00  0.00     0.055 C 
BRANCH  28  29
HETATM   29  C17 UNL     1       0.505  -6.911   6.179  1.00  0.00    -0.018 C 
HETATM   30  C18 UNL     1       1.319  -7.296   4.966  1.00  0.00     0.010 C 
HETATM   31  C19 UNL     1      -0.615  -6.000   5.729  1.00  0.00     0.010 C 
ENDBRANCH  28  29
ENDBRANCH  24  28
ENDBRANCH  23  24
ENDBRANCH  22  23
ENDBRANCH  21  22
ENDBRANCH  14  21
ENDBRANCH  10  11
ENDBRANCH   9  10
ENDBRANCH   5   9
BRANCH   7  32
HETATM   32  N7  UNL     1       2.840 -16.854  14.089  1.00  0.00    -0.324 N 
HETATM   33  C23 UNL     1       3.350 -17.449  15.271  1.00  0.00     0.330 C 
HETATM   34  N8  UNL     1       4.629 -17.131  15.774  1.00  0.00    -0.040 NA
HETATM   35  O4  UNL     1       2.662 -18.300  15.924  1.00  0.00    -0.251 OA
ATOM     36  H7  UNL     1       3.392 -16.174  13.565  1.00  0.00     0.166 HD
ENDBRANCH   7  32
BRANCH   1  37
HETATM   37  N2  UNL     1       0.076 -19.639  11.253  1.00  0.00    -0.221 N 
ATOM     38  H2  UNL     1       0.894 -20.002  10.762  1.00  0.00     0.178 HD
BRANCH  37  39
HETATM   39  C3  UNL     1      -1.062 -20.285  11.207  1.00  0.00     0.679 A 
HETATM   40  N1  UNL     1      -1.190 -21.593  10.906  1.00  0.00    -0.191 N 
HETATM   41  C2  UNL     1      -2.503 -21.916  10.954  1.00  0.00     0.066 A 
ATOM     42  H1  UNL     1      -0.426 -22.231  10.680  1.00  0.00     0.184 HD
HETATM   43  C1  UNL     1      -3.029 -23.101  10.722  1.00  0.00     0.046 C 
HETATM   44  C25 UNL     1      -3.211 -20.784  11.294  1.00  0.00     0.066 A 
HETATM   45  N9  UNL     1      -2.294 -19.812  11.438  1.00  0.00    -0.191 N 
HETATM   46  C26 UNL     1      -4.524 -20.710  11.436  1.00  0.00     0.046 C 
ATOM     47  H9  UNL     1      -2.507 -18.847  11.690  1.00  0.00     0.184 HD
ENDBRANCH  37  39
ENDBRANCH   1  37
TORSDOF 12
ENDMDL
MODEL 5
REMARK VINA RESULT: -8.302117028      2.504      9.816
REMARK  12 active torsions:
REMARK  status: ('A' for Active; 'I' for Inactive)
REMARK    1  A    between atoms: C3_5  and  N2_6 
REMARK    2  A    between atoms: N2_6  and  C4_8 
REMARK       I    between atoms: N3_11  and  C7_12 
REMARK    3  A    between atoms: C7_12  and  C8_14 
REMARK    4  A    between atoms: C8_14  and  C9_15 
REMARK    5  A    between atoms: C9_15  and  N4_16 
REMARK    6  A    between atoms: C11_19  and  C12_20 
REMARK    7  A    between atoms: C12_20  and  C13_21 
REMARK    8  A    between atoms: C13_21  and  C14_22 
REMARK    9  A    between atoms: C14_22  and  C15_23 
REMARK   10  A    between atoms: C15_23  and  C16_27 
REMARK   11  A    between atoms: C16_27  and  C17_28 
REMARK   12  A    between atoms: C22_37  and  N7_38 
REMARK       I    between atoms: N7_38  and  C23_40 
ROOT
HETATM    1  C4  UNL     1       1.406  -9.835  10.946  1.00  0.00     0.104 C 
HETATM    2  C5  UNL     1       0.193 -10.146  11.808  1.00  0.00     0.045 C 
HETATM    3  C6  UNL     1       0.428 -11.423  12.595  1.00  0.00     0.130 C 
HETATM    4  N3  UNL     1       1.355 -12.298  11.875  1.00  0.00    -0.331 N 
HETATM    5  C7  UNL     1       0.978 -13.576  11.406  1.00  0.00     0.223 C 
HETATM    6  O1  UNL     1       1.822 -14.269  10.793  1.00  0.00    -0.273 OA
HETATM    7  C22 UNL     1       2.690 -11.782  11.668  1.00  0.00     0.192 C 
HETATM    8  C24 UNL     1       2.611 -10.264  11.794  1.00  0.00     0.073 C 
ENDROOT
BRANCH   5   9
HETATM    9  C8  UNL     1      -0.376 -14.130  11.608  1.00  0.00     0.123 C 
BRANCH   9  10
HETATM   10  C9  UNL     1      -0.535 -14.756  12.976  1.00  0.00     0.145 C 
BRANCH  10  11
HETATM   11  N4  UNL     1       0.430 -15.825  13.179  1.00  0.00    -0.275 N 
HETATM   12  C10 UNL     1       0.376 -16.938  12.387  1.00  0.00     0.206 A 
HETATM   13  F1  UNL     1      -0.568 -17.014  11.443  1.00  0.00    -0.185 F 
HETATM   14  C11 UNL     1       1.271 -17.969  12.547  1.00  0.00     0.066 A 
HETATM   15  C20 UNL     1       2.237 -17.891  13.514  1.00  0.00     0.260 A 
HETATM   16  O2  UNL     1       3.064 -18.802  13.690  1.00  0.00    -0.267 OA
HETATM   17  N6  UNL     1       2.265 -16.767  14.289  1.00  0.00    -0.275 N 
HETATM   18  C21 UNL     1       1.385 -15.762  14.125  1.00  0.00     0.331 A 
ATOM     19  H6  UNL     1       2.976 -16.687  15.017  1.00  0.00     0.173 HD
HETATM   20  O3  UNL     1       1.431 -14.732  14.856  1.00  0.00    -0.246 OA
BRANCH  14  21
HETATM   21  C12 UNL     1       1.226 -19.209  11.679  1.00  0.00     0.049 C 
BRANCH  21  22
HETATM   22  C13 UNL     1       0.185 -20.146  12.146  1.00  0.00     0.011 C 
BRANCH  22  23
HETATM   23  C14 UNL     1      -0.942 -20.490  11.249  1.00  0.00     0.052 C 
BRANCH  23  24
HETATM   24  C15 UNL     1      -2.316 -20.194  11.663  1.00  0.00    -0.020 C 
HETATM   25  N5  UNL     1      -2.898 -19.235  10.955  1.00  0.00    -0.406 N 
ATOM     26  H52 UNL     1      -2.376 -18.783  10.205  1.00  0.00     0.155 HD
ATOM     27  H51 UNL     1      -3.855 -19.029  11.243  1.00  0.00     0.155 HD
BRANCH  24  28
HETATM   28  C16 UNL     1      -3.068 -20.846  12.745  1.00  0.00     0.055 C 
BRANCH  28  29
HETATM   29  C17 UNL     1      -4.470 -21.217  12.330  1.00  0.00    -0.018 C 
HETATM   30  C18 UNL     1      -5.273 -21.588  13.554  1.00  0.00     0.010 C 
HETATM   31  C19 UNL     1      -4.441 -22.411  11.402  1.00  0.00     0.010 C 
ENDBRANCH  28  29
ENDBRANCH  24  28
ENDBRANCH  23  24
ENDBRANCH  22  23
ENDBRANCH  21  22
ENDBRANCH  14  21
ENDBRANCH  10  11
ENDBRANCH   9  10
ENDBRANCH   5   9
BRANCH   7  32
HETATM   32  N7  UNL     1       3.640 -12.334  12.607  1.00  0.00    -0.324 N 
HETATM   33  C23 UNL     1       4.840 -12.897  12.099  1.00  0.00     0.330 C 
HETATM   34  N8  UNL     1       5.817 -13.458  12.947  1.00  0.00    -0.040 NA
HETATM   35  O4  UNL     1       5.074 -12.914  10.846  1.00  0.00    -0.251 OA
ATOM     36  H7  UNL     1       3.454 -12.318  13.610  1.00  0.00     0.166 HD
ENDBRANCH   7  32
BRANCH   1  37
HETATM   37  N2  UNL     1       1.493  -8.431  10.713  1.00  0.00    -0.221 N 
ATOM     38  H2  UNL     1       1.591  -7.785  11.496  1.00  0.00     0.178 HD
BRANCH  37  39
HETATM   39  C3  UNL     1       1.447  -7.976   9.485  1.00  0.00     0.679 A 
HETATM   40  N1  UNL     1       1.065  -6.730   9.143  1.00  0.00    -0.191 N 
HETATM   41  C2  UNL     1       1.142  -6.613   7.797  1.00  0.00     0.066 A 
ATOM     42  H1  UNL     1       0.769  -5.998   9.789  1.00  0.00     0.184 HD
HETATM   43  C1  UNL     1       0.852  -5.545   7.083  1.00  0.00     0.046 C 
HETATM   44  C25 UNL     1       1.583  -7.815   7.288  1.00  0.00     0.066 A 
HETATM   45  N9  UNL     1       1.756  -8.618   8.351  1.00  0.00    -0.191 N 
HETATM   46  C26 UNL     1       1.780  -8.083   6.007  1.00  0.00     0.046 C 
ATOM     47  H9  UNL     1       2.080  -9.584   8.301  1.00  0.00     0.184 HD
ENDBRANCH  37  39
ENDBRANCH   1  37
TORSDOF 12
ENDMDL
