MODEL 1
REMARK VINA RESULT: -8.398478797      0.000      0.000
REMARK  8 active torsions:
REMARK  status: ('A' for Active; 'I' for Inactive)
REMARK    1  A    between atoms: C3_6  and  C4_7 
REMARK    2  A    between atoms: C4_7  and  N2_8 
REMARK    3  A    between atoms: N2_8  and  N3_10 
REMARK    4  A    between atoms: N3_10  and  C5_12 
REMARK    5  A    between atoms: N7_21  and  C8_22 
REMARK       I    between atoms: N8_27  and  C12_28 
REMARK    6  A    between atoms: C12_28  and  C13_30 
REMARK    7  A    between atoms: C13_30  and  O3_31 
REMARK    8  A    between atoms: C13_30  and  O4_33 
ROOT
HETATM    1  N1  UNL     1      65.116  98.108 116.417  1.00  0.00    -0.384 N 
ATOM      2  H11 UNL     1      65.983  97.611 116.621  1.00  0.00     0.157 HD
ATOM      3  H12 UNL     1      65.278  98.698 115.601  1.00  0.00     0.157 HD
HETATM    4  C1  UNL     1      63.971  98.038 117.057  1.00  0.00     0.125 A 
HETATM    5  C2  UNL     1      62.814  98.702 116.785  1.00  0.00     0.082 A 
HETATM    6  C3  UNL     1      61.874  98.319 117.716  1.00  0.00     0.069 A 
HETATM    7  N6  UNL     1      62.507  97.440 118.511  1.00  0.00    -0.289 N 
ATOM      8  H6  UNL     1      62.075  96.971 119.306  1.00  0.00     0.188 HD
HETATM    9  N7  UNL     1      63.758  97.261 118.132  1.00  0.00    -0.222 N 
ENDROOT
BRANCH   9  10
HETATM   10  C8  UNL     1      64.735  96.406 118.730  1.00  0.00     0.144 A 
HETATM   11  C9  UNL     1      65.607  96.903 119.678  1.00  0.00     0.057 A 
HETATM   12  C10 UNL     1      66.532  96.040 120.226  1.00  0.00     0.080 A 
HETATM   13  C11 UNL     1      66.555  94.725 119.813  1.00  0.00     0.269 A 
HETATM   14  O1  UNL     1      67.389  93.901 120.290  1.00  0.00    -0.266 OA
HETATM   15  N8  UNL     1      65.691  94.250 118.877  1.00  0.00    -0.181 N 
HETATM   16  C12 UNL     1      65.714  92.904 118.452  1.00  0.00     0.300 C 
HETATM   17  N9  UNL     1      64.828  95.124 118.388  1.00  0.00    -0.272 N 
HETATM   18  O2  UNL     1      66.544  92.121 118.941  1.00  0.00    -0.266 OA
ATOM     19  H9  UNL     1      64.172  94.783 117.684  1.00  0.00     0.189 HD
BRANCH  16  20
HETATM   20  C13 UNL     1      64.758  92.441 117.438  1.00  0.00     0.351 C 
BRANCH  20  21
HETATM   21  O3  UNL     1      65.209  92.582 116.146  1.00  0.00    -0.363 OA
ATOM     22  H3  UNL     1      65.662  93.401 115.987  1.00  0.00     0.213 HD
ENDBRANCH  20  21
BRANCH  20  23
HETATM   23  O4  UNL     1      64.473  91.069 117.621  1.00  0.00    -0.363 OA
ATOM     24  H4  UNL     1      63.654  90.842 117.196  1.00  0.00     0.213 HD
ENDBRANCH  20  23
ENDBRANCH  16  20
ENDBRANCH   9  10
BRANCH   6  25
HETATM   25  C4  UNL     1      60.506  98.801 117.774  1.00  0.00     0.138 C 
BRANCH  25  26
HETATM   26  N2  UNL     1      59.550  98.168 117.210  1.00  0.00    -0.307 N 
ATOM     27  H2  UNL     1      58.873  97.662 117.780  1.00  0.00     0.186 HD
BRANCH  26  28
HETATM   28  N3  UNL     1      59.425  98.163 115.818  1.00  0.00    -0.272 N 
ATOM     29  H3  UNL     1      59.693  97.319 115.314  1.00  0.00     0.190 HD
BRANCH  28  30
HETATM   30  C5  UNL     1      58.948  99.261 115.074  1.00  0.00     0.190 C 
HETATM   31  N4  UNL     1      57.904  99.265 114.334  1.00  0.00    -0.360 N 
HETATM   32  C6  UNL     1      57.667 100.521 113.700  1.00  0.00     0.142 C 
ATOM     33  H4  UNL     1      57.301  98.451 114.210  1.00  0.00     0.162 HD
HETATM   34  C7  UNL     1      58.647 101.458 114.332  1.00  0.00     0.142 C 
HETATM   35  N5  UNL     1      59.547 100.542 115.022  1.00  0.00    -0.360 N 
ATOM     36  H5  UNL     1      60.460 100.785 115.405  1.00  0.00     0.162 HD
ENDBRANCH  28  30
ENDBRANCH  26  28
ENDBRANCH  25  26
ENDBRANCH   6  25
TORSDOF 8
ENDMDL
MODEL 2
REMARK VINA RESULT: -8.394833426      4.942      8.644
REMARK  8 active torsions:
REMARK  status: ('A' for Active; 'I' for Inactive)
REMARK    1  A    between atoms: C3_6  and  C4_7 
REMARK    2  A    between atoms: C4_7  and  N2_8 
REMARK    3  A    between atoms: N2_8  and  N3_10 
REMARK    4  A    between atoms: N3_10  and  C5_12 
REMARK    5  A    between atoms: N7_21  and  C8_22 
REMARK       I    between atoms: N8_27  and  C12_28 
REMARK    6  A    between atoms: C12_28  and  C13_30 
REMARK    7  A    between atoms: C13_30  and  O3_31 
REMARK    8  A    between atoms: C13_30  and  O4_33 
ROOT
HETATM    1  N1  UNL     1      64.491  99.252 119.378  1.00  0.00    -0.384 N 
ATOM      2  H11 UNL     1      63.663  99.844 119.324  1.00  0.00     0.157 HD
ATOM      3  H12 UNL     1      64.818  99.258 120.344  1.00  0.00     0.157 HD
HETATM    4  C1  UNL     1      65.073  98.582 118.409  1.00  0.00     0.125 A 
HETATM    5  C2  UNL     1      66.180  97.791 118.482  1.00  0.00     0.082 A 
HETATM    6  C3  UNL     1      66.428  97.291 117.223  1.00  0.00     0.069 A 
HETATM    7  N6  UNL     1      65.459  97.802 116.445  1.00  0.00    -0.289 N 
ATOM      8  H6  UNL     1      65.366  97.618 115.447  1.00  0.00     0.188 HD
HETATM    9  N7  UNL     1      64.643  98.574 117.137  1.00  0.00    -0.222 N 
ENDROOT
BRANCH   9  10
HETATM   10  C8  UNL     1      63.501  99.287 116.656  1.00  0.00     0.144 A 
HETATM   11  C9  UNL     1      62.293  98.638 116.496  1.00  0.00     0.057 A 
HETATM   12  C10 UNL     1      61.221  99.367 116.029  1.00  0.00     0.080 A 
HETATM   13  C11 UNL     1      61.388 100.704 115.740  1.00  0.00     0.269 A 
HETATM   14  O1  UNL     1      60.430 101.408 115.309  1.00  0.00    -0.266 OA
HETATM   15  N8  UNL     1      62.584 101.330 115.902  1.00  0.00    -0.181 N 
HETATM   16  C12 UNL     1      62.758 102.699 115.606  1.00  0.00     0.300 C 
HETATM   17  N9  UNL     1      63.575 100.580 116.352  1.00  0.00    -0.272 N 
HETATM   18  O2  UNL     1      61.796 103.363 115.185  1.00  0.00    -0.266 OA
ATOM     19  H9  UNL     1      64.479 101.035 116.479  1.00  0.00     0.189 HD
BRANCH  16  20
HETATM   20  C13 UNL     1      64.071 103.328 115.799  1.00  0.00     0.351 C 
BRANCH  20  21
HETATM   21  O3  UNL     1      64.522 103.280 117.097  1.00  0.00    -0.363 OA
ATOM     22  H3  UNL     1      64.583 102.400 117.449  1.00  0.00     0.213 HD
ENDBRANCH  20  21
BRANCH  20  23
HETATM   23  O4  UNL     1      65.046 102.682 115.007  1.00  0.00    -0.363 OA
ATOM     24  H4  UNL     1      65.034 103.025 114.121  1.00  0.00     0.213 HD
ENDBRANCH  20  23
ENDBRANCH  16  20
ENDBRANCH   9  10
BRANCH   6  25
HETATM   25  C4  UNL     1      67.522  96.403 116.874  1.00  0.00     0.138 C 
BRANCH  25  26
HETATM   26  N2  UNL     1      67.325  95.325 116.218  1.00  0.00    -0.307 N 
ATOM     27  H2  UNL     1      67.039  95.373 115.240  1.00  0.00     0.186 HD
BRANCH  26  28
HETATM   28  N3  UNL     1      67.499  94.080 116.828  1.00  0.00    -0.272 N 
ATOM     29  H3  UNL     1      68.450  93.760 117.006  1.00  0.00     0.190 HD
BRANCH  28  30
HETATM   30  C5  UNL     1      66.432  93.242 117.209  1.00  0.00     0.190 C 
HETATM   31  N4  UNL     1      65.437  92.917 116.473  1.00  0.00    -0.360 N 
HETATM   32  C6  UNL     1      64.509  92.054 117.128  1.00  0.00     0.142 C 
ATOM     33  H4  UNL     1      65.320  93.242 115.513  1.00  0.00     0.162 HD
HETATM   34  C7  UNL     1      65.184  91.669 118.407  1.00  0.00     0.142 C 
HETATM   35  N5  UNL     1      66.284  92.622 118.473  1.00  0.00    -0.360 N 
ATOM     36  H5  UNL     1      66.855  92.812 119.296  1.00  0.00     0.162 HD
ENDBRANCH  28  30
ENDBRANCH  26  28
ENDBRANCH  25  26
ENDBRANCH   6  25
TORSDOF 8
ENDMDL
MODEL 3
REMARK VINA RESULT: -8.321425474      1.980      2.757
REMARK  8 active torsions:
REMARK  status: ('A' for Active; 'I' for Inactive)
REMARK    1  A    between atoms: C3_6  and  C4_7 
REMARK    2  A    between atoms: C4_7  and  N2_8 
REMARK    3  A    between atoms: N2_8  and  N3_10 
REMARK    4  A    between atoms: N3_10  and  C5_12 
REMARK    5  A    between atoms: N7_21  and  C8_22 
REMARK       I    between atoms: N8_27  and  C12_28 
REMARK    6  A    between atoms: C12_28  and  C13_30 
REMARK    7  A    between atoms: C13_30  and  O3_31 
REMARK    8  A    between atoms: C13_30  and  O4_33 
ROOT
HETATM    1  N1  UNL     1      64.087  96.395 121.279  1.00  0.00    -0.384 N 
ATOM      2  H11 UNL     1      64.743  95.730 121.690  1.00  0.00     0.157 HD
ATOM      3  H12 UNL     1      63.721  96.979 122.030  1.00  0.00     0.157 HD
HETATM    4  C1  UNL     1      63.741  96.517 120.018  1.00  0.00     0.125 A 
HETATM    5  C2  UNL     1      62.865  97.404 119.469  1.00  0.00     0.082 A 
HETATM    6  C3  UNL     1      62.813  97.167 118.113  1.00  0.00     0.069 A 
HETATM    7  N6  UNL     1      63.661  96.147 117.903  1.00  0.00    -0.289 N 
ATOM      8  H6  UNL     1      63.847  95.734 116.990  1.00  0.00     0.188 HD
HETATM    9  N7  UNL     1      64.222  95.748 119.028  1.00  0.00    -0.222 N 
ENDROOT
BRANCH   9  10
HETATM   10  C8  UNL     1      65.173  94.694 119.201  1.00  0.00     0.144 A 
HETATM   11  C9  UNL     1      64.935  93.686 120.114  1.00  0.00     0.057 A 
HETATM   12  C10 UNL     1      65.882  92.692 120.246  1.00  0.00     0.080 A 
HETATM   13  C11 UNL     1      67.020  92.737 119.470  1.00  0.00     0.269 A 
HETATM   14  O1  UNL     1      67.913  91.845 119.560  1.00  0.00    -0.266 OA
HETATM   15  N8  UNL     1      67.241  93.737 118.575  1.00  0.00    -0.181 N 
HETATM   16  C12 UNL     1      68.407  93.785 117.780  1.00  0.00     0.300 C 
HETATM   17  N9  UNL     1      66.299  94.661 118.494  1.00  0.00    -0.272 N 
HETATM   18  O2  UNL     1      69.263  92.894 117.892  1.00  0.00    -0.266 OA
ATOM     19  H9  UNL     1      66.450  95.418 117.827  1.00  0.00     0.189 HD
BRANCH  16  20
HETATM   20  C13 UNL     1      68.596  94.887 116.828  1.00  0.00     0.351 C 
BRANCH  20  21
HETATM   21  O3  UNL     1      67.606  94.973 115.877  1.00  0.00    -0.363 OA
ATOM     22  H3  UNL     1      67.673  95.743 115.324  1.00  0.00     0.213 HD
ENDBRANCH  20  21
BRANCH  20  23
HETATM   23  O4  UNL     1      68.616  96.126 117.506  1.00  0.00    -0.363 OA
ATOM     24  H4  UNL     1      67.816  96.610 117.335  1.00  0.00     0.213 HD
ENDBRANCH  20  23
ENDBRANCH  16  20
ENDBRANCH   9  10
BRANCH   6  25
HETATM   25  C4  UNL     1      61.994  97.901 117.165  1.00  0.00     0.138 C 
BRANCH  25  26
HETATM   26  N2  UNL     1      60.767  98.165 117.406  1.00  0.00    -0.307 N 
ATOM     27  H2  UNL     1      60.496  98.511 118.326  1.00  0.00     0.186 HD
BRANCH  26  28
HETATM   28  N3  UNL     1      59.795  97.983 116.420  1.00  0.00    -0.272 N 
ATOM     29  H3  UNL     1      59.400  97.051 116.299  1.00  0.00     0.190 HD
BRANCH  28  30
HETATM   30  C5  UNL     1      59.330  99.016 115.582  1.00  0.00     0.190 C 
HETATM   31  N4  UNL     1      58.360  98.926 114.752  1.00  0.00    -0.360 N 
HETATM   32  C6  UNL     1      58.115 100.136 114.037  1.00  0.00     0.142 C 
ATOM     33  H4  UNL     1      57.816  98.074 114.616  1.00  0.00     0.162 HD
HETATM   34  C7  UNL     1      58.981 101.156 114.707  1.00  0.00     0.142 C 
HETATM   35  N5  UNL     1      59.861 100.327 115.520  1.00  0.00    -0.360 N 
ATOM     36  H5  UNL     1      60.721 100.640 115.970  1.00  0.00     0.162 HD
ENDBRANCH  28  30
ENDBRANCH  26  28
ENDBRANCH  25  26
ENDBRANCH   6  25
TORSDOF 8
ENDMDL
MODEL 4
REMARK VINA RESULT: -8.215098886      1.549      2.220
REMARK  8 active torsions:
REMARK  status: ('A' for Active; 'I' for Inactive)
REMARK    1  A    between atoms: C3_6  and  C4_7 
REMARK    2  A    between atoms: C4_7  and  N2_8 
REMARK    3  A    between atoms: N2_8  and  N3_10 
REMARK    4  A    between atoms: N3_10  and  C5_12 
REMARK    5  A    between atoms: N7_21  and  C8_22 
REMARK       I    between atoms: N8_27  and  C12_28 
REMARK    6  A    between atoms: C12_28  and  C13_30 
REMARK    7  A    between atoms: C13_30  and  O3_31 
REMARK    8  A    between atoms: C13_30  and  O4_33 
ROOT
HETATM    1  N1  UNL     1      64.236  95.959 120.605  1.00  0.00    -0.384 N 
ATOM      2  H11 UNL     1      65.038  95.386 120.868  1.00  0.00     0.157 HD
ATOM      3  H12 UNL     1      63.693  96.145 121.449  1.00  0.00     0.157 HD
HETATM    4  C1  UNL     1      63.914  96.403 119.412  1.00  0.00     0.125 A 
HETATM    5  C2  UNL     1      62.843  97.168 119.060  1.00  0.00     0.082 A 
HETATM    6  C3  UNL     1      62.909  97.393 117.703  1.00  0.00     0.069 A 
HETATM    7  N6  UNL     1      64.017  96.754 117.295  1.00  0.00    -0.289 N 
ATOM      8  H6  UNL     1      64.344  96.731 116.330  1.00  0.00     0.188 HD
HETATM    9  N7  UNL     1      64.628  96.158 118.301  1.00  0.00    -0.222 N 
ENDROOT
BRANCH   9  10
HETATM   10  C8  UNL     1      65.830  95.387 118.256  1.00  0.00     0.144 A 
HETATM   11  C9  UNL     1      67.029  95.986 117.924  1.00  0.00     0.057 A 
HETATM   12  C10 UNL     1      68.161  95.201 117.892  1.00  0.00     0.080 A 
HETATM   13  C11 UNL     1      68.061  93.859 118.191  1.00  0.00     0.269 A 
HETATM   14  O1  UNL     1      69.076  93.104 118.173  1.00  0.00    -0.266 OA
HETATM   15  N8  UNL     1      66.874  93.282 118.516  1.00  0.00    -0.181 N 
HETATM   16  C12 UNL     1      66.768  91.908 118.821  1.00  0.00     0.300 C 
HETATM   17  N9  UNL     1      65.823  94.084 118.529  1.00  0.00    -0.272 N 
HETATM   18  O2  UNL     1      67.784  91.194 118.795  1.00  0.00    -0.266 OA
ATOM     19  H9  UNL     1      64.924  93.666 118.770  1.00  0.00     0.189 HD
BRANCH  16  20
HETATM   20  C13 UNL     1      65.461  91.334 119.166  1.00  0.00     0.351 C 
BRANCH  20  21
HETATM   21  O3  UNL     1      64.788  92.035 120.139  1.00  0.00    -0.363 OA
ATOM     22  H3  UNL     1      63.950  92.378 119.853  1.00  0.00     0.213 HD
ENDBRANCH  20  21
BRANCH  20  23
HETATM   23  O4  UNL     1      64.620  91.307 118.031  1.00  0.00    -0.363 OA
ATOM     24  H4  UNL     1      64.190  90.463 117.957  1.00  0.00     0.213 HD
ENDBRANCH  20  23
ENDBRANCH  16  20
ENDBRANCH   9  10
BRANCH   6  25
HETATM   25  C4  UNL     1      61.950  98.167 116.935  1.00  0.00     0.138 C 
BRANCH  25  26
HETATM   26  N2  UNL     1      60.710  98.192 117.244  1.00  0.00    -0.307 N 
ATOM     27  H2  UNL     1      60.434  98.328 118.217  1.00  0.00     0.186 HD
BRANCH  26  28
HETATM   28  N3  UNL     1      59.730  98.035 116.262  1.00  0.00    -0.272 N 
ATOM     29  H3  UNL     1      59.328  97.107 116.127  1.00  0.00     0.190 HD
BRANCH  28  30
HETATM   30  C5  UNL     1      59.266  99.086 115.446  1.00  0.00     0.190 C 
HETATM   31  N4  UNL     1      59.547 100.326 115.594  1.00  0.00    -0.360 N 
HETATM   32  C6  UNL     1      58.933 101.164 114.617  1.00  0.00     0.142 C 
ATOM     33  H4  UNL     1      60.151 100.680 116.337  1.00  0.00     0.162 HD
HETATM   34  C7  UNL     1      58.341 100.217 113.621  1.00  0.00     0.142 C 
HETATM   35  N5  UNL     1      58.412  98.944 114.327  1.00  0.00    -0.360 N 
ATOM     36  H5  UNL     1      57.925  98.090 114.059  1.00  0.00     0.162 HD
ENDBRANCH  28  30
ENDBRANCH  26  28
ENDBRANCH  25  26
ENDBRANCH   6  25
TORSDOF 8
ENDMDL
MODEL 5
REMARK VINA RESULT: -8.199726709      4.944      9.145
REMARK  8 active torsions:
REMARK  status: ('A' for Active; 'I' for Inactive)
REMARK    1  A    between atoms: C3_6  and  C4_7 
REMARK    2  A    between atoms: C4_7  and  N2_8 
REMARK    3  A    between atoms: N2_8  and  N3_10 
REMARK    4  A    between atoms: N3_10  and  C5_12 
REMARK    5  A    between atoms: N7_21  and  C8_22 
REMARK       I    between atoms: N8_27  and  C12_28 
REMARK    6  A    between atoms: C12_28  and  C13_30 
REMARK    7  A    between atoms: C13_30  and  O3_31 
REMARK    8  A    between atoms: C13_30  and  O4_33 
ROOT
HETATM    1  N1  UNL     1      60.348  98.100 117.069  1.00  0.00    -0.384 N 
ATOM      2  H11 UNL     1      59.597  98.749 116.833  1.00  0.00     0.157 HD
ATOM      3  H12 UNL     1      59.923  97.218 117.353  1.00  0.00     0.157 HD
HETATM    4  C1  UNL     1      61.644  98.312 117.031  1.00  0.00     0.125 A 
HETATM    5  C2  UNL     1      62.647  97.446 117.346  1.00  0.00     0.082 A 
HETATM    6  C3  UNL     1      63.846  98.098 117.158  1.00  0.00     0.069 A 
HETATM    7  N6  UNL     1      63.513  99.330 116.738  1.00  0.00    -0.289 N 
ATOM      8  H6  UNL     1      64.187 100.060 116.511  1.00  0.00     0.188 HD
HETATM    9  N7  UNL     1      62.204  99.474 116.657  1.00  0.00    -0.222 N 
ENDROOT
BRANCH   9  10
HETATM   10  C8  UNL     1      61.480 100.637 116.250  1.00  0.00     0.144 A 
HETATM   11  C9  UNL     1      61.913 101.893 116.626  1.00  0.00     0.057 A 
HETATM   12  C10 UNL     1      61.181 102.984 116.209  1.00  0.00     0.080 A 
HETATM   13  C11 UNL     1      60.056 102.788 115.439  1.00  0.00     0.269 A 
HETATM   14  O1  UNL     1      59.356 103.763 115.037  1.00  0.00    -0.266 OA
HETATM   15  N8  UNL     1      59.640 101.545 115.076  1.00  0.00    -0.181 N 
HETATM   16  C12 UNL     1      58.487 101.342 114.288  1.00  0.00     0.300 C 
HETATM   17  N9  UNL     1      60.382 100.538 115.506  1.00  0.00    -0.272 N 
HETATM   18  O2  UNL     1      57.823 102.320 113.909  1.00  0.00    -0.266 OA
ATOM     19  H9  UNL     1      60.083  99.599 115.242  1.00  0.00     0.189 HD
BRANCH  16  20
HETATM   20  C13 UNL     1      58.082  99.978 113.923  1.00  0.00     0.351 C 
BRANCH  20  21
HETATM   21  O3  UNL     1      58.040  99.109 114.989  1.00  0.00    -0.363 OA
ATOM     22  H3  UNL     1      57.169  98.986 115.348  1.00  0.00     0.213 HD
ENDBRANCH  20  21
BRANCH  20  23
HETATM   23  O4  UNL     1      56.789  99.984 113.354  1.00  0.00    -0.363 OA
ATOM     24  H4  UNL     1      56.141 100.221 114.006  1.00  0.00     0.213 HD
ENDBRANCH  20  23
ENDBRANCH  16  20
ENDBRANCH   9  10
BRANCH   6  25
HETATM   25  C4  UNL     1      65.158  97.520 117.385  1.00  0.00     0.138 C 
BRANCH  25  26
HETATM   26  N2  UNL     1      66.138  97.757 116.600  1.00  0.00    -0.307 N 
ATOM     27  H2  UNL     1      66.299  98.707 116.265  1.00  0.00     0.186 HD
BRANCH  26  28
HETATM   28  N3  UNL     1      66.990  96.727 116.196  1.00  0.00    -0.272 N 
ATOM     29  H3  UNL     1      67.401  96.779 115.264  1.00  0.00     0.190 HD
BRANCH  28  30
HETATM   30  C5  UNL     1      67.312  95.618 117.004  1.00  0.00     0.190 C 
HETATM   31  N4  UNL     1      66.962  94.406 116.785  1.00  0.00    -0.360 N 
HETATM   32  C6  UNL     1      67.434  93.495 117.776  1.00  0.00     0.142 C 
ATOM     33  H4  UNL     1      66.401  94.121 115.982  1.00  0.00     0.162 HD
HETATM   34  C7  UNL     1      68.376  94.300 118.615  1.00  0.00     0.142 C 
HETATM   35  N5  UNL     1      68.077  95.662 118.194  1.00  0.00    -0.360 N 
ATOM     36  H5  UNL     1      68.371  96.510 118.679  1.00  0.00     0.162 HD
ENDBRANCH  28  30
ENDBRANCH  26  28
ENDBRANCH  25  26
ENDBRANCH   6  25
TORSDOF 8
ENDMDL
