MODEL 1
REMARK VINA RESULT: -7.367436349      0.000      0.000
REMARK  10 active torsions:
REMARK  status: ('A' for Active; 'I' for Inactive)
REMARK    1  A    between atoms: C3_4  and  O1_5 
REMARK    2  A    between atoms: C3_4  and  N2_7 
REMARK    3  A    between atoms: N2_7  and  O2_8 
REMARK    4  A    between atoms: O2_8  and  N3_9 
REMARK    5  A    between atoms: C6_15  and  N5_16 
REMARK    6  A    between atoms: C7_22  and  S1_23 
REMARK    7  A    between atoms: S1_23  and  C8_24 
REMARK    8  A    between atoms: C8_24  and  C9_25 
REMARK    9  A    between atoms: C9_25  and  N8_30 
REMARK   10  A    between atoms: N7_26  and  O3_28 
ROOT
HETATM    1  C1  UNL     1      66.261  97.568 121.145  1.00  0.00     0.171 C 
HETATM    2  N1  UNL     1      66.321  97.492 119.679  1.00  0.00    -0.324 N 
HETATM    3  C2  UNL     1      65.515  98.399 118.905  1.00  0.00     0.225 C 
HETATM    4  C3  UNL     1      65.111  97.836 117.574  1.00  0.00     0.255 C 
HETATM    5  N6  UNL     1      66.067  96.890 117.040  1.00  0.00    -0.321 N 
ATOM      6  H6  UNL     1      66.022  96.678 116.044  1.00  0.00     0.166 HD
HETATM    7  C7  UNL     1      67.064  96.238 117.814  1.00  0.00     0.158 C 
HETATM    8  N9  UNL     1      67.149  96.553 119.059  1.00  0.00    -0.282 N 
ATOM      9  H9  UNL     1      67.861  96.092 119.626  1.00  0.00     0.189 HD
ENDROOT
BRANCH   4  10
HETATM   10  O1  UNL     1      65.012  98.885 116.647  1.00  0.00    -0.354 OA
ATOM     11  H1  UNL     1      64.721  98.533 115.813  1.00  0.00     0.214 HD
ENDBRANCH   4  10
BRANCH   4  12
HETATM   12  N2  UNL     1      63.807  97.175 117.742  1.00  0.00    -0.016 NA
BRANCH  12  13
HETATM   13  O2  UNL     1      63.016  97.648 116.762  1.00  0.00    -0.182 OA
BRANCH  13  14
HETATM   14  N3  UNL     1      61.713  97.671 117.113  1.00  0.00    -0.118 NA
HETATM   15  C4  UNL     1      60.953  98.561 116.239  1.00  0.00     0.154 C 
HETATM   16  C5  UNL     1      61.559  99.912 116.632  1.00  0.00     0.253 C 
HETATM   17  N4  UNL     1      62.085  99.726 117.962  1.00  0.00    -0.030 N 
HETATM   18  C6  UNL     1      61.625  98.394 118.377  1.00  0.00     0.483 C 
ATOM     19  H42 UNL     1      63.095  99.850 118.026  1.00  0.00     0.281 HD
ATOM     20  H41 UNL     1      61.832 100.470 118.612  1.00  0.00     0.281 HD
BRANCH  18  21
HETATM   21  N5  UNL     1      60.256  98.545 118.811  1.00  0.00    -0.035 N 
ATOM     22  H53 UNL     1      59.672  98.932 118.070  1.00  0.00     0.278 HD
ATOM     23  H52 UNL     1      59.798  97.640 118.918  1.00  0.00     0.278 HD
ATOM     24  H51 UNL     1      60.190  99.099 119.665  1.00  0.00     0.278 HD
ENDBRANCH  18  21
ENDBRANCH  13  14
ENDBRANCH  12  13
ENDBRANCH   4  12
BRANCH   7  25
HETATM   25  S1  UNL     1      68.144  95.024 117.045  1.00  0.00    -0.085 SA
BRANCH  25  26
HETATM   26  C8  UNL     1      67.437  93.382 117.408  1.00  0.00     0.160 C 
BRANCH  26  27
HETATM   27  C9  UNL     1      67.764  92.923 118.753  1.00  0.00     0.108 C 
HETATM   28  N7  UNL     1      68.825  92.243 118.974  1.00  0.00    -0.256 N 
ATOM     29  H7  UNL     1      69.045  91.928 119.919  1.00  0.00     0.195 HD
BRANCH  28  30
HETATM   30  O3  UNL     1      69.666  91.939 117.935  1.00  0.00    -0.288 OA
ATOM     31  H3  UNL     1      70.510  92.369 117.872  1.00  0.00     0.244 HD
ENDBRANCH  28  30
BRANCH  27  32
HETATM   32  N8  UNL     1      66.907  93.229 119.837  1.00  0.00    -0.377 N 
HETATM   33  C10 UNL     1      65.449  93.261 119.660  1.00  0.00     0.150 C 
HETATM   34  C11 UNL     1      67.510  93.509 121.125  1.00  0.00     0.150 C 
ENDBRANCH  27  32
ENDBRANCH  26  27
ENDBRANCH  25  26
ENDBRANCH   7  25
TORSDOF 10
ENDMDL
MODEL 2
REMARK VINA RESULT: -6.916308414      1.817      2.527
REMARK  10 active torsions:
REMARK  status: ('A' for Active; 'I' for Inactive)
REMARK    1  A    between atoms: C3_4  and  O1_5 
REMARK    2  A    between atoms: C3_4  and  N2_7 
REMARK    3  A    between atoms: N2_7  and  O2_8 
REMARK    4  A    between atoms: O2_8  and  N3_9 
REMARK    5  A    between atoms: C6_15  and  N5_16 
REMARK    6  A    between atoms: C7_22  and  S1_23 
REMARK    7  A    between atoms: S1_23  and  C8_24 
REMARK    8  A    between atoms: C8_24  and  C9_25 
REMARK    9  A    between atoms: C9_25  and  N8_30 
REMARK   10  A    between atoms: N7_26  and  O3_28 
ROOT
HETATM    1  C1  UNL     1      65.403  96.213 123.132  1.00  0.00     0.171 C 
HETATM    2  N1  UNL     1      65.869  96.790 121.863  1.00  0.00    -0.324 N 
HETATM    3  C2  UNL     1      65.658  98.192 121.622  1.00  0.00     0.225 C 
HETATM    4  C3  UNL     1      65.512  98.522 120.165  1.00  0.00     0.255 C 
HETATM    5  N6  UNL     1      66.234  97.615 119.299  1.00  0.00    -0.321 N 
ATOM      6  H6  UNL     1      66.423  97.917 118.344  1.00  0.00     0.166 HD
HETATM    7  C7  UNL     1      66.698  96.332 119.694  1.00  0.00     0.158 C 
HETATM    8  N9  UNL     1      66.503  95.982 120.918  1.00  0.00    -0.282 N 
ATOM      9  H9  UNL     1      66.831  95.062 121.213  1.00  0.00     0.189 HD
ENDROOT
BRANCH   4  10
HETATM   10  O1  UNL     1      66.028  99.806 119.934  1.00  0.00    -0.354 OA
ATOM     11  H1  UNL     1      65.721 100.115 119.090  1.00  0.00     0.214 HD
ENDBRANCH   4  10
BRANCH   4  12
HETATM   12  N2  UNL     1      64.078  98.478 119.835  1.00  0.00    -0.016 NA
BRANCH  12  13
HETATM   13  O2  UNL     1      64.002  98.193 118.522  1.00  0.00    -0.182 OA
BRANCH  13  14
HETATM   14  N3  UNL     1      63.872  99.298 117.758  1.00  0.00    -0.118 NA
HETATM   15  C4  UNL     1      62.468  99.563 117.459  1.00  0.00     0.154 C 
HETATM   16  C5  UNL     1      62.144  98.354 116.577  1.00  0.00     0.253 C 
HETATM   17  N4  UNL     1      63.408  97.924 116.033  1.00  0.00    -0.030 N 
HETATM   18  C6  UNL     1      64.372  98.960 116.430  1.00  0.00     0.483 C 
ATOM     19  H42 UNL     1      63.678  96.982 116.313  1.00  0.00     0.281 HD
ATOM     20  H41 UNL     1      63.385  97.748 115.029  1.00  0.00     0.281 HD
BRANCH  18  21
HETATM   21  N5  UNL     1      64.210 100.054 115.504  1.00  0.00    -0.035 N 
ATOM     22  H53 UNL     1      64.783  99.925 114.670  1.00  0.00     0.278 HD
ATOM     23  H52 UNL     1      63.289 100.038 115.067  1.00  0.00     0.278 HD
ATOM     24  H51 UNL     1      64.395 100.954 115.947  1.00  0.00     0.278 HD
ENDBRANCH  18  21
ENDBRANCH  13  14
ENDBRANCH  12  13
ENDBRANCH   4  12
BRANCH   7  25
HETATM   25  S1  UNL     1      67.517  95.268 118.499  1.00  0.00    -0.085 SA
BRANCH  25  26
HETATM   26  C8  UNL     1      68.591  94.138 119.448  1.00  0.00     0.160 C 
BRANCH  26  27
HETATM   27  C9  UNL     1      68.057  92.782 119.501  1.00  0.00     0.108 C 
HETATM   28  N7  UNL     1      68.587  91.840 118.815  1.00  0.00    -0.256 N 
ATOM     29  H7  UNL     1      68.205  90.896 118.861  1.00  0.00     0.195 HD
BRANCH  28  30
HETATM   30  O3  UNL     1      69.670  92.107 118.019  1.00  0.00    -0.288 OA
ATOM     31  H3  UNL     1      69.719  91.729 117.149  1.00  0.00     0.244 HD
ENDBRANCH  28  30
BRANCH  27  32
HETATM   32  N8  UNL     1      66.939  92.490 120.318  1.00  0.00    -0.377 N 
HETATM   33  C10 UNL     1      67.044  92.532 121.783  1.00  0.00     0.150 C 
HETATM   34  C11 UNL     1      65.690  92.147 119.668  1.00  0.00     0.150 C 
ENDBRANCH  27  32
ENDBRANCH  26  27
ENDBRANCH  25  26
ENDBRANCH   7  25
TORSDOF 10
ENDMDL
MODEL 3
REMARK VINA RESULT: -6.876993106      1.754      2.492
REMARK  10 active torsions:
REMARK  status: ('A' for Active; 'I' for Inactive)
REMARK    1  A    between atoms: C3_4  and  O1_5 
REMARK    2  A    between atoms: C3_4  and  N2_7 
REMARK    3  A    between atoms: N2_7  and  O2_8 
REMARK    4  A    between atoms: O2_8  and  N3_9 
REMARK    5  A    between atoms: C6_15  and  N5_16 
REMARK    6  A    between atoms: C7_22  and  S1_23 
REMARK    7  A    between atoms: S1_23  and  C8_24 
REMARK    8  A    between atoms: C8_24  and  C9_25 
REMARK    9  A    between atoms: C9_25  and  N8_30 
REMARK   10  A    between atoms: N7_26  and  O3_28 
ROOT
HETATM    1  C1  UNL     1      62.386  96.691 119.617  1.00  0.00     0.171 C 
HETATM    2  N1  UNL     1      63.829  96.757 119.343  1.00  0.00    -0.324 N 
HETATM    3  C2  UNL     1      64.528  97.987 119.604  1.00  0.00     0.225 C 
HETATM    4  C3  UNL     1      65.715  98.188 118.709  1.00  0.00     0.255 C 
HETATM    5  N6  UNL     1      66.321  96.948 118.276  1.00  0.00    -0.321 N 
ATOM      6  H6  UNL     1      67.273  96.984 117.911  1.00  0.00     0.166 HD
HETATM    7  C7  UNL     1      65.677  95.683 118.327  1.00  0.00     0.158 C 
HETATM    8  N9  UNL     1      64.497  95.638 118.841  1.00  0.00    -0.282 N 
ATOM      9  H9  UNL     1      64.024  94.736 118.883  1.00  0.00     0.189 HD
ENDROOT
BRANCH   4  10
HETATM   10  O1  UNL     1      66.699  98.901 119.411  1.00  0.00    -0.354 OA
ATOM     11  H1  UNL     1      67.227  98.289 119.910  1.00  0.00     0.214 HD
ENDBRANCH   4  10
BRANCH   4  12
HETATM   12  N2  UNL     1      65.268  98.953 117.533  1.00  0.00    -0.016 NA
BRANCH  12  13
HETATM   13  O2  UNL     1      64.355  99.834 117.982  1.00  0.00    -0.182 OA
BRANCH  13  14
HETATM   14  N3  UNL     1      63.845 100.600 116.994  1.00  0.00    -0.118 NA
HETATM   15  C4  UNL     1      62.502 101.062 117.334  1.00  0.00     0.154 C 
HETATM   16  C5  UNL     1      61.744  99.731 117.321  1.00  0.00     0.253 C 
HETATM   17  N4  UNL     1      62.515  98.857 116.471  1.00  0.00    -0.030 N 
HETATM   18  C6  UNL     1      63.551  99.712 115.875  1.00  0.00     0.483 C 
ATOM     19  H42 UNL     1      62.885  98.038 116.951  1.00  0.00     0.281 HD
ATOM     20  H41 UNL     1      61.955  98.351 115.786  1.00  0.00     0.281 HD
BRANCH  18  21
HETATM   21  N5  UNL     1      62.926 100.420 114.783  1.00  0.00    -0.035 N 
ATOM     22  H53 UNL     1      62.192  99.860 114.348  1.00  0.00     0.278 HD
ATOM     23  H52 UNL     1      62.355 101.195 115.120  1.00  0.00     0.278 HD
ATOM     24  H51 UNL     1      63.611 100.734 114.096  1.00  0.00     0.278 HD
ENDBRANCH  18  21
ENDBRANCH  13  14
ENDBRANCH  12  13
ENDBRANCH   4  12
BRANCH   7  25
HETATM   25  S1  UNL     1      66.512  94.226 117.687  1.00  0.00    -0.085 SA
BRANCH  25  26
HETATM   26  C8  UNL     1      68.138  94.143 118.510  1.00  0.00     0.160 C 
BRANCH  26  27
HETATM   27  C9  UNL     1      68.229  93.027 119.445  1.00  0.00     0.108 C 
HETATM   28  N7  UNL     1      68.921  91.989 119.162  1.00  0.00    -0.256 N 
ATOM     29  H7  UNL     1      68.977  91.215 119.824  1.00  0.00     0.195 HD
BRANCH  28  30
HETATM   30  O3  UNL     1      69.586  91.921 117.965  1.00  0.00    -0.288 OA
ATOM     31  H3  UNL     1      70.429  92.348 117.872  1.00  0.00     0.244 HD
ENDBRANCH  28  30
BRANCH  27  32
HETATM   32  N8  UNL     1      67.548  93.081 120.684  1.00  0.00    -0.377 N 
HETATM   33  C10 UNL     1      67.488  94.328 121.459  1.00  0.00     0.150 C 
HETATM   34  C11 UNL     1      66.914  91.870 121.167  1.00  0.00     0.150 C 
ENDBRANCH  27  32
ENDBRANCH  26  27
ENDBRANCH  25  26
ENDBRANCH   7  25
TORSDOF 10
ENDMDL
MODEL 4
REMARK VINA RESULT: -6.771117554      2.429      7.031
REMARK  10 active torsions:
REMARK  status: ('A' for Active; 'I' for Inactive)
REMARK    1  A    between atoms: C3_4  and  O1_5 
REMARK    2  A    between atoms: C3_4  and  N2_7 
REMARK    3  A    between atoms: N2_7  and  O2_8 
REMARK    4  A    between atoms: O2_8  and  N3_9 
REMARK    5  A    between atoms: C6_15  and  N5_16 
REMARK    6  A    between atoms: C7_22  and  S1_23 
REMARK    7  A    between atoms: S1_23  and  C8_24 
REMARK    8  A    between atoms: C8_24  and  C9_25 
REMARK    9  A    between atoms: C9_25  and  N8_30 
REMARK   10  A    between atoms: N7_26  and  O3_28 
ROOT
HETATM    1  C1  UNL     1      68.047  95.876 116.421  1.00  0.00     0.171 C 
HETATM    2  N1  UNL     1      67.053  96.527 117.286  1.00  0.00    -0.324 N 
HETATM    3  C2  UNL     1      67.032  96.197 118.686  1.00  0.00     0.225 C 
HETATM    4  C3  UNL     1      65.668  96.327 119.298  1.00  0.00     0.255 C 
HETATM    5  N6  UNL     1      64.845  97.328 118.654  1.00  0.00    -0.321 N 
ATOM      6  H6  UNL     1      64.034  97.678 119.163  1.00  0.00     0.166 HD
HETATM    7  C7  UNL     1      65.095  97.854 117.358  1.00  0.00     0.158 C 
HETATM    8  N9  UNL     1      66.152  97.447 116.746  1.00  0.00    -0.282 N 
ATOM      9  H9  UNL     1      66.342  97.817 115.815  1.00  0.00     0.189 HD
ENDROOT
BRANCH   4  10
HETATM   10  O1  UNL     1      65.807  96.715 120.641  1.00  0.00    -0.354 OA
ATOM     11  H1  UNL     1      64.946  96.903 120.998  1.00  0.00     0.214 HD
ENDBRANCH   4  10
BRANCH   4  12
HETATM   12  N2  UNL     1      65.007  95.016 119.209  1.00  0.00    -0.016 NA
BRANCH  12  13
HETATM   13  O2  UNL     1      65.836  94.134 119.796  1.00  0.00    -0.182 OA
BRANCH  13  14
HETATM   14  N3  UNL     1      65.390  92.864 119.709  1.00  0.00    -0.118 NA
HETATM   15  C4  UNL     1      66.475  91.913 119.937  1.00  0.00     0.154 C 
HETATM   16  C5  UNL     1      67.339  92.183 118.702  1.00  0.00     0.253 C 
HETATM   17  N4  UNL     1      66.442  92.741 117.719  1.00  0.00    -0.030 N 
HETATM   18  C6  UNL     1      65.100  92.610 118.302  1.00  0.00     0.483 C 
ATOM     19  H42 UNL     1      66.679  93.693 117.441  1.00  0.00     0.281 HD
ATOM     20  H41 UNL     1      66.533  92.320 116.795  1.00  0.00     0.281 HD
BRANCH  18  21
HETATM   21  N5  UNL     1      64.684  91.245 118.081  1.00  0.00    -0.035 N 
ATOM     22  H53 UNL     1      64.369  91.103 117.121  1.00  0.00     0.278 HD
ATOM     23  H52 UNL     1      65.481  90.609 118.082  1.00  0.00     0.278 HD
ATOM     24  H51 UNL     1      63.974  90.954 118.753  1.00  0.00     0.278 HD
ENDBRANCH  18  21
ENDBRANCH  13  14
ENDBRANCH  12  13
ENDBRANCH   4  12
BRANCH   7  25
HETATM   25  S1  UNL     1      63.953  99.040 116.637  1.00  0.00    -0.085 SA
BRANCH  25  26
HETATM   26  C8  UNL     1      62.423  98.127 116.241  1.00  0.00     0.160 C 
BRANCH  26  27
HETATM   27  C9  UNL     1      61.307  98.524 117.091  1.00  0.00     0.108 C 
HETATM   28  N7  UNL     1      61.090  97.937 118.207  1.00  0.00    -0.256 N 
ATOM     29  H7  UNL     1      60.306  98.223 118.793  1.00  0.00     0.195 HD
BRANCH  28  30
HETATM   30  O3  UNL     1      61.915  96.919 118.610  1.00  0.00    -0.288 OA
ATOM     31  H3  UNL     1      61.626  96.320 119.288  1.00  0.00     0.244 HD
ENDBRANCH  28  30
BRANCH  27  32
HETATM   32  N8  UNL     1      60.445  99.572 116.689  1.00  0.00    -0.377 N 
HETATM   33  C10 UNL     1      60.585 100.922 117.253  1.00  0.00     0.150 C 
HETATM   34  C11 UNL     1      59.421  99.275 115.707  1.00  0.00     0.150 C 
ENDBRANCH  27  32
ENDBRANCH  26  27
ENDBRANCH  25  26
ENDBRANCH   7  25
TORSDOF 10
ENDMDL
MODEL 5
REMARK VINA RESULT: -6.732817032      1.488      1.632
REMARK  10 active torsions:
REMARK  status: ('A' for Active; 'I' for Inactive)
REMARK    1  A    between atoms: C3_4  and  O1_5 
REMARK    2  A    between atoms: C3_4  and  N2_7 
REMARK    3  A    between atoms: N2_7  and  O2_8 
REMARK    4  A    between atoms: O2_8  and  N3_9 
REMARK    5  A    between atoms: C6_15  and  N5_16 
REMARK    6  A    between atoms: C7_22  and  S1_23 
REMARK    7  A    between atoms: S1_23  and  C8_24 
REMARK    8  A    between atoms: C8_24  and  C9_25 
REMARK    9  A    between atoms: C9_25  and  N8_30 
REMARK   10  A    between atoms: N7_26  and  O3_28 
ROOT
HETATM    1  C1  UNL     1      65.506  98.334 120.712  1.00  0.00     0.171 C 
HETATM    2  N1  UNL     1      65.198  97.577 119.491  1.00  0.00    -0.324 N 
HETATM    3  C2  UNL     1      64.483  98.235 118.431  1.00  0.00     0.225 C 
HETATM    4  C3  UNL     1      63.651  97.293 117.611  1.00  0.00     0.255 C 
HETATM    5  N6  UNL     1      64.189  95.951 117.560  1.00  0.00    -0.321 N 
ATOM      6  H6  UNL     1      63.860  95.333 116.819  1.00  0.00     0.166 HD
HETATM    7  C7  UNL     1      65.147  95.439 118.476  1.00  0.00     0.158 C 
HETATM    8  N9  UNL     1      65.598  96.244 119.374  1.00  0.00    -0.282 N 
ATOM      9  H9  UNL     1      66.286  95.888 120.038  1.00  0.00     0.189 HD
ENDROOT
BRANCH   4  10
HETATM   10  O1  UNL     1      63.599  97.762 116.289  1.00  0.00    -0.354 OA
ATOM     11  H1  UNL     1      62.829  98.310 116.186  1.00  0.00     0.214 HD
ENDBRANCH   4  10
BRANCH   4  12
HETATM   12  N2  UNL     1      62.301  97.258 118.197  1.00  0.00    -0.016 NA
BRANCH  12  13
HETATM   13  O2  UNL     1      61.456  97.632 117.218  1.00  0.00    -0.182 OA
BRANCH  13  14
HETATM   14  N3  UNL     1      60.527  98.513 117.643  1.00  0.00    -0.118 NA
HETATM   15  C4  UNL     1      59.637  98.899 116.551  1.00  0.00     0.154 C 
HETATM   16  C5  UNL     1      60.617  99.660 115.655  1.00  0.00     0.253 C 
HETATM   17  N4  UNL     1      61.675 100.101 116.530  1.00  0.00    -0.030 N 
HETATM   18  C6  UNL     1      61.217  99.775 117.887  1.00  0.00     0.483 C 
ATOM     19  H42 UNL     1      62.589  99.711 116.299  1.00  0.00     0.281 HD
ATOM     20  H41 UNL     1      61.930 101.081 116.406  1.00  0.00     0.281 HD
BRANCH  18  21
HETATM   21  N5  UNL     1      60.299 100.819 118.276  1.00  0.00    -0.035 N 
ATOM     22  H53 UNL     1      59.361 100.644 117.913  1.00  0.00     0.278 HD
ATOM     23  H52 UNL     1      60.093 100.779 119.274  1.00  0.00     0.278 HD
ATOM     24  H51 UNL     1      60.638 101.741 118.002  1.00  0.00     0.278 HD
ENDBRANCH  18  21
ENDBRANCH  13  14
ENDBRANCH  12  13
ENDBRANCH   4  12
BRANCH   7  25
HETATM   25  S1  UNL     1      65.681  93.727 118.352  1.00  0.00    -0.085 SA
BRANCH  25  26
HETATM   26  C8  UNL     1      67.500  93.728 118.503  1.00  0.00     0.160 C 
BRANCH  26  27
HETATM   27  C9  UNL     1      67.975  92.742 119.466  1.00  0.00     0.108 C 
HETATM   28  N7  UNL     1      68.914  91.927 119.162  1.00  0.00    -0.256 N 
ATOM     29  H7  UNL     1      69.238  91.242 119.844  1.00  0.00     0.195 HD
BRANCH  28  30
HETATM   30  O3  UNL     1      69.482  91.981 117.915  1.00  0.00    -0.288 OA
ATOM     31  H3  UNL     1      70.416  91.844 117.818  1.00  0.00     0.244 HD
ENDBRANCH  28  30
BRANCH  27  32
HETATM   32  N8  UNL     1      67.399  92.674 120.757  1.00  0.00    -0.377 N 
HETATM   33  C10 UNL     1      66.727  91.452 121.221  1.00  0.00     0.150 C 
HETATM   34  C11 UNL     1      67.492  93.844 121.607  1.00  0.00     0.150 C 
ENDBRANCH  27  32
ENDBRANCH  26  27
ENDBRANCH  25  26
ENDBRANCH   7  25
TORSDOF 10
ENDMDL
