MODEL 1
REMARK VINA RESULT: -9.505668795      0.000      0.000
REMARK  0 active torsions:
REMARK  status: ('A' for Active; 'I' for Inactive)
ROOT
HETATM    1  O1  UNL     1       0.305  48.280 166.571  1.00  0.00    -0.267 OA
HETATM    2  C1  UNL     1      -0.162  49.283 165.951  1.00  0.00     0.257 A 
HETATM    3  N1  UNL     1      -1.504  49.374 165.785  1.00  0.00    -0.319 N 
ATOM      4  H1  UNL     1      -2.120  48.650 166.152  1.00  0.00     0.169 HD
HETATM    5  C2  UNL     1      -2.010  50.429 165.132  1.00  0.00     0.099 A 
HETATM    6  C3  UNL     1      -1.171  51.406 164.637  1.00  0.00     0.074 A 
HETATM    7  N2  UNL     1      -1.946  52.328 164.037  1.00  0.00    -0.351 N 
ATOM      8  H2  UNL     1      -1.609  53.173 163.575  1.00  0.00     0.166 HD
HETATM    9  C4  UNL     1      -3.232  51.961 164.141  1.00  0.00     0.082 A 
HETATM   10  C5  UNL     1      -4.550  52.307 163.829  1.00  0.00     0.027 A 
HETATM   11  C6  UNL     1      -5.002  53.418 163.147  1.00  0.00     0.017 A 
HETATM   12  C7  UNL     1      -6.372  53.523 162.970  1.00  0.00     0.001 A 
HETATM   13  C8  UNL     1      -7.216  52.540 163.468  1.00  0.00     0.003 A 
HETATM   14  C9  UNL     1      -6.721  51.432 164.152  1.00  0.00     0.038 A 
HETATM   15  C10 UNL     1      -5.349  51.327 164.328  1.00  0.00     0.088 A 
HETATM   16  O2  UNL     1      -4.592  50.429 164.913  1.00  0.00    -0.305 OA
HETATM   17  C11 UNL     1      -3.325  50.765 164.825  1.00  0.00     0.132 A 
HETATM   18  C12 UNL     1       0.215  51.317 164.805  1.00  0.00     0.009 A 
HETATM   19  C13 UNL     1       1.005  52.325 164.287  1.00  0.00     0.015 A 
HETATM   20  C14 UNL     1       2.371  52.228 164.459  1.00  0.00     0.001 A 
HETATM   21  C15 UNL     1       2.887  51.140 165.133  1.00  0.00     0.001 A 
HETATM   22  C16 UNL     1       2.084  50.139 165.645  1.00  0.00     0.018 A 
HETATM   23  C17 UNL     1       0.714  50.236 165.473  1.00  0.00     0.044 A 
ENDROOT
TORSDOF 0
ENDMDL
MODEL 2
REMARK VINA RESULT: -9.440942686      0.934      6.362
REMARK  0 active torsions:
REMARK  status: ('A' for Active; 'I' for Inactive)
ROOT
HETATM    1  O1  UNL     1      -6.157  49.157 165.476  1.00  0.00    -0.267 OA
HETATM    2  C1  UNL     1      -5.238  49.955 165.117  1.00  0.00     0.257 A 
HETATM    3  N1  UNL     1      -3.955  49.638 165.411  1.00  0.00    -0.319 N 
ATOM      4  H1  UNL     1      -3.736  48.776 165.909  1.00  0.00     0.169 HD
HETATM    5  C2  UNL     1      -2.975  50.472 165.037  1.00  0.00     0.099 A 
HETATM    6  C3  UNL     1      -3.276  51.638 164.363  1.00  0.00     0.074 A 
HETATM    7  N2  UNL     1      -2.113  52.268 164.119  1.00  0.00    -0.351 N 
ATOM      8  H2  UNL     1      -2.014  53.160 163.634  1.00  0.00     0.166 HD
HETATM    9  C4  UNL     1      -1.102  51.539 164.617  1.00  0.00     0.082 A 
HETATM   10  C5  UNL     1       0.284  51.468 164.783  1.00  0.00     0.027 A 
HETATM   11  C6  UNL     1       1.241  52.372 164.369  1.00  0.00     0.017 A 
HETATM   12  C7  UNL     1       2.558  52.059 164.663  1.00  0.00     0.001 A 
HETATM   13  C8  UNL     1       2.862  50.887 165.342  1.00  0.00     0.003 A 
HETATM   14  C9  UNL     1       1.866  49.999 165.744  1.00  0.00     0.038 A 
HETATM   15  C10 UNL     1       0.547  50.312 165.449  1.00  0.00     0.088 A 
HETATM   16  O2  UNL     1      -0.588  49.698 165.685  1.00  0.00    -0.305 OA
HETATM   17  C11 UNL     1      -1.597  50.393 165.208  1.00  0.00     0.132 A 
HETATM   18  C12 UNL     1      -4.600  51.970 164.057  1.00  0.00     0.009 A 
HETATM   19  C13 UNL     1      -4.842  53.150 163.380  1.00  0.00     0.015 A 
HETATM   20  C14 UNL     1      -6.151  53.469 163.083  1.00  0.00     0.001 A 
HETATM   21  C15 UNL     1      -7.156  52.606 163.470  1.00  0.00     0.001 A 
HETATM   22  C16 UNL     1      -6.900  51.428 164.148  1.00  0.00     0.018 A 
HETATM   23  C17 UNL     1      -5.586  51.109 164.445  1.00  0.00     0.044 A 
ENDROOT
TORSDOF 0
ENDMDL
MODEL 3
REMARK VINA RESULT: -9.339659343      1.012      1.077
REMARK  0 active torsions:
REMARK  status: ('A' for Active; 'I' for Inactive)
ROOT
HETATM    1  O1  UNL     1       1.519  48.799 165.691  1.00  0.00    -0.267 OA
HETATM    2  C1  UNL     1       0.816  49.828 165.455  1.00  0.00     0.257 A 
HETATM    3  N1  UNL     1      -0.501  49.664 165.183  1.00  0.00    -0.319 N 
ATOM      4  H1  UNL     1      -0.913  48.732 165.169  1.00  0.00     0.169 HD
HETATM    5  C2  UNL     1      -1.254  50.743 164.932  1.00  0.00     0.099 A 
HETATM    6  C3  UNL     1      -0.690  52.002 164.951  1.00  0.00     0.074 A 
HETATM    7  N2  UNL     1      -1.670  52.880 164.667  1.00  0.00    -0.351 N 
ATOM      8  H2  UNL     1      -1.557  53.892 164.608  1.00  0.00     0.166 HD
HETATM    9  C4  UNL     1      -2.818  52.214 164.472  1.00  0.00     0.082 A 
HETATM   10  C5  UNL     1      -4.176  52.340 164.167  1.00  0.00     0.027 A 
HETATM   11  C6  UNL     1      -4.892  53.494 163.918  1.00  0.00     0.017 A 
HETATM   12  C7  UNL     1      -6.239  53.340 163.638  1.00  0.00     0.001 A 
HETATM   13  C8  UNL     1      -6.807  52.073 163.618  1.00  0.00     0.003 A 
HETATM   14  C9  UNL     1      -6.050  50.932 163.875  1.00  0.00     0.038 A 
HETATM   15  C10 UNL     1      -4.701  51.087 164.155  1.00  0.00     0.088 A 
HETATM   16  O2  UNL     1      -3.745  50.232 164.433  1.00  0.00    -0.305 OA
HETATM   17  C11 UNL     1      -2.607  50.859 164.628  1.00  0.00     0.132 A 
HETATM   18  C12 UNL     1       0.669  52.178 165.232  1.00  0.00     0.009 A 
HETATM   19  C13 UNL     1       1.178  53.462 165.237  1.00  0.00     0.015 A 
HETATM   20  C14 UNL     1       2.520  53.624 165.515  1.00  0.00     0.001 A 
HETATM   21  C15 UNL     1       3.291  52.509 165.774  1.00  0.00     0.001 A 
HETATM   22  C16 UNL     1       2.768  51.230 165.764  1.00  0.00     0.018 A 
HETATM   23  C17 UNL     1       1.422  51.068 165.485  1.00  0.00     0.044 A 
ENDROOT
TORSDOF 0
ENDMDL
MODEL 4
REMARK VINA RESULT: -9.224570740      1.906      6.841
REMARK  0 active torsions:
REMARK  status: ('A' for Active; 'I' for Inactive)
ROOT
HETATM    1  O1  UNL     1      -5.351  54.398 164.180  1.00  0.00    -0.267 OA
HETATM    2  C1  UNL     1      -4.534  53.450 164.388  1.00  0.00     0.257 A 
HETATM    3  N1  UNL     1      -3.220  53.748 164.531  1.00  0.00    -0.319 N 
ATOM      4  H1  UNL     1      -2.900  54.714 164.472  1.00  0.00     0.169 HD
HETATM    5  C2  UNL     1      -2.347  52.756 164.751  1.00  0.00     0.099 A 
HETATM    6  C3  UNL     1      -2.786  51.450 164.829  1.00  0.00     0.074 A 
HETATM    7  N2  UNL     1      -1.705  50.680 165.052  1.00  0.00    -0.351 N 
ATOM      8  H2  UNL     1      -1.714  49.666 165.157  1.00  0.00     0.166 HD
HETATM    9  C4  UNL     1      -0.614  51.458 165.116  1.00  0.00     0.082 A 
HETATM   10  C5  UNL     1       0.772  51.472 165.298  1.00  0.00     0.027 A 
HETATM   11  C6  UNL     1       1.615  50.402 165.521  1.00  0.00     0.017 A 
HETATM   12  C7  UNL     1       2.961  50.693 165.669  1.00  0.00     0.001 A 
HETATM   13  C8  UNL     1       3.403  52.007 165.590  1.00  0.00     0.003 A 
HETATM   14  C9  UNL     1       2.520  53.060 165.363  1.00  0.00     0.038 A 
HETATM   15  C10 UNL     1       1.173  52.768 165.215  1.00  0.00     0.088 A 
HETATM   16  O2  UNL     1       0.118  53.518 164.998  1.00  0.00    -0.305 OA
HETATM   17  C11 UNL     1      -0.968  52.779 164.930  1.00  0.00     0.132 A 
HETATM   18  C12 UNL     1      -4.142  51.137 164.682  1.00  0.00     0.009 A 
HETATM   19  C13 UNL     1      -4.523  49.812 164.769  1.00  0.00     0.015 A 
HETATM   20  C14 UNL     1      -5.862  49.514 164.623  1.00  0.00     0.001 A 
HETATM   21  C15 UNL     1      -6.758  50.540 164.398  1.00  0.00     0.001 A 
HETATM   22  C16 UNL     1      -6.361  51.861 164.312  1.00  0.00     0.018 A 
HETATM   23  C17 UNL     1      -5.018  52.160 164.458  1.00  0.00     0.044 A 
ENDROOT
TORSDOF 0
ENDMDL
MODEL 5
REMARK VINA RESULT: -9.080708169      2.185      6.434
REMARK  0 active torsions:
REMARK  status: ('A' for Active; 'I' for Inactive)
ROOT
HETATM    1  O1  UNL     1      -6.804  53.581 163.077  1.00  0.00    -0.267 OA
HETATM    2  C1  UNL     1      -5.597  53.240 162.889  1.00  0.00     0.257 A 
HETATM    3  N1  UNL     1      -4.978  52.500 163.840  1.00  0.00    -0.319 N 
ATOM      4  H1  UNL     1      -5.475  52.227 164.687  1.00  0.00     0.169 HD
HETATM    5  C2  UNL     1      -3.704  52.133 163.652  1.00  0.00     0.099 A 
HETATM    6  C3  UNL     1      -3.036  52.505 162.504  1.00  0.00     0.074 A 
HETATM    7  N2  UNL     1      -1.790  52.003 162.588  1.00  0.00    -0.351 N 
ATOM      8  H2  UNL     1      -1.060  52.114 161.884  1.00  0.00     0.166 HD
HETATM    9  C4  UNL     1      -1.660  51.333 163.743  1.00  0.00     0.082 A 
HETATM   10  C5  UNL     1      -0.789  50.585 164.540  1.00  0.00     0.027 A 
HETATM   11  C6  UNL     1       0.522  50.242 164.282  1.00  0.00     0.017 A 
HETATM   12  C7  UNL     1       1.167  49.486 165.246  1.00  0.00     0.001 A 
HETATM   13  C8  UNL     1       0.496  49.111 166.402  1.00  0.00     0.003 A 
HETATM   14  C9  UNL     1      -0.829  49.477 166.626  1.00  0.00     0.038 A 
HETATM   15  C10 UNL     1      -1.475  50.234 165.660  1.00  0.00     0.088 A 
HETATM   16  O2  UNL     1      -2.689  50.724 165.577  1.00  0.00    -0.305 OA
HETATM   17  C11 UNL     1      -2.843  51.387 164.452  1.00  0.00     0.132 A 
HETATM   18  C12 UNL     1      -3.670  53.269 161.518  1.00  0.00     0.009 A 
HETATM   19  C13 UNL     1      -2.952  53.613 160.390  1.00  0.00     0.015 A 
HETATM   20  C14 UNL     1      -3.587  54.366 159.424  1.00  0.00     0.001 A 
HETATM   21  C15 UNL     1      -4.900  54.742 159.621  1.00  0.00     0.001 A 
HETATM   22  C16 UNL     1      -5.607  54.391 160.757  1.00  0.00     0.018 A 
HETATM   23  C17 UNL     1      -4.969  53.636 161.725  1.00  0.00     0.044 A 
ENDROOT
TORSDOF 0
ENDMDL
