MODEL 1
REMARK VINA RESULT: -7.564785370      0.000      0.000
REMARK  3 active torsions:
REMARK  status: ('A' for Active; 'I' for Inactive)
REMARK    1  A    between atoms: C15_20  and  C16_21 
REMARK    2  A    between atoms: C20_26  and  O4_27 
REMARK    3  A    between atoms: C22_29  and  O5_30 
ROOT
HETATM    1  C16 UNL     1       6.690  48.948  58.859  1.00  0.00    -0.001 A 
HETATM    2  C17 UNL     1       6.929  49.872  57.886  1.00  0.00     0.053 A 
HETATM    3  C18 UNL     1       7.689  49.624  56.734  1.00  0.00     0.105 A 
HETATM    4  O3  UNL     1       7.870  50.549  55.855  1.00  0.00    -0.353 OA
HETATM    5  C19 UNL     1       8.030  51.499  54.995  1.00  0.00     0.210 C 
HETATM    6  C20 UNL     1       8.239  48.327  56.588  1.00  0.00     0.135 A 
HETATM    7  C22 UNL     1       8.006  47.392  57.560  1.00  0.00     0.105 A 
HETATM    8  C24 UNL     1       7.247  47.701  58.668  1.00  0.00     0.053 A 
ENDROOT
BRANCH   6   9
HETATM    9  O4  UNL     1       8.995  48.059  55.455  1.00  0.00    -0.351 OA
HETATM   10  C21 UNL     1       8.462  47.696  54.212  1.00  0.00     0.210 C 
ENDBRANCH   6   9
BRANCH   1  11
HETATM   11  C15 UNL     1       5.889  49.293  60.042  1.00  0.00     0.073 A 
HETATM   12  N2  UNL     1       5.678  49.972  61.247  1.00  0.00    -0.340 N 
HETATM   13  C13 UNL     1       5.769  50.806  62.429  1.00  0.00     0.149 C 
HETATM   14  C14 UNL     1       4.749  49.127  60.799  1.00  0.00     0.076 A 
HETATM   15  C12 UNL     1       4.896  50.293  63.505  1.00  0.00     0.146 C 
HETATM   16  N1  UNL     1       3.527  50.705  63.496  1.00  0.00    -0.344 N 
HETATM   17  C5  UNL     1       2.943  51.703  62.661  1.00  0.00     0.109 C 
HETATM   18  C11 UNL     1       2.677  50.029  64.437  1.00  0.00     0.221 C 
HETATM   19  C4  UNL     1       2.575  51.116  61.338  1.00  0.00     0.155 C 
HETATM   20  C6  UNL     1       1.893  52.552  63.313  1.00  0.00     0.037 C 
HETATM   21  C3  UNL     1       2.337  49.652  61.392  1.00  0.00     0.177 C 
HETATM   22 BR1  UNL     1       1.015  51.940  60.550  1.00  0.00    -0.081 Br
HETATM   23  C2  UNL     1       3.456  48.679  61.269  1.00  0.00     0.031 C 
HETATM   24  O1  UNL     1       1.161  49.222  61.545  1.00  0.00    -0.291 OA
HETATM   25  C1  UNL     1       3.191  47.427  61.591  1.00  0.00     0.030 C 
HETATM   26  C7  UNL     1       1.608  52.142  64.745  1.00  0.00    -0.030 A 
HETATM   27  C8  UNL     1       2.196  52.897  65.887  1.00  0.00     0.011 A 
HETATM   28  C9  UNL     1       0.695  52.996  65.534  1.00  0.00     0.011 A 
HETATM   29  C10 UNL     1       1.380  50.654  64.860  1.00  0.00     0.112 C 
HETATM   30  O2  UNL     1       3.004  48.910  64.920  1.00  0.00    -0.273 OA
ENDBRANCH   1  11
BRANCH   7  31
HETATM   31  O5  UNL     1       8.571  46.136  57.363  1.00  0.00    -0.353 OA
HETATM   32  C23 UNL     1       9.575  45.733  58.290  1.00  0.00     0.210 C 
ENDBRANCH   7  31
TORSDOF 3
ENDMDL
MODEL 2
REMARK VINA RESULT: -7.284454100      6.779      9.707
REMARK  3 active torsions:
REMARK  status: ('A' for Active; 'I' for Inactive)
REMARK    1  A    between atoms: C15_20  and  C16_21 
REMARK    2  A    between atoms: C20_26  and  O4_27 
REMARK    3  A    between atoms: C22_29  and  O5_30 
ROOT
HETATM    1  C16 UNL     1      13.956  48.664  61.635  1.00  0.00    -0.001 A 
HETATM    2  C17 UNL     1      14.521  48.278  62.813  1.00  0.00     0.053 A 
HETATM    3  C18 UNL     1      15.746  48.760  63.294  1.00  0.00     0.105 A 
HETATM    4  O3  UNL     1      16.217  48.349  64.422  1.00  0.00    -0.353 OA
HETATM    5  C19 UNL     1      16.657  47.916  65.556  1.00  0.00     0.210 C 
HETATM    6  C20 UNL     1      16.430  49.705  62.492  1.00  0.00     0.135 A 
HETATM    7  C22 UNL     1      15.873  50.099  61.306  1.00  0.00     0.105 A 
HETATM    8  C24 UNL     1      14.662  49.587  60.891  1.00  0.00     0.053 A 
ENDROOT
BRANCH   6   9
HETATM    9  O4  UNL     1      17.646  50.196  62.948  1.00  0.00    -0.351 OA
HETATM   10  C21 UNL     1      17.785  51.240  63.871  1.00  0.00     0.210 C 
ENDBRANCH   6   9
BRANCH   1  11
HETATM   11  C15 UNL     1      12.670  48.103  61.198  1.00  0.00     0.073 A 
HETATM   12  N2  UNL     1      11.826  47.519  60.247  1.00  0.00    -0.340 N 
HETATM   13  C13 UNL     1      11.230  46.934  59.063  1.00  0.00     0.149 C 
HETATM   14  C14 UNL     1      11.351  47.798  61.462  1.00  0.00     0.076 A 
HETATM   15  C12 UNL     1       9.760  47.087  59.082  1.00  0.00     0.146 C 
HETATM   16  N1  UNL     1       9.002  46.094  59.778  1.00  0.00    -0.344 N 
HETATM   17  C5  UNL     1       9.494  44.866  60.313  1.00  0.00     0.109 C 
HETATM   18  C11 UNL     1       7.605  46.390  59.938  1.00  0.00     0.221 C 
HETATM   19  C4  UNL     1      10.080  45.093  61.667  1.00  0.00     0.155 C 
HETATM   20  C6  UNL     1       8.565  43.696  60.191  1.00  0.00     0.037 C 
HETATM   21  C3  UNL     1       9.521  46.282  62.356  1.00  0.00     0.177 C 
HETATM   22 BR1  UNL     1       9.875  43.575  62.846  1.00  0.00    -0.081 Br
HETATM   23  C2  UNL     1      10.076  47.644  62.126  1.00  0.00     0.031 C 
HETATM   24  O1  UNL     1       8.555  46.138  63.155  1.00  0.00    -0.291 OA
HETATM   25  C1  UNL     1       9.358  48.659  62.568  1.00  0.00     0.030 C 
HETATM   26  C7  UNL     1       7.234  44.061  59.563  1.00  0.00    -0.030 A 
HETATM   27  C8  UNL     1       6.961  43.770  58.127  1.00  0.00     0.011 A 
HETATM   28  C9  UNL     1       6.293  42.961  59.260  1.00  0.00     0.011 A 
HETATM   29  C10 UNL     1       6.631  45.282  60.214  1.00  0.00     0.112 C 
HETATM   30  O2  UNL     1       7.178  47.574  59.850  1.00  0.00    -0.273 OA
ENDBRANCH   1  11
BRANCH   7  31
HETATM   31  O5  UNL     1      16.589  51.030  60.560  1.00  0.00    -0.353 OA
HETATM   32  C23 UNL     1      17.641  50.521  59.742  1.00  0.00     0.210 C 
ENDBRANCH   7  31
TORSDOF 3
ENDMDL
MODEL 3
REMARK VINA RESULT: -7.206189848      6.266      9.496
REMARK  3 active torsions:
REMARK  status: ('A' for Active; 'I' for Inactive)
REMARK    1  A    between atoms: C15_20  and  C16_21 
REMARK    2  A    between atoms: C20_26  and  O4_27 
REMARK    3  A    between atoms: C22_29  and  O5_30 
ROOT
HETATM    1  C16 UNL     1      13.065  48.430  61.329  1.00  0.00    -0.001 A 
HETATM    2  C17 UNL     1      14.161  48.652  60.551  1.00  0.00     0.053 A 
HETATM    3  C18 UNL     1      15.279  49.394  60.959  1.00  0.00     0.105 A 
HETATM    4  O3  UNL     1      16.282  49.560  60.166  1.00  0.00    -0.353 OA
HETATM    5  C19 UNL     1      17.269  49.705  59.346  1.00  0.00     0.210 C 
HETATM    6  C20 UNL     1      15.251  49.942  62.264  1.00  0.00     0.135 A 
HETATM    7  C22 UNL     1      14.154  49.725  63.054  1.00  0.00     0.105 A 
HETATM    8  C24 UNL     1      13.088  48.985  62.591  1.00  0.00     0.053 A 
ENDROOT
BRANCH   6   9
HETATM    9  O4  UNL     1      16.347  50.680  62.689  1.00  0.00    -0.351 OA
HETATM   10  C21 UNL     1      17.393  50.171  63.470  1.00  0.00     0.210 C 
ENDBRANCH   6   9
BRANCH   1  11
HETATM   11  C15 UNL     1      11.929  47.648  60.821  1.00  0.00     0.073 A 
HETATM   12  N2  UNL     1      11.298  46.852  59.858  1.00  0.00    -0.340 N 
HETATM   13  C13 UNL     1      10.940  46.065  58.695  1.00  0.00     0.149 C 
HETATM   14  C14 UNL     1      10.637  47.188  60.968  1.00  0.00     0.076 A 
HETATM   15  C12 UNL     1       9.473  46.008  58.527  1.00  0.00     0.146 C 
HETATM   16  N1  UNL     1       8.765  44.998  59.249  1.00  0.00    -0.344 N 
HETATM   17  C5  UNL     1       9.335  43.917  59.983  1.00  0.00     0.109 C 
HETATM   18  C11 UNL     1       7.333  45.108  59.210  1.00  0.00     0.221 C 
HETATM   19  C4  UNL     1       9.707  44.368  61.358  1.00  0.00     0.155 C 
HETATM   20  C6  UNL     1       8.588  42.620  59.901  1.00  0.00     0.037 C 
HETATM   21  C3  UNL     1       8.915  45.532  61.826  1.00  0.00     0.177 C 
HETATM   22 BR1  UNL     1       9.546  42.971  62.683  1.00  0.00    -0.081 Br
HETATM   23  C2  UNL     1       9.316  46.927  61.495  1.00  0.00     0.031 C 
HETATM   24  O1  UNL     1       7.880  45.338  62.521  1.00  0.00    -0.291 OA
HETATM   25  C1  UNL     1       8.423  47.870  61.723  1.00  0.00     0.030 C 
HETATM   26  C7  UNL     1       7.314  42.723  59.085  1.00  0.00    -0.030 A 
HETATM   27  C8  UNL     1       7.271  42.245  57.674  1.00  0.00     0.011 A 
HETATM   28  C9  UNL     1       6.570  41.474  58.815  1.00  0.00     0.011 A 
HETATM   29  C10 UNL     1       6.481  43.908  59.507  1.00  0.00     0.112 C 
HETATM   30  O2  UNL     1       6.772  46.203  58.928  1.00  0.00    -0.273 OA
ENDBRANCH   1  11
BRANCH   7  31
HETATM   31  O5  UNL     1      14.183  50.288  64.326  1.00  0.00    -0.353 OA
HETATM   32  C23 UNL     1      12.930  50.686  64.878  1.00  0.00     0.210 C 
ENDBRANCH   7  31
TORSDOF 3
ENDMDL
MODEL 4
REMARK VINA RESULT: -7.154196378      0.987      1.056
REMARK  3 active torsions:
REMARK  status: ('A' for Active; 'I' for Inactive)
REMARK    1  A    between atoms: C15_20  and  C16_21 
REMARK    2  A    between atoms: C20_26  and  O4_27 
REMARK    3  A    between atoms: C22_29  and  O5_30 
ROOT
HETATM    1  C16 UNL     1       6.630  48.750  59.052  1.00  0.00    -0.001 A 
HETATM    2  C17 UNL     1       6.846  49.702  58.101  1.00  0.00     0.053 A 
HETATM    3  C18 UNL     1       7.625  49.504  56.952  1.00  0.00     0.105 A 
HETATM    4  O3  UNL     1       7.782  50.453  56.094  1.00  0.00    -0.353 OA
HETATM    5  C19 UNL     1       7.917  51.426  55.256  1.00  0.00     0.210 C 
HETATM    6  C20 UNL     1       8.220  48.230  56.784  1.00  0.00     0.135 A 
HETATM    7  C22 UNL     1       8.010  47.267  57.734  1.00  0.00     0.105 A 
HETATM    8  C24 UNL     1       7.231  47.526  58.841  1.00  0.00     0.053 A 
ENDROOT
BRANCH   6   9
HETATM    9  O4  UNL     1       8.995  48.012  55.654  1.00  0.00    -0.351 OA
HETATM   10  C21 UNL     1       8.486  47.665  54.396  1.00  0.00     0.210 C 
ENDBRANCH   6   9
BRANCH   1  11
HETATM   11  C15 UNL     1       5.807  49.042  60.234  1.00  0.00     0.073 A 
HETATM   12  N2  UNL     1       5.634  49.275  61.603  1.00  0.00    -0.340 N 
HETATM   13  C13 UNL     1       5.794  49.479  63.029  1.00  0.00     0.149 C 
HETATM   14  C14 UNL     1       4.568  49.258  60.800  1.00  0.00     0.076 A 
HETATM   15  C12 UNL     1       4.540  49.177  63.749  1.00  0.00     0.146 C 
HETATM   16  N1  UNL     1       3.572  50.223  63.855  1.00  0.00    -0.344 N 
HETATM   17  C5  UNL     1       3.752  51.591  63.494  1.00  0.00     0.109 C 
HETATM   18  C11 UNL     1       2.297  49.827  64.385  1.00  0.00     0.221 C 
HETATM   19  C4  UNL     1       3.507  51.774  62.032  1.00  0.00     0.155 C 
HETATM   20  C6  UNL     1       3.088  52.587  64.397  1.00  0.00     0.037 C 
HETATM   21  C3  UNL     1       2.614  50.740  61.454  1.00  0.00     0.177 C 
HETATM   22 BR1  UNL     1       2.768  53.506  61.598  1.00  0.00    -0.081 Br
HETATM   23  C2  UNL     1       3.144  49.433  60.981  1.00  0.00     0.031 C 
HETATM   24  O1  UNL     1       1.377  50.973  61.360  1.00  0.00    -0.291 OA
HETATM   25  C1  UNL     1       2.257  48.488  60.733  1.00  0.00     0.030 C 
HETATM   26  C7  UNL     1       2.289  51.934  65.508  1.00  0.00    -0.030 A 
HETATM   27  C8  UNL     1       2.845  51.827  66.887  1.00  0.00     0.011 A 
HETATM   28  C9  UNL     1       1.708  52.815  66.544  1.00  0.00     0.011 A 
HETATM   29  C10 UNL     1       1.377  50.856  64.976  1.00  0.00     0.112 C 
HETATM   30  O2  UNL     1       1.931  48.619  64.365  1.00  0.00    -0.273 OA
ENDBRANCH   1  11
BRANCH   7  31
HETATM   31  O5  UNL     1       8.620  46.036  57.516  1.00  0.00    -0.353 OA
HETATM   32  C23 UNL     1       8.177  44.950  58.327  1.00  0.00     0.210 C 
ENDBRANCH   7  31
TORSDOF 3
ENDMDL
MODEL 5
REMARK VINA RESULT: -7.062589509      6.778      9.279
REMARK  3 active torsions:
REMARK  status: ('A' for Active; 'I' for Inactive)
REMARK    1  A    between atoms: C15_20  and  C16_21 
REMARK    2  A    between atoms: C20_26  and  O4_27 
REMARK    3  A    between atoms: C22_29  and  O5_30 
ROOT
HETATM    1  C16 UNL     1      10.520  47.340  59.478  1.00  0.00    -0.001 A 
HETATM    2  C17 UNL     1       9.869  48.375  58.876  1.00  0.00     0.053 A 
HETATM    3  C18 UNL     1       8.843  48.218  57.934  1.00  0.00     0.105 A 
HETATM    4  O3  UNL     1       8.271  49.246  57.408  1.00  0.00    -0.353 OA
HETATM    5  C19 UNL     1       7.720  50.299  56.902  1.00  0.00     0.210 C 
HETATM    6  C20 UNL     1       8.472  46.894  57.594  1.00  0.00     0.135 A 
HETATM    7  C22 UNL     1       9.120  45.847  58.191  1.00  0.00     0.105 A 
HETATM    8  C24 UNL     1      10.121  46.071  59.113  1.00  0.00     0.053 A 
ENDROOT
BRANCH   6   9
HETATM    9  O4  UNL     1       7.459  46.715  56.662  1.00  0.00    -0.351 OA
HETATM   10  C21 UNL     1       7.587  46.966  55.290  1.00  0.00     0.210 C 
ENDBRANCH   6   9
BRANCH   1  11
HETATM   11  C15 UNL     1      11.593  47.591  60.450  1.00  0.00     0.073 A 
HETATM   12  N2  UNL     1      12.834  48.119  60.825  1.00  0.00    -0.340 N 
HETATM   13  C13 UNL     1      14.123  48.776  60.890  1.00  0.00     0.149 C 
HETATM   14  C14 UNL     1      12.120  47.424  61.713  1.00  0.00     0.076 A 
HETATM   15  C12 UNL     1      14.954  48.201  61.969  1.00  0.00     0.146 C 
HETATM   16  N1  UNL     1      14.781  48.727  63.287  1.00  0.00    -0.344 N 
HETATM   17  C5  UNL     1      14.017  49.875  63.653  1.00  0.00     0.109 C 
HETATM   18  C11 UNL     1      15.460  48.007  64.328  1.00  0.00     0.221 C 
HETATM   19  C4  UNL     1      12.580  49.504  63.820  1.00  0.00     0.155 C 
HETATM   20  C6  UNL     1      14.606  50.716  64.746  1.00  0.00     0.037 C 
HETATM   21  C3  UNL     1      12.380  48.072  64.154  1.00  0.00     0.177 C 
HETATM   22 BR1  UNL     1      11.676  50.558  65.163  1.00  0.00    -0.081 Br
HETATM   23  C2  UNL     1      12.300  47.031  63.093  1.00  0.00     0.031 C 
HETATM   24  O1  UNL     1      12.272  47.728  65.363  1.00  0.00    -0.291 OA
HETATM   25  C1  UNL     1      12.387  45.775  63.488  1.00  0.00     0.030 C 
HETATM   26  C7  UNL     1      15.895  50.144  65.301  1.00  0.00    -0.030 A 
HETATM   27  C8  UNL     1      17.217  50.686  64.876  1.00  0.00     0.011 A 
HETATM   28  C9  UNL     1      16.640  50.961  66.283  1.00  0.00     0.011 A 
HETATM   29  C10 UNL     1      15.752  48.680  65.638  1.00  0.00     0.112 C 
HETATM   30  O2  UNL     1      15.821  46.810  64.161  1.00  0.00    -0.273 OA
ENDBRANCH   1  11
BRANCH   7  31
HETATM   31  O5  UNL     1       8.715  44.570  57.819  1.00  0.00    -0.353 OA
HETATM   32  C23 UNL     1       7.897  43.861  58.747  1.00  0.00     0.210 C 
ENDBRANCH   7  31
TORSDOF 3
ENDMDL
