MODEL 1
REMARK VINA RESULT: -7.158636447      0.000      0.000
REMARK  10 active torsions:
REMARK  status: ('A' for Active; 'I' for Inactive)
REMARK    1  A    between atoms: C2_2  and  O1_5 
REMARK    2  A    between atoms: O1_5  and  C5_6 
REMARK       I    between atoms: C5_6  and  N1_8 
REMARK    3  A    between atoms: C8_11  and  C9_12 
REMARK    4  A    between atoms: C9_12  and  O3_13 
REMARK    5  A    between atoms: C9_12  and  C16_22 
REMARK    6  A    between atoms: O3_13  and  C10_14 
REMARK    7  A    between atoms: C10_14  and  C11_16 
REMARK    8  A    between atoms: C11_16  and  C12_18 
REMARK    9  A    between atoms: C16_22  and  O5_23 
REMARK   10  A    between atoms: C16_22  and  N2_25 
ROOT
HETATM    1  C9  UNL     1       8.235  45.500  57.991  1.00  0.00     0.210 C 
ENDROOT
BRANCH   1   2
HETATM    2  C8  UNL     1       9.529  45.526  58.667  1.00  0.00     0.026 C 
HETATM    3  C7  UNL     1      10.212  46.900  58.482  1.00  0.00     0.027 C 
HETATM    4  C6  UNL     1      11.438  47.017  59.401  1.00  0.00     0.128 C 
HETATM    5  N1  UNL     1      10.895  47.121  60.759  1.00  0.00    -0.328 N 
HETATM    6  C5  UNL     1      11.745  47.426  61.819  1.00  0.00     0.363 C 
HETATM    7  C23 UNL     1       9.490  46.884  60.848  1.00  0.00     0.128 C 
HETATM    8  O2  UNL     1      11.331  47.527  63.004  1.00  0.00    -0.238 OA
HETATM    9  C22 UNL     1       9.205  45.559  60.190  1.00  0.00     0.027 C 
BRANCH   6  10
HETATM   10  O1  UNL     1      13.113  47.639  61.643  1.00  0.00    -0.294 OA
BRANCH  10  11
HETATM   11  C2  UNL     1      13.677  48.923  61.491  1.00  0.00     0.061 C 
HETATM   12  C1  UNL     1      14.687  48.835  60.364  1.00  0.00     0.046 C 
HETATM   13  C3  UNL     1      12.646  49.961  61.147  1.00  0.00     0.046 C 
HETATM   14  C4  UNL     1      14.436  49.367  62.729  1.00  0.00     0.046 C 
ENDBRANCH  10  11
ENDBRANCH   6  10
ENDBRANCH   1   2
BRANCH   1  15
HETATM   15  O3  UNL     1       7.199  44.821  58.759  1.00  0.00    -0.306 OA
BRANCH  15  16
HETATM   16  C10 UNL     1       6.671  43.609  58.409  1.00  0.00     0.275 C 
HETATM   17  O4  UNL     1       6.478  43.455  57.174  1.00  0.00    -0.264 OA
BRANCH  16  18
HETATM   18  C11 UNL     1       6.358  42.577  59.415  1.00  0.00     0.164 C 
HETATM   19 BR1  UNL     1       6.295  43.483  61.147  1.00  0.00    -0.080 Br
BRANCH  18  20
HETATM   20  C12 UNL     1       7.376  41.488  59.555  1.00  0.00    -0.029 C 
HETATM   21  C13 UNL     1       8.685  41.989  60.123  1.00  0.00     0.016 C 
HETATM   22  C14 UNL     1       7.670  40.771  58.280  1.00  0.00     0.016 C 
HETATM   23  C15 UNL     1       6.823  40.495  60.555  1.00  0.00     0.016 C 
ENDBRANCH  18  20
ENDBRANCH  16  18
ENDBRANCH  15  16
ENDBRANCH   1  15
BRANCH   1  24
HETATM   24  C16 UNL     1       7.654  46.800  57.611  1.00  0.00     0.144 C 
BRANCH  24  25
HETATM   25  O5  UNL     1       6.714  47.207  58.518  1.00  0.00    -0.347 OA
ATOM     26  H5  UNL     1       6.310  48.025  58.251  1.00  0.00     0.219 HD
ENDBRANCH  24  25
BRANCH  24  27
HETATM   27  N2  UNL     1       7.770  47.738  56.622  1.00  0.00    -0.363 N 
HETATM   28  C17 UNL     1       7.983  49.156  57.100  1.00  0.00     0.124 C 
HETATM   29  C18 UNL     1       7.157  50.090  56.272  1.00  0.00     0.020 C 
HETATM   30  C19 UNL     1       7.540  50.083  54.819  1.00  0.00     0.003 C 
HETATM   31  C20 UNL     1       8.495  48.944  54.611  1.00  0.00     0.020 C 
HETATM   32  C21 UNL     1       7.808  47.680  55.186  1.00  0.00     0.124 C 
ENDBRANCH  24  27
ENDBRANCH   1  24
TORSDOF 10
ENDMDL
MODEL 2
REMARK VINA RESULT: -6.967218939      1.552      2.426
REMARK  10 active torsions:
REMARK  status: ('A' for Active; 'I' for Inactive)
REMARK    1  A    between atoms: C2_2  and  O1_5 
REMARK    2  A    between atoms: O1_5  and  C5_6 
REMARK       I    between atoms: C5_6  and  N1_8 
REMARK    3  A    between atoms: C8_11  and  C9_12 
REMARK    4  A    between atoms: C9_12  and  O3_13 
REMARK    5  A    between atoms: C9_12  and  C16_22 
REMARK    6  A    between atoms: O3_13  and  C10_14 
REMARK    7  A    between atoms: C10_14  and  C11_16 
REMARK    8  A    between atoms: C11_16  and  C12_18 
REMARK    9  A    between atoms: C16_22  and  O5_23 
REMARK   10  A    between atoms: C16_22  and  N2_25 
ROOT
HETATM    1  C9  UNL     1       8.421  46.593  57.684  1.00  0.00     0.210 C 
ENDROOT
BRANCH   1   2
HETATM    2  C8  UNL     1       9.216  47.387  58.615  1.00  0.00     0.026 C 
HETATM    3  C7  UNL     1       8.563  47.399  60.016  1.00  0.00     0.027 C 
HETATM    4  C6  UNL     1       9.522  48.008  61.050  1.00  0.00     0.128 C 
HETATM    5  N1  UNL     1      10.592  47.019  61.215  1.00  0.00    -0.328 N 
HETATM    6  C5  UNL     1      11.534  47.185  62.227  1.00  0.00     0.363 C 
HETATM    7  C23 UNL     1      10.548  45.946  60.274  1.00  0.00     0.128 C 
HETATM    8  O2  UNL     1      12.472  46.367  62.413  1.00  0.00    -0.238 OA
HETATM    9  C22 UNL     1      10.498  46.548  58.894  1.00  0.00     0.027 C 
BRANCH   6  10
HETATM   10  O1  UNL     1      11.504  48.271  63.105  1.00  0.00    -0.294 OA
BRANCH  10  11
HETATM   11  C2  UNL     1      12.219  49.464  62.873  1.00  0.00     0.061 C 
HETATM   12  C1  UNL     1      11.245  50.610  63.058  1.00  0.00     0.046 C 
HETATM   13  C3  UNL     1      13.367  49.635  63.829  1.00  0.00     0.046 C 
HETATM   14  C4  UNL     1      12.740  49.555  61.449  1.00  0.00     0.046 C 
ENDBRANCH  10  11
ENDBRANCH   6  10
ENDBRANCH   1   2
BRANCH   1  15
HETATM   15  O3  UNL     1       7.337  45.864  58.330  1.00  0.00    -0.306 OA
BRANCH  15  16
HETATM   16  C10 UNL     1       7.261  44.499  58.370  1.00  0.00     0.275 C 
HETATM   17  O4  UNL     1       6.675  43.976  57.385  1.00  0.00    -0.264 OA
BRANCH  16  18
HETATM   18  C11 UNL     1       7.825  43.721  59.488  1.00  0.00     0.164 C 
HETATM   19 BR1  UNL     1       7.837  41.850  58.920  1.00  0.00    -0.080 Br
BRANCH  18  20
HETATM   20  C12 UNL     1       7.035  43.762  60.760  1.00  0.00    -0.029 C 
HETATM   21  C13 UNL     1       6.146  42.551  60.929  1.00  0.00     0.016 C 
HETATM   22  C14 UNL     1       6.188  44.981  60.904  1.00  0.00     0.016 C 
HETATM   23  C15 UNL     1       8.034  43.726  61.898  1.00  0.00     0.016 C 
ENDBRANCH  18  20
ENDBRANCH  16  18
ENDBRANCH  15  16
ENDBRANCH   1  15
BRANCH   1  24
HETATM   24  C16 UNL     1       7.796  47.309  56.558  1.00  0.00     0.144 C 
BRANCH  24  25
HETATM   25  O5  UNL     1       7.025  46.470  55.803  1.00  0.00    -0.347 OA
ATOM     26  H5  UNL     1       6.478  45.918  56.350  1.00  0.00     0.219 HD
ENDBRANCH  24  25
BRANCH  24  27
HETATM   27  N2  UNL     1       7.745  48.571  56.033  1.00  0.00    -0.363 N 
HETATM   28  C17 UNL     1       7.561  48.640  54.534  1.00  0.00     0.124 C 
HETATM   29  C18 UNL     1       8.446  49.710  53.972  1.00  0.00     0.020 C 
HETATM   30  C19 UNL     1       8.112  51.080  54.491  1.00  0.00     0.003 C 
HETATM   31  C20 UNL     1       7.129  50.910  55.612  1.00  0.00     0.020 C 
HETATM   32  C21 UNL     1       7.754  49.893  56.599  1.00  0.00     0.124 C 
ENDBRANCH  24  27
ENDBRANCH   1  24
TORSDOF 10
ENDMDL
MODEL 3
REMARK VINA RESULT: -6.842981289      1.303      1.914
REMARK  10 active torsions:
REMARK  status: ('A' for Active; 'I' for Inactive)
REMARK    1  A    between atoms: C2_2  and  O1_5 
REMARK    2  A    between atoms: O1_5  and  C5_6 
REMARK       I    between atoms: C5_6  and  N1_8 
REMARK    3  A    between atoms: C8_11  and  C9_12 
REMARK    4  A    between atoms: C9_12  and  O3_13 
REMARK    5  A    between atoms: C9_12  and  C16_22 
REMARK    6  A    between atoms: O3_13  and  C10_14 
REMARK    7  A    between atoms: C10_14  and  C11_16 
REMARK    8  A    between atoms: C11_16  and  C12_18 
REMARK    9  A    between atoms: C16_22  and  O5_23 
REMARK   10  A    between atoms: C16_22  and  N2_25 
ROOT
HETATM    1  C9  UNL     1       8.595  46.467  57.630  1.00  0.00     0.210 C 
ENDROOT
BRANCH   1   2
HETATM    2  C8  UNL     1       9.620  47.159  58.404  1.00  0.00     0.026 C 
HETATM    3  C7  UNL     1       9.022  47.731  59.710  1.00  0.00     0.027 C 
HETATM    4  C6  UNL     1      10.140  48.226  60.640  1.00  0.00     0.128 C 
HETATM    5  N1  UNL     1      10.815  47.013  61.113  1.00  0.00    -0.328 N 
HETATM    6  C5  UNL     1      11.767  47.104  62.126  1.00  0.00     0.363 C 
HETATM    7  C23 UNL     1      10.402  45.817  60.452  1.00  0.00     0.128 C 
HETATM    8  O2  UNL     1      12.375  46.095  62.568  1.00  0.00    -0.238 OA
HETATM    9  C22 UNL     1      10.545  46.041  58.969  1.00  0.00     0.027 C 
BRANCH   6  10
HETATM   10  O1  UNL     1      12.114  48.320  62.718  1.00  0.00    -0.294 OA
BRANCH  10  11
HETATM   11  C2  UNL     1      13.362  48.944  62.513  1.00  0.00     0.061 C 
HETATM   12  C1  UNL     1      13.494  50.029  63.563  1.00  0.00     0.046 C 
HETATM   13  C3  UNL     1      14.510  47.984  62.652  1.00  0.00     0.046 C 
HETATM   14  C4  UNL     1      13.447  49.629  61.160  1.00  0.00     0.046 C 
ENDBRANCH  10  11
ENDBRANCH   6  10
ENDBRANCH   1   2
BRANCH   1  15
HETATM   15  O3  UNL     1       7.534  45.903  58.455  1.00  0.00    -0.306 OA
BRANCH  15  16
HETATM   16  C10 UNL     1       7.276  44.563  58.544  1.00  0.00     0.275 C 
HETATM   17  O4  UNL     1       7.718  43.877  57.584  1.00  0.00    -0.264 OA
BRANCH  16  18
HETATM   18  C11 UNL     1       6.536  43.987  59.682  1.00  0.00     0.164 C 
HETATM   19 BR1  UNL     1       6.488  45.360  61.073  1.00  0.00    -0.080 Br
BRANCH  18  20
HETATM   20  C12 UNL     1       7.165  42.782  60.311  1.00  0.00    -0.029 C 
HETATM   21  C13 UNL     1       8.675  42.849  60.308  1.00  0.00     0.016 C 
HETATM   22  C14 UNL     1       6.757  41.492  59.683  1.00  0.00     0.016 C 
HETATM   23  C15 UNL     1       6.737  42.772  61.764  1.00  0.00     0.016 C 
ENDBRANCH  18  20
ENDBRANCH  16  18
ENDBRANCH  15  16
ENDBRANCH   1  15
BRANCH   1  24
HETATM   24  C16 UNL     1       7.907  47.246  56.585  1.00  0.00     0.144 C 
BRANCH  24  25
HETATM   25  O5  UNL     1       7.131  46.441  55.796  1.00  0.00    -0.347 OA
ATOM     26  H5  UNL     1       6.458  46.942  55.350  1.00  0.00     0.219 HD
ENDBRANCH  24  25
BRANCH  24  27
HETATM   27  N2  UNL     1       7.800  48.541  56.159  1.00  0.00    -0.363 N 
HETATM   28  C17 UNL     1       7.548  48.715  54.679  1.00  0.00     0.124 C 
HETATM   29  C18 UNL     1       8.379  49.849  54.163  1.00  0.00     0.020 C 
HETATM   30  C19 UNL     1       8.033  51.167  54.796  1.00  0.00     0.003 C 
HETATM   31  C20 UNL     1       7.105  50.885  55.942  1.00  0.00     0.020 C 
HETATM   32  C21 UNL     1       7.799  49.817  56.823  1.00  0.00     0.124 C 
ENDBRANCH  24  27
ENDBRANCH   1  24
TORSDOF 10
ENDMDL
MODEL 4
REMARK VINA RESULT: -6.786017350      2.733      4.305
REMARK  10 active torsions:
REMARK  status: ('A' for Active; 'I' for Inactive)
REMARK    1  A    between atoms: C2_2  and  O1_5 
REMARK    2  A    between atoms: O1_5  and  C5_6 
REMARK       I    between atoms: C5_6  and  N1_8 
REMARK    3  A    between atoms: C8_11  and  C9_12 
REMARK    4  A    between atoms: C9_12  and  O3_13 
REMARK    5  A    between atoms: C9_12  and  C16_22 
REMARK    6  A    between atoms: O3_13  and  C10_14 
REMARK    7  A    between atoms: C10_14  and  C11_16 
REMARK    8  A    between atoms: C11_16  and  C12_18 
REMARK    9  A    between atoms: C16_22  and  O5_23 
REMARK   10  A    between atoms: C16_22  and  N2_25 
ROOT
HETATM    1  C9  UNL     1       7.607  47.351  58.454  1.00  0.00     0.210 C 
ENDROOT
BRANCH   1   2
HETATM    2  C8  UNL     1       8.928  46.910  58.894  1.00  0.00     0.026 C 
HETATM    3  C7  UNL     1       9.871  48.121  59.083  1.00  0.00     0.027 C 
HETATM    4  C6  UNL     1      11.164  47.688  59.788  1.00  0.00     0.128 C 
HETATM    5  N1  UNL     1      10.769  47.384  61.168  1.00  0.00    -0.328 N 
HETATM    6  C5  UNL     1      11.749  47.137  62.126  1.00  0.00     0.363 C 
HETATM    7  C23 UNL     1       9.359  47.374  61.384  1.00  0.00     0.128 C 
HETATM    8  O2  UNL     1      11.465  46.871  63.323  1.00  0.00    -0.238 OA
HETATM    9  C22 UNL     1       8.745  46.446  60.369  1.00  0.00     0.027 C 
BRANCH   6  10
HETATM   10  O1  UNL     1      13.112  47.163  61.826  1.00  0.00    -0.294 OA
BRANCH  10  11
HETATM   11  C2  UNL     1      13.905  48.322  61.958  1.00  0.00     0.061 C 
HETATM   12  C1  UNL     1      15.040  47.979  62.902  1.00  0.00     0.046 C 
HETATM   13  C3  UNL     1      14.477  48.775  60.644  1.00  0.00     0.046 C 
HETATM   14  C4  UNL     1      13.140  49.472  62.590  1.00  0.00     0.046 C 
ENDBRANCH  10  11
ENDBRANCH   6  10
ENDBRANCH   1   2
BRANCH   1  15
HETATM   15  O3  UNL     1       7.106  48.497  59.203  1.00  0.00    -0.306 OA
BRANCH  15  16
HETATM   16  C10 UNL     1       5.898  48.511  59.844  1.00  0.00     0.275 C 
HETATM   17  O4  UNL     1       4.896  48.510  59.080  1.00  0.00    -0.264 OA
BRANCH  16  18
HETATM   18  C11 UNL     1       5.799  48.527  61.315  1.00  0.00     0.164 C 
HETATM   19 BR1  UNL     1       3.998  47.911  61.764  1.00  0.00    -0.080 Br
BRANCH  18  20
HETATM   20  C12 UNL     1       5.945  49.874  61.953  1.00  0.00    -0.029 C 
HETATM   21  C13 UNL     1       4.952  50.880  61.416  1.00  0.00     0.016 C 
HETATM   22  C14 UNL     1       7.312  50.458  61.821  1.00  0.00     0.016 C 
HETATM   23  C15 UNL     1       5.631  49.701  63.424  1.00  0.00     0.016 C 
ENDBRANCH  18  20
ENDBRANCH  16  18
ENDBRANCH  15  16
ENDBRANCH   1  15
BRANCH   1  24
HETATM   24  C16 UNL     1       7.463  47.716  57.034  1.00  0.00     0.144 C 
BRANCH  24  25
HETATM   25  O5  UNL     1       7.085  46.639  56.281  1.00  0.00    -0.347 OA
ATOM     26  H5  UNL     1       6.373  46.863  55.692  1.00  0.00     0.219 HD
ENDBRANCH  24  25
BRANCH  24  27
HETATM   27  N2  UNL     1       7.587  48.815  56.228  1.00  0.00    -0.363 N 
HETATM   28  C17 UNL     1       7.512  48.539  54.744  1.00  0.00     0.124 C 
HETATM   29  C18 UNL     1       8.545  49.357  54.033  1.00  0.00     0.020 C 
HETATM   30  C19 UNL     1       8.331  50.836  54.187  1.00  0.00     0.003 C 
HETATM   31  C20 UNL     1       7.262  51.030  55.223  1.00  0.00     0.020 C 
HETATM   32  C21 UNL     1       7.704  50.227  56.472  1.00  0.00     0.124 C 
ENDBRANCH  24  27
ENDBRANCH   1  24
TORSDOF 10
ENDMDL
MODEL 5
REMARK VINA RESULT: -6.772129302      1.822      2.568
REMARK  10 active torsions:
REMARK  status: ('A' for Active; 'I' for Inactive)
REMARK    1  A    between atoms: C2_2  and  O1_5 
REMARK    2  A    between atoms: O1_5  and  C5_6 
REMARK       I    between atoms: C5_6  and  N1_8 
REMARK    3  A    between atoms: C8_11  and  C9_12 
REMARK    4  A    between atoms: C9_12  and  O3_13 
REMARK    5  A    between atoms: C9_12  and  C16_22 
REMARK    6  A    between atoms: O3_13  and  C10_14 
REMARK    7  A    between atoms: C10_14  and  C11_16 
REMARK    8  A    between atoms: C11_16  and  C12_18 
REMARK    9  A    between atoms: C16_22  and  O5_23 
REMARK   10  A    between atoms: C16_22  and  N2_25 
ROOT
HETATM    1  C9  UNL     1       8.608  46.555  57.525  1.00  0.00     0.210 C 
ENDROOT
BRANCH   1   2
HETATM    2  C8  UNL     1       9.591  47.289  58.315  1.00  0.00     0.026 C 
HETATM    3  C7  UNL     1       8.969  47.772  59.646  1.00  0.00     0.027 C 
HETATM    4  C6  UNL     1      10.060  48.311  60.583  1.00  0.00     0.128 C 
HETATM    5  N1  UNL     1      10.821  47.131  61.008  1.00  0.00    -0.328 N 
HETATM    6  C5  UNL     1      11.775  47.253  62.015  1.00  0.00     0.363 C 
HETATM    7  C23 UNL     1      10.485  45.934  60.307  1.00  0.00     0.128 C 
HETATM    8  O2  UNL     1      12.457  46.274  62.416  1.00  0.00    -0.238 OA
HETATM    9  C22 UNL     1      10.597  46.219  58.832  1.00  0.00     0.027 C 
BRANCH   6  10
HETATM   10  O1  UNL     1      12.044  48.469  62.647  1.00  0.00    -0.294 OA
BRANCH  10  11
HETATM   11  C2  UNL     1      11.571  48.784  63.937  1.00  0.00     0.061 C 
HETATM   12  C1  UNL     1      11.275  50.270  63.952  1.00  0.00     0.046 C 
HETATM   13  C3  UNL     1      10.319  48.030  64.286  1.00  0.00     0.046 C 
HETATM   14  C4  UNL     1      12.617  48.533  65.010  1.00  0.00     0.046 C 
ENDBRANCH  10  11
ENDBRANCH   6  10
ENDBRANCH   1   2
BRANCH   1  15
HETATM   15  O3  UNL     1       7.572  45.927  58.336  1.00  0.00    -0.306 OA
BRANCH  15  16
HETATM   16  C10 UNL     1       7.366  44.575  58.385  1.00  0.00     0.275 C 
HETATM   17  O4  UNL     1       6.715  44.107  57.413  1.00  0.00    -0.264 OA
BRANCH  16  18
HETATM   18  C11 UNL     1       7.872  43.751  59.497  1.00  0.00     0.164 C 
HETATM   19 BR1  UNL     1       7.762  41.889  58.912  1.00  0.00    -0.080 Br
BRANCH  18  20
HETATM   20  C12 UNL     1       7.082  43.833  60.767  1.00  0.00    -0.029 C 
HETATM   21  C13 UNL     1       6.050  42.733  60.879  1.00  0.00     0.016 C 
HETATM   22  C14 UNL     1       6.388  45.139  60.962  1.00  0.00     0.016 C 
HETATM   23  C15 UNL     1       8.058  43.627  61.906  1.00  0.00     0.016 C 
ENDBRANCH  18  20
ENDBRANCH  16  18
ENDBRANCH  15  16
ENDBRANCH   1  15
BRANCH   1  24
HETATM   24  C16 UNL     1       7.887  47.310  56.485  1.00  0.00     0.144 C 
BRANCH  24  25
HETATM   25  O5  UNL     1       7.045  46.499  55.776  1.00  0.00    -0.347 OA
ATOM     26  H5  UNL     1       6.137  46.753  55.898  1.00  0.00     0.219 HD
ENDBRANCH  24  25
BRANCH  24  27
HETATM   27  N2  UNL     1       7.796  48.590  56.008  1.00  0.00    -0.363 N 
HETATM   28  C17 UNL     1       7.581  48.709  54.517  1.00  0.00     0.124 C 
HETATM   29  C18 UNL     1       8.429  49.819  53.979  1.00  0.00     0.020 C 
HETATM   30  C19 UNL     1       8.074  51.161  54.554  1.00  0.00     0.003 C 
HETATM   31  C20 UNL     1       7.117  50.926  55.687  1.00  0.00     0.020 C 
HETATM   32  C21 UNL     1       7.785  49.889  56.623  1.00  0.00     0.124 C 
ENDBRANCH  24  27
ENDBRANCH   1  24
TORSDOF 10
ENDMDL
