MODEL 1
REMARK VINA RESULT: -5.737395433      0.000      0.000
REMARK  8 active torsions:
REMARK  status: ('A' for Active; 'I' for Inactive)
REMARK    1  A    between atoms: O1_2  and  C2_3 
REMARK    2  A    between atoms: C2_3  and  C3_4 
REMARK    3  A    between atoms: C3_4  and  O2_5 
REMARK    4  A    between atoms: O2_5  and  C4_6 
REMARK    5  A    between atoms: C4_6  and  O3_7 
REMARK    6  A    between atoms: O3_7  and  C5_8 
REMARK    7  A    between atoms: C7_10  and  N1_11 
REMARK    8  A    between atoms: C8_16  and  N3_17 
ROOT
HETATM    1  C5  UNL     1       3.873   4.052  -1.965  1.00  0.00     0.163 A 
HETATM    2  C6  UNL     1       4.939   3.886  -2.813  1.00  0.00     0.105 A 
HETATM    3  C7  UNL     1       5.529   5.023  -3.346  1.00  0.00     0.118 A 
HETATM    4  N2  UNL     1       5.042   6.223  -3.014  1.00  0.00    -0.177 N 
ATOM      5  H2  UNL     1       5.479   7.056  -3.409  1.00  0.00     0.185 HD
HETATM    6  C8  UNL     1       3.999   6.375  -2.181  1.00  0.00     0.679 A 
HETATM    7  N4  UNL     1       3.421   5.295  -1.662  1.00  0.00    -0.171 N 
ATOM      8  H4  UNL     1       2.628   5.403  -1.029  1.00  0.00     0.186 HD
ENDROOT
BRANCH   1   9
HETATM    9  O3  UNL     1       3.239   2.979  -1.403  1.00  0.00    -0.309 OA
BRANCH   9  10
HETATM   10  C4  UNL     1       2.024   2.470  -1.920  1.00  0.00     0.346 C 
BRANCH  10  11
HETATM   11  O2  UNL     1       1.040   3.346  -1.679  1.00  0.00    -0.364 OA
BRANCH  11  12
HETATM   12  C3  UNL     1       0.230   3.843  -2.621  1.00  0.00     0.196 C 
BRANCH  12  13
HETATM   13  C2  UNL     1       0.760   3.776  -4.017  1.00  0.00     0.193 C 
BRANCH  13  14
HETATM   14  O1  UNL     1       1.570   4.839  -4.264  1.00  0.00    -0.394 OA
HETATM   15  C1  UNL     1       0.918   6.064  -4.283  1.00  0.00     0.201 C 
ENDBRANCH  13  14
ENDBRANCH  12  13
ENDBRANCH  11  12
ENDBRANCH  10  11
ENDBRANCH   9  10
ENDBRANCH   1   9
BRANCH   3  16
HETATM   16  N1  UNL     1       6.532   4.848  -4.145  1.00  0.00    -0.385 N 
ATOM     17  H12 UNL     1       6.594   4.085  -4.819  1.00  0.00     0.157 HD
ATOM     18  H11 UNL     1       7.297   5.519  -4.086  1.00  0.00     0.157 HD
ENDBRANCH   3  16
BRANCH   6  19
HETATM   19  N3  UNL     1       3.541   7.540  -1.870  1.00  0.00    -0.234 N 
ATOM     20  H32 UNL     1       3.399   8.229  -2.609  1.00  0.00     0.174 HD
ATOM     21  H31 UNL     1       3.318   7.791  -0.907  1.00  0.00     0.174 HD
ENDBRANCH   6  19
TORSDOF 8
ENDMDL
MODEL 2
REMARK VINA RESULT: -5.586521995      2.203      3.405
REMARK  8 active torsions:
REMARK  status: ('A' for Active; 'I' for Inactive)
REMARK    1  A    between atoms: O1_2  and  C2_3 
REMARK    2  A    between atoms: C2_3  and  C3_4 
REMARK    3  A    between atoms: C3_4  and  O2_5 
REMARK    4  A    between atoms: O2_5  and  C4_6 
REMARK    5  A    between atoms: C4_6  and  O3_7 
REMARK    6  A    between atoms: O3_7  and  C5_8 
REMARK    7  A    between atoms: C7_10  and  N1_11 
REMARK    8  A    between atoms: C8_16  and  N3_17 
ROOT
HETATM    1  C5  UNL     1       5.677   4.601  -3.317  1.00  0.00     0.163 A 
HETATM    2  C6  UNL     1       6.419   5.362  -4.185  1.00  0.00     0.105 A 
HETATM    3  C7  UNL     1       7.018   4.723  -5.260  1.00  0.00     0.118 A 
HETATM    4  N2  UNL     1       6.850   3.404  -5.407  1.00  0.00    -0.177 N 
ATOM      5  H2  UNL     1       7.294   2.938  -6.199  1.00  0.00     0.185 HD
HETATM    6  C8  UNL     1       6.120   2.668  -4.552  1.00  0.00     0.679 A 
HETATM    7  N4  UNL     1       5.540   3.266  -3.515  1.00  0.00    -0.171 N 
ATOM      8  H4  UNL     1       4.985   2.713  -2.861  1.00  0.00     0.186 HD
ENDROOT
BRANCH   1   9
HETATM    9  O3  UNL     1       5.058   5.160  -2.232  1.00  0.00    -0.309 OA
BRANCH   9  10
HETATM   10  C4  UNL     1       3.702   4.900  -1.926  1.00  0.00     0.346 C 
BRANCH  10  11
HETATM   11  O2  UNL     1       3.578   3.634  -1.510  1.00  0.00    -0.364 OA
BRANCH  11  12
HETATM   12  C3  UNL     1       2.458   2.911  -1.628  1.00  0.00     0.196 C 
BRANCH  12  13
HETATM   13  C2  UNL     1       1.623   3.220  -2.829  1.00  0.00     0.193 C 
BRANCH  13  14
HETATM   14  O1  UNL     1       0.383   3.623  -2.448  1.00  0.00    -0.394 OA
HETATM   15  C1  UNL     1      -0.452   3.974  -3.499  1.00  0.00     0.201 C 
ENDBRANCH  13  14
ENDBRANCH  12  13
ENDBRANCH  11  12
ENDBRANCH  10  11
ENDBRANCH   9  10
ENDBRANCH   1   9
BRANCH   3  16
HETATM   16  N1  UNL     1       7.714   5.455  -6.069  1.00  0.00    -0.385 N 
ATOM     17  H12 UNL     1       7.474   6.416  -6.314  1.00  0.00     0.157 HD
ATOM     18  H11 UNL     1       8.548   5.034  -6.477  1.00  0.00     0.157 HD
ENDBRANCH   3  16
BRANCH   6  19
HETATM   19  N3  UNL     1       5.967   1.397  -4.707  1.00  0.00    -0.234 N 
ATOM     20  H32 UNL     1       6.216   0.975  -5.602  1.00  0.00     0.174 HD
ATOM     21  H31 UNL     1       5.604   0.804  -3.962  1.00  0.00     0.174 HD
ENDBRANCH   6  19
TORSDOF 8
ENDMDL
MODEL 3
REMARK VINA RESULT: -5.576004509      1.835      3.086
REMARK  8 active torsions:
REMARK  status: ('A' for Active; 'I' for Inactive)
REMARK    1  A    between atoms: O1_2  and  C2_3 
REMARK    2  A    between atoms: C2_3  and  C3_4 
REMARK    3  A    between atoms: C3_4  and  O2_5 
REMARK    4  A    between atoms: O2_5  and  C4_6 
REMARK    5  A    between atoms: C4_6  and  O3_7 
REMARK    6  A    between atoms: O3_7  and  C5_8 
REMARK    7  A    between atoms: C7_10  and  N1_11 
REMARK    8  A    between atoms: C8_16  and  N3_17 
ROOT
HETATM    1  C5  UNL     1       4.307   5.662  -2.224  1.00  0.00     0.163 A 
HETATM    2  C6  UNL     1       5.162   5.110  -3.145  1.00  0.00     0.105 A 
HETATM    3  C7  UNL     1       5.123   3.735  -3.325  1.00  0.00     0.118 A 
HETATM    4  N2  UNL     1       4.263   3.010  -2.602  1.00  0.00    -0.177 N 
ATOM      5  H2  UNL     1       4.240   1.999  -2.738  1.00  0.00     0.185 HD
HETATM    6  C8  UNL     1       3.429   3.560  -1.704  1.00  0.00     0.679 A 
HETATM    7  N4  UNL     1       3.454   4.877  -1.519  1.00  0.00    -0.171 N 
ATOM      8  H4  UNL     1       2.824   5.302  -0.838  1.00  0.00     0.186 HD
ENDROOT
BRANCH   1   9
HETATM    9  O3  UNL     1       4.289   7.010  -1.990  1.00  0.00    -0.309 OA
BRANCH   9  10
HETATM   10  C4  UNL     1       3.279   7.849  -2.517  1.00  0.00     0.346 C 
BRANCH  10  11
HETATM   11  O2  UNL     1       2.143   7.152  -2.636  1.00  0.00    -0.364 OA
BRANCH  11  12
HETATM   12  C3  UNL     1       1.276   7.294  -3.646  1.00  0.00     0.196 C 
BRANCH  12  13
HETATM   13  C2  UNL     1       1.437   6.317  -4.766  1.00  0.00     0.193 C 
BRANCH  13  14
HETATM   14  O1  UNL     1       1.737   5.086  -4.277  1.00  0.00    -0.394 OA
HETATM   15  C1  UNL     1       0.642   4.249  -4.123  1.00  0.00     0.201 C 
ENDBRANCH  13  14
ENDBRANCH  12  13
ENDBRANCH  11  12
ENDBRANCH  10  11
ENDBRANCH   9  10
ENDBRANCH   1   9
BRANCH   3  16
HETATM   16  N1  UNL     1       5.936   3.232  -4.197  1.00  0.00    -0.385 N 
ATOM     17  H12 UNL     1       6.018   3.567  -5.157  1.00  0.00     0.157 HD
ATOM     18  H11 UNL     1       6.523   2.456  -3.892  1.00  0.00     0.157 HD
ENDBRANCH   3  16
BRANCH   6  19
HETATM   19  N3  UNL     1       2.605   2.847  -1.015  1.00  0.00    -0.234 N 
ATOM     20  H32 UNL     1       1.654   2.718  -1.361  1.00  0.00     0.174 HD
ATOM     21  H31 UNL     1       2.877   2.410  -0.134  1.00  0.00     0.174 HD
ENDBRANCH   6  19
TORSDOF 8
ENDMDL
MODEL 4
REMARK VINA RESULT: -5.529310092      2.907      5.095
REMARK  8 active torsions:
REMARK  status: ('A' for Active; 'I' for Inactive)
REMARK    1  A    between atoms: O1_2  and  C2_3 
REMARK    2  A    between atoms: C2_3  and  C3_4 
REMARK    3  A    between atoms: C3_4  and  O2_5 
REMARK    4  A    between atoms: O2_5  and  C4_6 
REMARK    5  A    between atoms: C4_6  and  O3_7 
REMARK    6  A    between atoms: O3_7  and  C5_8 
REMARK    7  A    between atoms: C7_10  and  N1_11 
REMARK    8  A    between atoms: C8_16  and  N3_17 
ROOT
HETATM    1  C5  UNL     1       2.916   3.314  -2.918  1.00  0.00     0.163 A 
HETATM    2  C6  UNL     1       1.870   4.138  -3.248  1.00  0.00     0.105 A 
HETATM    3  C7  UNL     1       0.624   3.856  -2.706  1.00  0.00     0.118 A 
HETATM    4  N2  UNL     1       0.494   2.802  -1.893  1.00  0.00    -0.177 N 
ATOM      5  H2  UNL     1      -0.424   2.598  -1.498  1.00  0.00     0.185 HD
HETATM    6  C8  UNL     1       1.525   2.002  -1.575  1.00  0.00     0.679 A 
HETATM    7  N4  UNL     1       2.726   2.258  -2.087  1.00  0.00    -0.171 N 
ATOM      8  H4  UNL     1       3.514   1.654  -1.851  1.00  0.00     0.186 HD
ENDROOT
BRANCH   1   9
HETATM    9  O3  UNL     1       4.173   3.527  -3.415  1.00  0.00    -0.309 OA
BRANCH   9  10
HETATM   10  C4  UNL     1       5.268   3.839  -2.576  1.00  0.00     0.346 C 
BRANCH  10  11
HETATM   11  O2  UNL     1       5.534   5.148  -2.665  1.00  0.00    -0.364 OA
BRANCH  11  12
HETATM   12  C3  UNL     1       5.651   5.814  -3.821  1.00  0.00     0.196 C 
BRANCH  12  13
HETATM   13  C2  UNL     1       6.749   5.343  -4.719  1.00  0.00     0.193 C 
BRANCH  13  14
HETATM   14  O1  UNL     1       6.232   4.673  -5.782  1.00  0.00    -0.394 OA
HETATM   15  C1  UNL     1       6.831   3.447  -6.031  1.00  0.00     0.201 C 
ENDBRANCH  13  14
ENDBRANCH  12  13
ENDBRANCH  11  12
ENDBRANCH  10  11
ENDBRANCH   9  10
ENDBRANCH   1   9
BRANCH   3  16
HETATM   16  N1  UNL     1      -0.351   4.643  -3.028  1.00  0.00    -0.385 N 
ATOM     17  H12 UNL     1      -0.385   5.180  -3.894  1.00  0.00     0.157 HD
ATOM     18  H11 UNL     1      -1.123   4.721  -2.367  1.00  0.00     0.157 HD
ENDBRANCH   3  16
BRANCH   6  19
HETATM   19  N3  UNL     1       1.384   0.990  -0.789  1.00  0.00    -0.234 N 
ATOM     20  H32 UNL     1       0.548   0.411  -0.873  1.00  0.00     0.174 HD
ATOM     21  H31 UNL     1       2.083   0.753  -0.085  1.00  0.00     0.174 HD
ENDBRANCH   6  19
TORSDOF 8
ENDMDL
MODEL 5
REMARK VINA RESULT: -5.523959744      2.872      4.746
REMARK  8 active torsions:
REMARK  status: ('A' for Active; 'I' for Inactive)
REMARK    1  A    between atoms: O1_2  and  C2_3 
REMARK    2  A    between atoms: C2_3  and  C3_4 
REMARK    3  A    between atoms: C3_4  and  O2_5 
REMARK    4  A    between atoms: O2_5  and  C4_6 
REMARK    5  A    between atoms: C4_6  and  O3_7 
REMARK    6  A    between atoms: O3_7  and  C5_8 
REMARK    7  A    between atoms: C7_10  and  N1_11 
REMARK    8  A    between atoms: C8_16  and  N3_17 
ROOT
HETATM    1  C5  UNL     1       2.936   3.271  -2.968  1.00  0.00     0.163 A 
HETATM    2  C6  UNL     1       1.906   4.124  -3.277  1.00  0.00     0.105 A 
HETATM    3  C7  UNL     1       0.667   3.881  -2.702  1.00  0.00     0.118 A 
HETATM    4  N2  UNL     1       0.527   2.838  -1.878  1.00  0.00    -0.177 N 
ATOM      5  H2  UNL     1      -0.386   2.663  -1.458  1.00  0.00     0.185 HD
HETATM    6  C8  UNL     1       1.542   2.010  -1.580  1.00  0.00     0.679 A 
HETATM    7  N4  UNL     1       2.737   2.227  -2.124  1.00  0.00    -0.171 N 
ATOM      8  H4  UNL     1       3.512   1.602  -1.904  1.00  0.00     0.186 HD
ENDROOT
BRANCH   1   9
HETATM    9  O3  UNL     1       4.185   3.444  -3.498  1.00  0.00    -0.309 OA
BRANCH   9  10
HETATM   10  C4  UNL     1       5.314   3.706  -2.687  1.00  0.00     0.346 C 
BRANCH  10  11
HETATM   11  O2  UNL     1       5.465   5.029  -2.553  1.00  0.00    -0.364 OA
BRANCH  11  12
HETATM   12  C3  UNL     1       5.707   5.864  -3.571  1.00  0.00     0.196 C 
BRANCH  12  13
HETATM   13  C2  UNL     1       4.977   7.168  -3.514  1.00  0.00     0.193 C 
BRANCH  13  14
HETATM   14  O1  UNL     1       4.436   7.350  -2.281  1.00  0.00    -0.394 OA
HETATM   15  C1  UNL     1       3.066   7.567  -2.284  1.00  0.00     0.201 C 
ENDBRANCH  13  14
ENDBRANCH  12  13
ENDBRANCH  11  12
ENDBRANCH  10  11
ENDBRANCH   9  10
ENDBRANCH   1   9
BRANCH   3  16
HETATM   16  N1  UNL     1      -0.292   4.695  -3.004  1.00  0.00    -0.385 N 
ATOM     17  H12 UNL     1      -0.835   4.638  -3.867  1.00  0.00     0.157 HD
ATOM     18  H11 UNL     1      -0.508   5.430  -2.332  1.00  0.00     0.157 HD
ENDBRANCH   3  16
BRANCH   6  19
HETATM   19  N3  UNL     1       1.392   1.007  -0.783  1.00  0.00    -0.234 N 
ATOM     20  H32 UNL     1       0.448   0.703  -0.545  1.00  0.00     0.174 HD
ATOM     21  H31 UNL     1       2.189   0.512  -0.384  1.00  0.00     0.174 HD
ENDBRANCH   6  19
TORSDOF 8
ENDMDL
