MODEL 1
REMARK VINA RESULT: -7.701615749      0.000      0.000
REMARK  10 active torsions:
REMARK  status: ('A' for Active; 'I' for Inactive)
REMARK    1  A    between atoms: C2_2  and  C3_3 
REMARK    2  A    between atoms: C3_3  and  N1_4 
REMARK    3  A    between atoms: N1_4  and  C4_6 
REMARK    4  A    between atoms: C5_9  and  N3_10 
REMARK    5  A    between atoms: N3_10  and  C6_12 
REMARK    6  A    between atoms: C12_21  and  N6_22 
REMARK    7  A    between atoms: N6_22  and  C13_24 
REMARK    8  A    between atoms: C13_24  and  C14_25 
REMARK    9  A    between atoms: C14_25  and  N7_26 
REMARK   10  A    between atoms: N11_34  and  O1_36 
ROOT
HETATM    1  C4  UNL     1      22.282  28.641  18.653  1.00  0.00     0.163 C 
HETATM    2  N2  UNL     1      21.116  28.120  19.069  1.00  0.00    -0.172 N 
ATOM      3  H2  UNL     1      21.020  27.978  20.074  1.00  0.00     0.186 HD
HETATM    4  C5  UNL     1      20.063  27.767  18.318  1.00  0.00     0.699 C 
HETATM    5  N5  UNL     1      19.932  27.964  16.995  1.00  0.00    -0.022 N 
ATOM      6  H5  UNL     1      19.215  27.402  16.538  1.00  0.00     0.203 HD
HETATM    7  C12 UNL     1      20.614  28.799  16.187  1.00  0.00     0.694 C 
HETATM    8  N10 UNL     1      21.885  29.265  16.332  1.00  0.00    -0.171 N 
ATOM      9  H10 UNL     1      22.325  29.666  15.503  1.00  0.00     0.186 HD
HETATM   10  C16 UNL     1      22.622  29.251  17.463  1.00  0.00     0.185 C 
HETATM   11  N11 UNL     1      23.770  29.867  17.456  1.00  0.00    -0.247 N 
ATOM     12  H11 UNL     1      24.340  29.867  18.301  1.00  0.00     0.196 HD
ENDROOT
BRANCH   4  13
HETATM   13  N3  UNL     1      19.067  27.188  18.858  1.00  0.00    -0.191 N 
ATOM     14  H3  UNL     1      18.808  26.271  18.495  1.00  0.00     0.184 HD
BRANCH  13  15
HETATM   15  C6  UNL     1      18.286  27.707  19.920  1.00  0.00     0.051 A 
HETATM   16  C7  UNL     1      18.252  27.164  21.187  1.00  0.00     0.030 A 
HETATM   17  C8  UNL     1      17.470  27.707  22.199  1.00  0.00     0.004 A 
HETATM   18  C9  UNL     1      16.701  28.822  21.947  1.00  0.00     0.027 A 
HETATM   19  C10 UNL     1      16.714  29.391  20.686  1.00  0.00     0.048 A 
HETATM   20  N4  UNL     1      15.924  30.531  20.438  1.00  0.00    -0.102 NA
HETATM   21  C11 UNL     1      17.506  28.823  19.696  1.00  0.00     0.056 A 
ENDBRANCH  13  15
ENDBRANCH   4  13
BRANCH   1  22
HETATM   22  N1  UNL     1      23.260  28.570  19.486  1.00  0.00    -0.373 N 
ATOM     23  H1  UNL     1      23.941  29.329  19.507  1.00  0.00     0.161 HD
BRANCH  22  24
HETATM   24  C3  UNL     1      23.431  27.454  20.398  1.00  0.00     0.121 C 
BRANCH  24  25
HETATM   25  C2  UNL     1      24.862  27.335  20.860  1.00  0.00     0.015 C 
HETATM   26  C1  UNL     1      25.654  28.450  20.234  1.00  0.00     0.006 C 
ENDBRANCH  24  25
ENDBRANCH  22  24
ENDBRANCH   1  22
BRANCH   7  27
HETATM   27  N6  UNL     1      20.004  29.231  15.123  1.00  0.00    -0.224 N 
ATOM     28  H6  UNL     1      19.276  28.656  14.699  1.00  0.00     0.177 HD
BRANCH  27  29
HETATM   29  C13 UNL     1      20.329  30.493  14.533  1.00  0.00     0.157 C 
BRANCH  29  30
HETATM   30  C14 UNL     1      19.294  31.516  15.011  1.00  0.00     0.142 C 
BRANCH  30  31
HETATM   31  N7  UNL     1      19.943  32.478  15.861  1.00  0.00    -0.365 N 
HETATM   32  C15 UNL     1      19.947  32.309  17.127  1.00  0.00     0.197 C 
HETATM   33  N8  UNL     1      19.328  31.198  17.716  1.00  0.00    -0.067 NA
HETATM   34  N9  UNL     1      20.601  33.284  17.946  1.00  0.00    -0.067 NA
ATOM     35  H7  UNL     1      20.400  33.293  15.453  1.00  0.00     0.161 HD
ENDBRANCH  30  31
ENDBRANCH  29  30
ENDBRANCH  27  29
ENDBRANCH   7  27
BRANCH  11  36
HETATM   36  O1  UNL     1      24.230  30.516  16.336  1.00  0.00    -0.284 OA
HETATM   37  C17 UNL     1      23.465  31.557  15.778  1.00  0.00     0.237 C 
ENDBRANCH  11  36
TORSDOF 10
ENDMDL
MODEL 2
REMARK VINA RESULT: -7.395596629      2.355      5.877
REMARK  10 active torsions:
REMARK  status: ('A' for Active; 'I' for Inactive)
REMARK    1  A    between atoms: C2_2  and  C3_3 
REMARK    2  A    between atoms: C3_3  and  N1_4 
REMARK    3  A    between atoms: N1_4  and  C4_6 
REMARK    4  A    between atoms: C5_9  and  N3_10 
REMARK    5  A    between atoms: N3_10  and  C6_12 
REMARK    6  A    between atoms: C12_21  and  N6_22 
REMARK    7  A    between atoms: N6_22  and  C13_24 
REMARK    8  A    between atoms: C13_24  and  C14_25 
REMARK    9  A    between atoms: C14_25  and  N7_26 
REMARK   10  A    between atoms: N11_34  and  O1_36 
ROOT
HETATM    1  C4  UNL     1      18.394  27.697  20.456  1.00  0.00     0.163 C 
HETATM    2  N2  UNL     1      19.725  27.522  20.479  1.00  0.00    -0.172 N 
ATOM      3  H2  UNL     1      20.112  27.129  21.337  1.00  0.00     0.186 HD
HETATM    4  C5  UNL     1      20.605  27.802  19.508  1.00  0.00     0.699 C 
HETATM    5  N5  UNL     1      20.306  28.222  18.267  1.00  0.00    -0.022 N 
ATOM      6  H5  UNL     1      21.077  28.648  17.752  1.00  0.00     0.203 HD
HETATM    7  C12 UNL     1      19.134  28.161  17.605  1.00  0.00     0.694 C 
HETATM    8  N10 UNL     1      17.873  28.150  18.120  1.00  0.00    -0.171 N 
ATOM      9  H10 UNL     1      17.113  28.368  17.476  1.00  0.00     0.186 HD
HETATM   10  C16 UNL     1      17.529  27.880  19.397  1.00  0.00     0.185 C 
HETATM   11  N11 UNL     1      16.262  27.778  19.682  1.00  0.00    -0.247 N 
ATOM     12  H11 UNL     1      15.983  27.575  20.642  1.00  0.00     0.196 HD
ENDROOT
BRANCH   4  13
HETATM   13  N3  UNL     1      21.852  27.674  19.727  1.00  0.00    -0.191 N 
ATOM     14  H3  UNL     1      22.142  26.898  20.322  1.00  0.00     0.184 HD
BRANCH  13  15
HETATM   15  C6  UNL     1      22.871  28.516  19.217  1.00  0.00     0.051 A 
HETATM   16  C7  UNL     1      24.133  28.614  19.765  1.00  0.00     0.030 A 
HETATM   17  C8  UNL     1      25.102  29.454  19.230  1.00  0.00     0.004 A 
HETATM   18  C9  UNL     1      24.812  30.218  18.121  1.00  0.00     0.027 A 
HETATM   19  C10 UNL     1      23.554  30.141  17.549  1.00  0.00     0.048 A 
HETATM   20  N4  UNL     1      23.266  30.926  16.415  1.00  0.00    -0.102 NA
HETATM   21  C11 UNL     1      22.607  29.292  18.108  1.00  0.00     0.056 A 
ENDBRANCH  13  15
ENDBRANCH   4  13
BRANCH   1  22
HETATM   22  N1  UNL     1      17.805  27.696  21.599  1.00  0.00    -0.373 N 
ATOM     23  H1  UNL     1      17.290  26.863  21.885  1.00  0.00     0.161 HD
BRANCH  22  24
HETATM   24  C3  UNL     1      17.845  28.833  22.501  1.00  0.00     0.121 C 
BRANCH  24  25
HETATM   25  C2  UNL     1      16.756  29.827  22.184  1.00  0.00     0.015 C 
HETATM   26  C1  UNL     1      15.465  29.308  22.756  1.00  0.00     0.006 C 
ENDBRANCH  24  25
ENDBRANCH  22  24
ENDBRANCH   1  22
BRANCH   7  27
HETATM   27  N6  UNL     1      19.182  28.103  16.308  1.00  0.00    -0.224 N 
ATOM     28  H6  UNL     1      18.523  27.504  15.811  1.00  0.00     0.177 HD
BRANCH  27  29
HETATM   29  C13 UNL     1      20.138  28.860  15.557  1.00  0.00     0.157 C 
BRANCH  29  30
HETATM   30  C14 UNL     1      19.506  30.213  15.221  1.00  0.00     0.142 C 
BRANCH  30  31
HETATM   31  N7  UNL     1      20.260  31.256  15.862  1.00  0.00    -0.365 N 
HETATM   32  C15 UNL     1      19.894  31.700  17.002  1.00  0.00     0.197 C 
HETATM   33  N8  UNL     1      18.763  31.189  17.653  1.00  0.00    -0.067 NA
HETATM   34  N9  UNL     1      20.667  32.737  17.614  1.00  0.00    -0.067 NA
ATOM     35  H7  UNL     1      21.087  31.642  15.406  1.00  0.00     0.161 HD
ENDBRANCH  30  31
ENDBRANCH  29  30
ENDBRANCH  27  29
ENDBRANCH   7  27
BRANCH  11  36
HETATM   36  O1  UNL     1      15.293  27.939  18.722  1.00  0.00    -0.284 OA
HETATM   37  C17 UNL     1      13.962  28.173  19.115  1.00  0.00     0.237 C 
ENDBRANCH  11  36
TORSDOF 10
ENDMDL
MODEL 3
REMARK VINA RESULT: -7.289133045      4.583      8.490
REMARK  10 active torsions:
REMARK  status: ('A' for Active; 'I' for Inactive)
REMARK    1  A    between atoms: C2_2  and  C3_3 
REMARK    2  A    between atoms: C3_3  and  N1_4 
REMARK    3  A    between atoms: N1_4  and  C4_6 
REMARK    4  A    between atoms: C5_9  and  N3_10 
REMARK    5  A    between atoms: N3_10  and  C6_12 
REMARK    6  A    between atoms: C12_21  and  N6_22 
REMARK    7  A    between atoms: N6_22  and  C13_24 
REMARK    8  A    between atoms: C13_24  and  C14_25 
REMARK    9  A    between atoms: C14_25  and  N7_26 
REMARK   10  A    between atoms: N11_34  and  O1_36 
ROOT
HETATM    1  C4  UNL     1      15.066  30.408  22.439  1.00  0.00     0.163 C 
HETATM    2  N2  UNL     1      16.034  29.480  22.383  1.00  0.00    -0.172 N 
ATOM      3  H2  UNL     1      16.802  29.591  23.046  1.00  0.00     0.186 HD
HETATM    4  C5  UNL     1      16.112  28.426  21.560  1.00  0.00     0.699 C 
HETATM    5  N5  UNL     1      15.168  28.032  20.688  1.00  0.00    -0.022 N 
ATOM      6  H5  UNL     1      15.486  27.396  19.956  1.00  0.00     0.203 HD
HETATM    7  C12 UNL     1      13.861  28.357  20.641  1.00  0.00     0.694 C 
HETATM    8  N10 UNL     1      13.258  29.493  21.088  1.00  0.00    -0.171 N 
ATOM      9  H10 UNL     1      12.319  29.683  20.736  1.00  0.00     0.186 HD
HETATM   10  C16 UNL     1      13.776  30.393  21.950  1.00  0.00     0.185 C 
HETATM   11  N11 UNL     1      13.002  31.351  22.376  1.00  0.00    -0.247 N 
ATOM     12  H11 UNL     1      13.376  32.040  23.028  1.00  0.00     0.196 HD
ENDROOT
BRANCH   4  13
HETATM   13  N3  UNL     1      17.153  27.695  21.564  1.00  0.00    -0.191 N 
ATOM     14  H3  UNL     1      17.248  27.024  22.326  1.00  0.00     0.184 HD
BRANCH  13  15
HETATM   15  C6  UNL     1      18.193  27.732  20.602  1.00  0.00     0.051 A 
HETATM   16  C7  UNL     1      19.532  27.632  20.913  1.00  0.00     0.030 A 
HETATM   17  C8  UNL     1      20.519  27.674  19.935  1.00  0.00     0.004 A 
HETATM   18  C9  UNL     1      20.166  27.818  18.610  1.00  0.00     0.027 A 
HETATM   19  C10 UNL     1      18.830  27.921  18.267  1.00  0.00     0.048 A 
HETATM   20  N4  UNL     1      18.478  28.069  16.910  1.00  0.00    -0.102 NA
HETATM   21  C11 UNL     1      17.868  27.877  19.269  1.00  0.00     0.056 A 
ENDBRANCH  13  15
ENDBRANCH   4  13
BRANCH   1  22
HETATM   22  N1  UNL     1      15.367  31.502  23.045  1.00  0.00    -0.373 N 
ATOM     23  H1  UNL     1      15.017  31.650  23.992  1.00  0.00     0.161 HD
BRANCH  22  24
HETATM   24  C3  UNL     1      16.186  32.534  22.436  1.00  0.00     0.121 C 
BRANCH  24  25
HETATM   25  C2  UNL     1      16.201  33.791  23.270  1.00  0.00     0.015 C 
HETATM   26  C1  UNL     1      17.278  34.696  22.738  1.00  0.00     0.006 C 
ENDBRANCH  24  25
ENDBRANCH  22  24
ENDBRANCH   1  22
BRANCH   7  27
HETATM   27  N6  UNL     1      13.049  27.494  20.108  1.00  0.00    -0.224 N 
ATOM     28  H6  UNL     1      13.413  26.592  19.800  1.00  0.00     0.177 HD
BRANCH  27  29
HETATM   29  C13 UNL     1      11.657  27.777  19.940  1.00  0.00     0.157 C 
BRANCH  29  30
HETATM   30  C14 UNL     1      11.454  28.318  18.522  1.00  0.00     0.142 C 
BRANCH  30  31
HETATM   31  N7  UNL     1      10.459  29.355  18.553  1.00  0.00    -0.365 N 
HETATM   32  C15 UNL     1      10.816  30.582  18.565  1.00  0.00     0.197 C 
HETATM   33  N8  UNL     1      12.170  30.946  18.548  1.00  0.00    -0.067 NA
HETATM   34  N9  UNL     1       9.802  31.591  18.595  1.00  0.00    -0.067 NA
ATOM     35  H7  UNL     1       9.469  29.112  18.565  1.00  0.00     0.161 HD
ENDBRANCH  30  31
ENDBRANCH  29  30
ENDBRANCH  27  29
ENDBRANCH   7  27
BRANCH  11  36
HETATM   36  O1  UNL     1      11.695  31.454  21.968  1.00  0.00    -0.284 OA
HETATM   37  C17 UNL     1      11.116  32.729  21.817  1.00  0.00     0.237 C 
ENDBRANCH  11  36
TORSDOF 10
ENDMDL
MODEL 4
REMARK VINA RESULT: -7.204065546      5.138      9.420
REMARK  10 active torsions:
REMARK  status: ('A' for Active; 'I' for Inactive)
REMARK    1  A    between atoms: C2_2  and  C3_3 
REMARK    2  A    between atoms: C3_3  and  N1_4 
REMARK    3  A    between atoms: N1_4  and  C4_6 
REMARK    4  A    between atoms: C5_9  and  N3_10 
REMARK    5  A    between atoms: N3_10  and  C6_12 
REMARK    6  A    between atoms: C12_21  and  N6_22 
REMARK    7  A    between atoms: N6_22  and  C13_24 
REMARK    8  A    between atoms: C13_24  and  C14_25 
REMARK    9  A    between atoms: C14_25  and  N7_26 
REMARK   10  A    between atoms: N11_34  and  O1_36 
ROOT
HETATM    1  C4  UNL     1      12.176  29.449  22.030  1.00  0.00     0.163 C 
HETATM    2  N2  UNL     1      13.059  29.688  23.012  1.00  0.00    -0.172 N 
ATOM      3  H2  UNL     1      12.669  29.834  23.943  1.00  0.00     0.186 HD
HETATM    4  C5  UNL     1      14.394  29.757  22.913  1.00  0.00     0.699 C 
HETATM    5  N5  UNL     1      15.121  29.493  21.814  1.00  0.00    -0.022 N 
ATOM      6  H5  UNL     1      16.076  29.854  21.824  1.00  0.00     0.203 HD
HETATM    7  C12 UNL     1      14.770  28.821  20.701  1.00  0.00     0.694 C 
HETATM    8  N10 UNL     1      13.530  28.676  20.158  1.00  0.00    -0.171 N 
ATOM      9  H10 UNL     1      13.487  28.367  19.186  1.00  0.00     0.186 HD
HETATM   10  C16 UNL     1      12.351  28.901  20.775  1.00  0.00     0.185 C 
HETATM   11  N11 UNL     1      11.257  28.577  20.146  1.00  0.00    -0.247 N 
ATOM     12  H11 UNL     1      10.357  28.739  20.598  1.00  0.00     0.196 HD
ENDROOT
BRANCH   4  13
HETATM   13  N3  UNL     1      15.087  30.097  23.925  1.00  0.00    -0.191 N 
ATOM     14  H3  UNL     1      15.497  29.347  24.482  1.00  0.00     0.184 HD
BRANCH  13  15
HETATM   15  C6  UNL     1      15.337  31.426  24.346  1.00  0.00     0.051 A 
HETATM   16  C7  UNL     1      15.444  32.498  23.485  1.00  0.00     0.030 A 
HETATM   17  C8  UNL     1      15.690  33.787  23.943  1.00  0.00     0.004 A 
HETATM   18  C9  UNL     1      15.835  34.019  25.294  1.00  0.00     0.027 A 
HETATM   19  C10 UNL     1      15.733  32.964  26.182  1.00  0.00     0.048 A 
HETATM   20  N4  UNL     1      15.883  33.210  27.562  1.00  0.00    -0.102 NA
HETATM   21  C11 UNL     1      15.486  31.687  25.693  1.00  0.00     0.056 A 
ENDBRANCH  13  15
ENDBRANCH   4  13
BRANCH   1  22
HETATM   22  N1  UNL     1      10.956  29.776  22.276  1.00  0.00    -0.373 N 
ATOM     23  H1  UNL     1      10.374  30.110  21.509  1.00  0.00     0.161 HD
BRANCH  22  24
HETATM   24  C3  UNL     1      10.376  29.688  23.604  1.00  0.00     0.121 C 
BRANCH  24  25
HETATM   25  C2  UNL     1       9.164  28.791  23.617  1.00  0.00     0.015 C 
HETATM   26  C1  UNL     1       9.090  28.119  24.961  1.00  0.00     0.006 C 
ENDBRANCH  24  25
ENDBRANCH  22  24
ENDBRANCH   1  22
BRANCH   7  27
HETATM   27  N6  UNL     1      15.716  28.223  20.040  1.00  0.00    -0.224 N 
ATOM     28  H6  UNL     1      15.545  27.293  19.658  1.00  0.00     0.177 HD
BRANCH  27  29
HETATM   29  C13 UNL     1      16.993  28.838  19.835  1.00  0.00     0.157 C 
BRANCH  29  30
HETATM   30  C14 UNL     1      18.063  27.751  19.968  1.00  0.00     0.142 C 
BRANCH  30  31
HETATM   31  N7  UNL     1      18.597  27.457  18.665  1.00  0.00    -0.365 N 
HETATM   32  C15 UNL     1      19.842  27.625  18.432  1.00  0.00     0.197 C 
HETATM   33  N8  UNL     1      20.712  28.094  19.427  1.00  0.00    -0.067 NA
HETATM   34  N9  UNL     1      20.342  27.323  17.126  1.00  0.00    -0.067 NA
ATOM     35  H7  UNL     1      17.982  27.115  17.927  1.00  0.00     0.161 HD
ENDBRANCH  30  31
ENDBRANCH  29  30
ENDBRANCH  27  29
ENDBRANCH   7  27
BRANCH  11  36
HETATM   36  O1  UNL     1      11.287  28.022  18.890  1.00  0.00    -0.284 OA
HETATM   37  C17 UNL     1      10.937  28.811  17.778  1.00  0.00     0.237 C 
ENDBRANCH  11  36
TORSDOF 10
ENDMDL
MODEL 5
REMARK VINA RESULT: -7.184780698      5.051      9.391
REMARK  10 active torsions:
REMARK  status: ('A' for Active; 'I' for Inactive)
REMARK    1  A    between atoms: C2_2  and  C3_3 
REMARK    2  A    between atoms: C3_3  and  N1_4 
REMARK    3  A    between atoms: N1_4  and  C4_6 
REMARK    4  A    between atoms: C5_9  and  N3_10 
REMARK    5  A    between atoms: N3_10  and  C6_12 
REMARK    6  A    between atoms: C12_21  and  N6_22 
REMARK    7  A    between atoms: N6_22  and  C13_24 
REMARK    8  A    between atoms: C13_24  and  C14_25 
REMARK    9  A    between atoms: C14_25  and  N7_26 
REMARK   10  A    between atoms: N11_34  and  O1_36 
ROOT
HETATM    1  C4  UNL     1      12.095  29.462  22.110  1.00  0.00     0.163 C 
HETATM    2  N2  UNL     1      12.963  29.749  23.094  1.00  0.00    -0.172 N 
ATOM      3  H2  UNL     1      12.558  29.925  24.014  1.00  0.00     0.186 HD
HETATM    4  C5  UNL     1      14.298  29.832  23.009  1.00  0.00     0.699 C 
HETATM    5  N5  UNL     1      15.042  29.538  21.930  1.00  0.00    -0.022 N 
ATOM      6  H5  UNL     1      15.992  29.911  21.938  1.00  0.00     0.203 HD
HETATM    7  C12 UNL     1      14.714  28.820  20.838  1.00  0.00     0.694 C 
HETATM    8  N10 UNL     1      13.482  28.638  20.286  1.00  0.00    -0.171 N 
ATOM      9  H10 UNL     1      13.456  28.293  19.326  1.00  0.00     0.186 HD
HETATM   10  C16 UNL     1      12.293  28.870  20.880  1.00  0.00     0.185 C 
HETATM   11  N11 UNL     1      11.211  28.508  20.250  1.00  0.00    -0.247 N 
ATOM     12  H11 UNL     1      10.303  28.675  20.684  1.00  0.00     0.196 HD
ENDROOT
BRANCH   4  13
HETATM   13  N3  UNL     1      14.973  30.219  24.016  1.00  0.00    -0.191 N 
ATOM     14  H3  UNL     1      15.294  29.501  24.665  1.00  0.00     0.184 HD
BRANCH  13  15
HETATM   15  C6  UNL     1      15.316  31.561  24.314  1.00  0.00     0.051 A 
HETATM   16  C7  UNL     1      15.354  32.080  25.591  1.00  0.00     0.030 A 
HETATM   17  C8  UNL     1      15.697  33.404  25.836  1.00  0.00     0.004 A 
HETATM   18  C9  UNL     1      16.013  34.237  24.785  1.00  0.00     0.027 A 
HETATM   19  C10 UNL     1      15.985  33.745  23.492  1.00  0.00     0.048 A 
HETATM   20  N4  UNL     1      16.309  34.604  22.423  1.00  0.00    -0.102 NA
HETATM   21  C11 UNL     1      15.637  32.417  23.280  1.00  0.00     0.056 A 
ENDBRANCH  13  15
ENDBRANCH   4  13
BRANCH   1  22
HETATM   22  N1  UNL     1      10.868  29.782  22.330  1.00  0.00    -0.373 N 
ATOM     23  H1  UNL     1      10.314  30.156  21.559  1.00  0.00     0.161 HD
BRANCH  22  24
HETATM   24  C3  UNL     1      10.241  29.631  23.630  1.00  0.00     0.121 C 
BRANCH  24  25
HETATM   25  C2  UNL     1       9.051  28.706  23.564  1.00  0.00     0.015 C 
HETATM   26  C1  UNL     1       8.995  27.919  24.846  1.00  0.00     0.006 C 
ENDBRANCH  24  25
ENDBRANCH  22  24
ENDBRANCH   1  22
BRANCH   7  27
HETATM   27  N6  UNL     1      15.676  28.211  20.212  1.00  0.00    -0.224 N 
ATOM     28  H6  UNL     1      15.526  27.260  19.874  1.00  0.00     0.177 HD
BRANCH  27  29
HETATM   29  C13 UNL     1      16.941  28.840  19.984  1.00  0.00     0.157 C 
BRANCH  29  30
HETATM   30  C14 UNL     1      18.025  27.762  20.070  1.00  0.00     0.142 C 
BRANCH  30  31
HETATM   31  N7  UNL     1      18.525  27.493  18.749  1.00  0.00    -0.365 N 
HETATM   32  C15 UNL     1      19.774  27.600  18.506  1.00  0.00     0.197 C 
HETATM   33  N8  UNL     1      20.681  27.976  19.507  1.00  0.00    -0.067 NA
HETATM   34  N9  UNL     1      20.241  27.325  17.181  1.00  0.00    -0.067 NA
ATOM     35  H7  UNL     1      17.882  27.218  18.006  1.00  0.00     0.161 HD
ENDBRANCH  30  31
ENDBRANCH  29  30
ENDBRANCH  27  29
ENDBRANCH   7  27
BRANCH  11  36
HETATM   36  O1  UNL     1      11.265  27.908  19.016  1.00  0.00    -0.284 OA
HETATM   37  C17 UNL     1      10.899  28.643  17.873  1.00  0.00     0.237 C 
ENDBRANCH  11  36
TORSDOF 10
ENDMDL
