MODEL 1
REMARK VINA RESULT: -8.600909642      0.000      0.000
REMARK  11 active torsions:
REMARK  status: ('A' for Active; 'I' for Inactive)
REMARK    1  A    between atoms: N1_1  and  C1_4 
REMARK    2  A    between atoms: C2_7  and  N3_8 
REMARK    3  A    between atoms: N3_8  and  C3_10 
REMARK    4  A    between atoms: C3_10  and  C4_11 
REMARK    5  A    between atoms: C4_11  and  N4_12 
REMARK       I    between atoms: N4_12  and  C5_14 
REMARK    6  A    between atoms: C5_14  and  C6_16 
REMARK    7  A    between atoms: C6_16  and  C7_17 
REMARK    8  A    between atoms: C13_27  and  N7_28 
REMARK    9  A    between atoms: N7_28  and  C14_30 
REMARK   10  A    between atoms: C14_30  and  C15_31 
REMARK   11  A    between atoms: C15_31  and  O2_32 
ROOT
HETATM    1  C1  UNL     1      20.024  29.599  16.747  1.00  0.00     0.127 A 
HETATM    2  N2  UNL     1      19.322  28.767  17.534  1.00  0.00    -0.176 N 
ATOM      3  H2  UNL     1      18.326  28.638  17.361  1.00  0.00     0.186 HD
HETATM    4  C2  UNL     1      19.907  28.100  18.549  1.00  0.00     0.680 A 
HETATM    5  N6  UNL     1      21.235  28.265  18.789  1.00  0.00    -0.187 N 
ATOM      6  H6  UNL     1      21.665  27.754  19.560  1.00  0.00     0.184 HD
HETATM    7  C12 UNL     1      22.001  29.081  18.040  1.00  0.00     0.106 A 
HETATM    8  C13 UNL     1      23.368  29.239  18.301  1.00  0.00     0.129 A 
HETATM    9  N8  UNL     1      24.108  30.052  17.546  1.00  0.00    -0.351 N 
ATOM     10  H8  UNL     1      25.103  30.172  17.731  1.00  0.00     0.166 HD
HETATM   11  C16 UNL     1      23.503  30.723  16.521  1.00  0.00     0.091 A 
HETATM   12  C17 UNL     1      22.164  30.580  16.250  1.00  0.00     0.034 A 
HETATM   13  C18 UNL     1      21.374  29.749  17.010  1.00  0.00     0.040 A 
ENDROOT
BRANCH   4  14
HETATM   14  N3  UNL     1      19.247  27.291  19.324  1.00  0.00    -0.224 N 
ATOM     15  H3  UNL     1      18.771  26.471  18.949  1.00  0.00     0.177 HD
BRANCH  14  16
HETATM   16  C3  UNL     1      19.212  27.603  20.755  1.00  0.00     0.157 C 
BRANCH  16  17
HETATM   17  C4  UNL     1      17.917  27.165  21.347  1.00  0.00     0.143 C 
BRANCH  17  18
HETATM   18  N4  UNL     1      16.909  28.191  21.438  1.00  0.00    -0.359 N 
HETATM   19  C5  UNL     1      16.105  28.594  20.344  1.00  0.00     0.221 C 
HETATM   20  O1  UNL     1      16.260  28.050  19.231  1.00  0.00    -0.273 OA
ATOM     21  H4  UNL     1      16.767  28.651  22.338  1.00  0.00     0.162 HD
BRANCH  19  22
HETATM   22  C6  UNL     1      15.092  29.642  20.500  1.00  0.00     0.141 C 
BRANCH  22  23
HETATM   23  C7  UNL     1      13.744  29.231  20.095  1.00  0.00    -0.047 A 
HETATM   24  C8  UNL     1      13.162  28.110  20.649  1.00  0.00     0.024 A 
HETATM   25  C9  UNL     1      11.880  27.708  20.273  1.00  0.00     0.088 A 
HETATM   26  N5  UNL     1      11.208  28.428  19.358  1.00  0.00    -0.375 N 
HETATM   27  C10 UNL     1      11.737  29.538  18.784  1.00  0.00     0.088 A 
ATOM     28  H5  UNL     1      10.271  28.130  19.086  1.00  0.00     0.164 HD
HETATM   29  C11 UNL     1      13.009  29.930  19.162  1.00  0.00     0.024 A 
ENDBRANCH  22  23
ENDBRANCH  19  22
ENDBRANCH  17  18
ENDBRANCH  16  17
ENDBRANCH  14  16
ENDBRANCH   4  14
BRANCH   1  30
HETATM   30  N1  UNL     1      19.450  30.227  15.783  1.00  0.00    -0.384 N 
ATOM     31  H12 UNL     1      19.497  31.243  15.702  1.00  0.00     0.157 HD
ATOM     32  H11 UNL     1      18.929  29.717  15.070  1.00  0.00     0.157 HD
ENDBRANCH   1  30
BRANCH   8  33
HETATM   33  N7  UNL     1      23.876  28.591  19.265  1.00  0.00    -0.372 N 
ATOM     34  H7  UNL     1      23.333  27.813  19.639  1.00  0.00     0.161 HD
BRANCH  33  35
HETATM   35  C14 UNL     1      25.144  28.856  19.877  1.00  0.00     0.147 C 
BRANCH  35  36
HETATM   36  C15 UNL     1      25.480  27.650  20.765  1.00  0.00     0.183 C 
BRANCH  36  37
HETATM   37  O2  UNL     1      26.846  27.777  21.052  1.00  0.00    -0.399 OA
ATOM     38  H2  UNL     1      27.203  26.902  20.953  1.00  0.00     0.209 HD
ENDBRANCH  36  37
ENDBRANCH  35  36
ENDBRANCH  33  35
ENDBRANCH   8  33
TORSDOF 11
ENDMDL
MODEL 2
REMARK VINA RESULT: -8.439934725      3.002      9.855
REMARK  11 active torsions:
REMARK  status: ('A' for Active; 'I' for Inactive)
REMARK    1  A    between atoms: N1_1  and  C1_4 
REMARK    2  A    between atoms: C2_7  and  N3_8 
REMARK    3  A    between atoms: N3_8  and  C3_10 
REMARK    4  A    between atoms: C3_10  and  C4_11 
REMARK    5  A    between atoms: C4_11  and  N4_12 
REMARK       I    between atoms: N4_12  and  C5_14 
REMARK    6  A    between atoms: C5_14  and  C6_16 
REMARK    7  A    between atoms: C6_16  and  C7_17 
REMARK    8  A    between atoms: C13_27  and  N7_28 
REMARK    9  A    between atoms: N7_28  and  C14_30 
REMARK   10  A    between atoms: C14_30  and  C15_31 
REMARK   11  A    between atoms: C15_31  and  O2_32 
ROOT
HETATM    1  C1  UNL     1      14.426  29.245  22.350  1.00  0.00     0.127 A 
HETATM    2  N2  UNL     1      15.442  28.844  21.569  1.00  0.00    -0.176 N 
ATOM      3  H2  UNL     1      16.392  28.857  21.941  1.00  0.00     0.186 HD
HETATM    4  C2  UNL     1      15.234  28.423  20.305  1.00  0.00     0.680 A 
HETATM    5  N6  UNL     1      13.971  28.401  19.801  1.00  0.00    -0.187 N 
ATOM      6  H6  UNL     1      13.827  28.081  18.843  1.00  0.00     0.184 HD
HETATM    7  C12 UNL     1      12.905  28.788  20.527  1.00  0.00     0.106 A 
HETATM    8  C13 UNL     1      11.611  28.758  19.991  1.00  0.00     0.129 A 
HETATM    9  N8  UNL     1      10.569  29.146  20.727  1.00  0.00    -0.351 N 
ATOM     10  H8  UNL     1       9.624  29.127  20.344  1.00  0.00     0.166 HD
HETATM   11  C16 UNL     1      10.793  29.570  22.006  1.00  0.00     0.091 A 
HETATM   12  C17 UNL     1      12.055  29.606  22.548  1.00  0.00     0.034 A 
HETATM   13  C18 UNL     1      13.150  29.212  21.815  1.00  0.00     0.040 A 
ENDROOT
BRANCH   4  14
HETATM   14  N3  UNL     1      16.202  28.031  19.533  1.00  0.00    -0.224 N 
ATOM     15  H3  UNL     1      16.084  27.244  18.895  1.00  0.00     0.177 HD
BRANCH  14  16
HETATM   16  C3  UNL     1      17.470  28.762  19.613  1.00  0.00     0.157 C 
BRANCH  16  17
HETATM   17  C4  UNL     1      18.607  27.808  19.743  1.00  0.00     0.143 C 
BRANCH  17  18
HETATM   18  N4  UNL     1      19.663  27.980  18.777  1.00  0.00    -0.359 N 
HETATM   19  C5  UNL     1      19.446  27.972  17.378  1.00  0.00     0.221 C 
HETATM   20  O1  UNL     1      18.293  27.806  16.932  1.00  0.00    -0.273 OA
ATOM     21  H4  UNL     1      20.614  28.114  19.119  1.00  0.00     0.162 HD
BRANCH  19  22
HETATM   22  C6  UNL     1      20.561  28.157  16.443  1.00  0.00     0.141 C 
BRANCH  22  23
HETATM   23  C7  UNL     1      20.719  29.537  15.971  1.00  0.00    -0.047 A 
HETATM   24  C8  UNL     1      21.600  30.391  16.600  1.00  0.00     0.024 A 
HETATM   25  C9  UNL     1      21.761  31.706  16.161  1.00  0.00     0.088 A 
HETATM   26  N5  UNL     1      21.044  32.139  15.109  1.00  0.00    -0.375 N 
HETATM   27  C10 UNL     1      20.164  31.337  14.457  1.00  0.00     0.088 A 
ATOM     28  H5  UNL     1      21.165  33.101  14.791  1.00  0.00     0.164 HD
HETATM   29  C11 UNL     1      20.011  30.035  14.899  1.00  0.00     0.024 A 
ENDBRANCH  22  23
ENDBRANCH  19  22
ENDBRANCH  17  18
ENDBRANCH  16  17
ENDBRANCH  14  16
ENDBRANCH   4  14
BRANCH   1  30
HETATM   30  N1  UNL     1      14.643  29.643  23.553  1.00  0.00    -0.384 N 
ATOM     31  H12 UNL     1      15.524  30.083  23.821  1.00  0.00     0.157 HD
ATOM     32  H11 UNL     1      13.931  29.527  24.274  1.00  0.00     0.157 HD
ENDBRANCH   1  30
BRANCH   8  33
HETATM   33  N7  UNL     1      11.462  28.355  18.798  1.00  0.00    -0.372 N 
ATOM     34  H7  UNL     1      11.437  27.347  18.648  1.00  0.00     0.161 HD
BRANCH  33  35
HETATM   35  C14 UNL     1      11.325  29.190  17.643  1.00  0.00     0.147 C 
BRANCH  35  36
HETATM   36  C15 UNL     1       9.875  29.058  17.156  1.00  0.00     0.183 C 
BRANCH  36  37
HETATM   37  O2  UNL     1       9.967  28.466  15.889  1.00  0.00    -0.399 OA
ATOM     38  H2  UNL     1       9.783  29.165  15.274  1.00  0.00     0.209 HD
ENDBRANCH  36  37
ENDBRANCH  35  36
ENDBRANCH  33  35
ENDBRANCH   8  33
TORSDOF 11
ENDMDL
MODEL 3
REMARK VINA RESULT: -8.357907685      3.021      9.034
REMARK  11 active torsions:
REMARK  status: ('A' for Active; 'I' for Inactive)
REMARK    1  A    between atoms: N1_1  and  C1_4 
REMARK    2  A    between atoms: C2_7  and  N3_8 
REMARK    3  A    between atoms: N3_8  and  C3_10 
REMARK    4  A    between atoms: C3_10  and  C4_11 
REMARK    5  A    between atoms: C4_11  and  N4_12 
REMARK       I    between atoms: N4_12  and  C5_14 
REMARK    6  A    between atoms: C5_14  and  C6_16 
REMARK    7  A    between atoms: C6_16  and  C7_17 
REMARK    8  A    between atoms: C13_27  and  N7_28 
REMARK    9  A    between atoms: N7_28  and  C14_30 
REMARK   10  A    between atoms: C14_30  and  C15_31 
REMARK   11  A    between atoms: C15_31  and  O2_32 
ROOT
HETATM    1  C1  UNL     1      12.542  27.910  19.799  1.00  0.00     0.127 A 
HETATM    2  N2  UNL     1      13.772  27.630  19.337  1.00  0.00    -0.176 N 
ATOM      3  H2  UNL     1      13.871  27.122  18.459  1.00  0.00     0.186 HD
HETATM    4  C2  UNL     1      14.878  28.007  20.010  1.00  0.00     0.680 A 
HETATM    5  N6  UNL     1      14.756  28.687  21.182  1.00  0.00    -0.187 N 
ATOM      6  H6  UNL     1      15.601  28.965  21.682  1.00  0.00     0.184 HD
HETATM    7  C12 UNL     1      13.555  29.002  21.704  1.00  0.00     0.106 A 
HETATM    8  C13 UNL     1      13.449  29.703  22.912  1.00  0.00     0.129 A 
HETATM    9  N8  UNL     1      12.250  30.004  23.411  1.00  0.00    -0.351 N 
ATOM     10  H8  UNL     1      12.165  30.514  24.290  1.00  0.00     0.166 HD
HETATM   11  C16 UNL     1      11.137  29.617  22.720  1.00  0.00     0.091 A 
HETATM   12  C17 UNL     1      11.222  28.930  21.533  1.00  0.00     0.034 A 
HETATM   13  C18 UNL     1      12.444  28.603  20.993  1.00  0.00     0.040 A 
ENDROOT
BRANCH   4  14
HETATM   14  N3  UNL     1      16.077  27.747  19.582  1.00  0.00    -0.224 N 
ATOM     15  H3  UNL     1      16.296  26.858  19.132  1.00  0.00     0.177 HD
BRANCH  14  16
HETATM   16  C3  UNL     1      17.102  28.777  19.771  1.00  0.00     0.157 C 
BRANCH  16  17
HETATM   17  C4  UNL     1      18.413  28.302  19.245  1.00  0.00     0.143 C 
BRANCH  17  18
HETATM   18  N4  UNL     1      18.718  28.718  17.899  1.00  0.00    -0.359 N 
HETATM   19  C5  UNL     1      19.599  28.011  17.046  1.00  0.00     0.221 C 
HETATM   20  O1  UNL     1      20.156  26.972  17.457  1.00  0.00    -0.273 OA
ATOM     21  H4  UNL     1      18.277  29.566  17.543  1.00  0.00     0.162 HD
BRANCH  19  22
HETATM   22  C6  UNL     1      19.868  28.482  15.683  1.00  0.00     0.141 C 
BRANCH  22  23
HETATM   23  C7  UNL     1      20.512  29.798  15.625  1.00  0.00    -0.047 A 
HETATM   24  C8  UNL     1      21.715  30.013  16.266  1.00  0.00     0.024 A 
HETATM   25  C9  UNL     1      22.339  31.260  16.219  1.00  0.00     0.088 A 
HETATM   26  N5  UNL     1      21.755  32.261  15.537  1.00  0.00    -0.375 N 
HETATM   27  C10 UNL     1      20.572  32.100  14.891  1.00  0.00     0.088 A 
ATOM     28  H5  UNL     1      22.215  33.171  15.504  1.00  0.00     0.164 HD
HETATM   29  C11 UNL     1      19.960  30.860  14.943  1.00  0.00     0.024 A 
ENDBRANCH  22  23
ENDBRANCH  19  22
ENDBRANCH  17  18
ENDBRANCH  16  17
ENDBRANCH  14  16
ENDBRANCH   4  14
BRANCH   1  30
HETATM   30  N1  UNL     1      11.499  27.543  19.144  1.00  0.00    -0.384 N 
ATOM     31  H12 UNL     1      11.341  26.568  18.890  1.00  0.00     0.157 HD
ATOM     32  H11 UNL     1      10.797  28.226  18.862  1.00  0.00     0.157 HD
ENDBRANCH   1  30
BRANCH   8  33
HETATM   33  N7  UNL     1      14.515  30.037  23.511  1.00  0.00    -0.372 N 
ATOM     34  H7  UNL     1      15.181  29.295  23.725  1.00  0.00     0.161 HD
BRANCH  33  35
HETATM   35  C14 UNL     1      14.869  31.365  23.914  1.00  0.00     0.147 C 
BRANCH  35  36
HETATM   36  C15 UNL     1      15.815  31.928  22.844  1.00  0.00     0.183 C 
BRANCH  36  37
HETATM   37  O2  UNL     1      16.609  30.841  22.451  1.00  0.00    -0.399 OA
ATOM     38  H2  UNL     1      16.325  30.633  21.569  1.00  0.00     0.209 HD
ENDBRANCH  36  37
ENDBRANCH  35  36
ENDBRANCH  33  35
ENDBRANCH   8  33
TORSDOF 11
ENDMDL
MODEL 4
REMARK VINA RESULT: -8.260083195      3.288      8.727
REMARK  11 active torsions:
REMARK  status: ('A' for Active; 'I' for Inactive)
REMARK    1  A    between atoms: N1_1  and  C1_4 
REMARK    2  A    between atoms: C2_7  and  N3_8 
REMARK    3  A    between atoms: N3_8  and  C3_10 
REMARK    4  A    between atoms: C3_10  and  C4_11 
REMARK    5  A    between atoms: C4_11  and  N4_12 
REMARK       I    between atoms: N4_12  and  C5_14 
REMARK    6  A    between atoms: C5_14  and  C6_16 
REMARK    7  A    between atoms: C6_16  and  C7_17 
REMARK    8  A    between atoms: C13_27  and  N7_28 
REMARK    9  A    between atoms: N7_28  and  C14_30 
REMARK   10  A    between atoms: C14_30  and  C15_31 
REMARK   11  A    between atoms: C15_31  and  O2_32 
ROOT
HETATM    1  C1  UNL     1      12.416  27.953  19.762  1.00  0.00     0.127 A 
HETATM    2  N2  UNL     1      13.638  27.655  19.290  1.00  0.00    -0.176 N 
ATOM      3  H2  UNL     1      13.722  27.147  18.409  1.00  0.00     0.186 HD
HETATM    4  C2  UNL     1      14.755  28.011  19.954  1.00  0.00     0.680 A 
HETATM    5  N6  UNL     1      14.653  28.688  21.130  1.00  0.00    -0.187 N 
ATOM      6  H6  UNL     1      15.506  28.952  21.623  1.00  0.00     0.184 HD
HETATM    7  C12 UNL     1      13.462  29.022  21.662  1.00  0.00     0.106 A 
HETATM    8  C13 UNL     1      13.377  29.720  22.873  1.00  0.00     0.129 A 
HETATM    9  N8  UNL     1      12.187  30.040  23.383  1.00  0.00    -0.351 N 
ATOM     10  H8  UNL     1      12.117  30.548  24.264  1.00  0.00     0.166 HD
HETATM   11  C16 UNL     1      11.063  29.673  22.699  1.00  0.00     0.091 A 
HETATM   12  C17 UNL     1      11.127  28.989  21.510  1.00  0.00     0.034 A 
HETATM   13  C18 UNL     1      12.339  28.644  20.959  1.00  0.00     0.040 A 
ENDROOT
BRANCH   4  14
HETATM   14  N3  UNL     1      15.946  27.732  19.516  1.00  0.00    -0.224 N 
ATOM     15  H3  UNL     1      16.101  26.971  18.856  1.00  0.00     0.177 HD
BRANCH  14  16
HETATM   16  C3  UNL     1      17.057  28.552  20.007  1.00  0.00     0.157 C 
BRANCH  16  17
HETATM   17  C4  UNL     1      18.313  27.751  20.041  1.00  0.00     0.143 C 
BRANCH  17  18
HETATM   18  N4  UNL     1      19.337  28.180  19.122  1.00  0.00    -0.359 N 
HETATM   19  C5  UNL     1      19.185  28.140  17.714  1.00  0.00     0.221 C 
HETATM   20  O1  UNL     1      18.122  27.713  17.219  1.00  0.00    -0.273 OA
ATOM     21  H4  UNL     1      20.215  28.529  19.505  1.00  0.00     0.162 HD
BRANCH  19  22
HETATM   22  C6  UNL     1      20.262  28.595  16.829  1.00  0.00     0.141 C 
BRANCH  22  23
HETATM   23  C7  UNL     1      19.999  29.887  16.187  1.00  0.00    -0.047 A 
HETATM   24  C8  UNL     1      19.512  30.945  16.927  1.00  0.00     0.024 A 
HETATM   25  C9  UNL     1      19.258  32.180  16.329  1.00  0.00     0.088 A 
HETATM   26  N5  UNL     1      19.492  32.334  15.014  1.00  0.00    -0.375 N 
HETATM   27  C10 UNL     1      19.970  31.324  14.244  1.00  0.00     0.088 A 
ATOM     28  H5  UNL     1      19.305  33.239  14.581  1.00  0.00     0.164 HD
HETATM   29  C11 UNL     1      20.220  30.102  14.844  1.00  0.00     0.024 A 
ENDBRANCH  22  23
ENDBRANCH  19  22
ENDBRANCH  17  18
ENDBRANCH  16  17
ENDBRANCH  14  16
ENDBRANCH   4  14
BRANCH   1  30
HETATM   30  N1  UNL     1      11.362  27.605  19.114  1.00  0.00    -0.384 N 
ATOM     31  H12 UNL     1      11.401  26.933  18.347  1.00  0.00     0.157 HD
ATOM     32  H11 UNL     1      10.452  27.996  19.356  1.00  0.00     0.157 HD
ENDBRANCH   1  30
BRANCH   8  33
HETATM   33  N7  UNL     1      14.453  30.035  23.465  1.00  0.00    -0.372 N 
ATOM     34  H7  UNL     1      15.110  29.282  23.668  1.00  0.00     0.161 HD
BRANCH  33  35
HETATM   35  C14 UNL     1      14.830  31.356  23.872  1.00  0.00     0.147 C 
BRANCH  35  36
HETATM   36  C15 UNL     1      15.784  31.906  22.803  1.00  0.00     0.183 C 
BRANCH  36  37
HETATM   37  O2  UNL     1      16.598  30.822  22.446  1.00  0.00    -0.399 OA
ATOM     38  H2  UNL     1      16.549  30.777  21.499  1.00  0.00     0.209 HD
ENDBRANCH  36  37
ENDBRANCH  35  36
ENDBRANCH  33  35
ENDBRANCH   8  33
TORSDOF 11
ENDMDL
MODEL 5
REMARK VINA RESULT: -8.194408099      3.220      9.146
REMARK  11 active torsions:
REMARK  status: ('A' for Active; 'I' for Inactive)
REMARK    1  A    between atoms: N1_1  and  C1_4 
REMARK    2  A    between atoms: C2_7  and  N3_8 
REMARK    3  A    between atoms: N3_8  and  C3_10 
REMARK    4  A    between atoms: C3_10  and  C4_11 
REMARK    5  A    between atoms: C4_11  and  N4_12 
REMARK       I    between atoms: N4_12  and  C5_14 
REMARK    6  A    between atoms: C5_14  and  C6_16 
REMARK    7  A    between atoms: C6_16  and  C7_17 
REMARK    8  A    between atoms: C13_27  and  N7_28 
REMARK    9  A    between atoms: N7_28  and  C14_30 
REMARK   10  A    between atoms: C14_30  and  C15_31 
REMARK   11  A    between atoms: C15_31  and  O2_32 
ROOT
HETATM    1  C1  UNL     1      16.224  29.751  21.788  1.00  0.00     0.127 A 
HETATM    2  N2  UNL     1      17.040  29.154  20.904  1.00  0.00    -0.176 N 
ATOM      3  H2  UNL     1      18.040  29.348  20.939  1.00  0.00     0.186 HD
HETATM    4  C2  UNL     1      16.565  28.305  19.970  1.00  0.00     0.680 A 
HETATM    5  N6  UNL     1      15.232  28.040  19.916  1.00  0.00    -0.187 N 
ATOM      6  H6  UNL     1      14.886  27.396  19.204  1.00  0.00     0.184 HD
HETATM    7  C12 UNL     1      14.356  28.601  20.770  1.00  0.00     0.106 A 
HETATM    8  C13 UNL     1      12.986  28.315  20.699  1.00  0.00     0.129 A 
HETATM    9  N8  UNL     1      12.136  28.882  21.555  1.00  0.00    -0.351 N 
ATOM     10  H8  UNL     1      11.137  28.679  21.509  1.00  0.00     0.166 HD
HETATM   11  C16 UNL     1      12.630  29.741  22.496  1.00  0.00     0.091 A 
HETATM   12  C17 UNL     1      13.970  30.032  22.581  1.00  0.00     0.034 A 
HETATM   13  C18 UNL     1      14.872  29.464  21.712  1.00  0.00     0.040 A 
ENDROOT
BRANCH   4  14
HETATM   14  N3  UNL     1      17.336  27.718  19.105  1.00  0.00    -0.224 N 
ATOM     15  H3  UNL     1      16.955  27.095  18.394  1.00  0.00     0.177 HD
BRANCH  14  16
HETATM   16  C3  UNL     1      18.775  27.985  19.190  1.00  0.00     0.157 C 
BRANCH  16  17
HETATM   17  C4  UNL     1      19.469  27.456  17.982  1.00  0.00     0.143 C 
BRANCH  17  18
HETATM   18  N4  UNL     1      19.384  28.293  16.812  1.00  0.00    -0.359 N 
HETATM   19  C5  UNL     1      20.490  28.576  15.975  1.00  0.00     0.221 C 
HETATM   20  O1  UNL     1      21.608  28.092  16.243  1.00  0.00    -0.273 OA
ATOM     21  H4  UNL     1      18.480  28.702  16.576  1.00  0.00     0.162 HD
BRANCH  19  22
HETATM   22  C6  UNL     1      20.340  29.433  14.794  1.00  0.00     0.141 C 
BRANCH  22  23
HETATM   23  C7  UNL     1      20.192  30.858  15.108  1.00  0.00    -0.047 A 
HETATM   24  C8  UNL     1      21.306  31.638  15.338  1.00  0.00     0.024 A 
HETATM   25  C9  UNL     1      21.180  32.995  15.637  1.00  0.00     0.088 A 
HETATM   26  N5  UNL     1      19.953  33.543  15.700  1.00  0.00    -0.375 N 
HETATM   27  C10 UNL     1      18.828  32.818  15.481  1.00  0.00     0.088 A 
ATOM     28  H5  UNL     1      19.866  34.536  15.918  1.00  0.00     0.164 HD
HETATM   29  C11 UNL     1      18.961  31.472  15.185  1.00  0.00     0.024 A 
ENDBRANCH  22  23
ENDBRANCH  19  22
ENDBRANCH  17  18
ENDBRANCH  16  17
ENDBRANCH  14  16
ENDBRANCH   4  14
BRANCH   1  30
HETATM   30  N1  UNL     1      16.694  30.557  22.671  1.00  0.00    -0.384 N 
ATOM     31  H12 UNL     1      17.637  30.941  22.599  1.00  0.00     0.157 HD
ATOM     32  H11 UNL     1      16.129  30.837  23.472  1.00  0.00     0.157 HD
ENDBRANCH   1  30
BRANCH   8  33
HETATM   33  N7  UNL     1      12.584  27.511  19.806  1.00  0.00    -0.372 N 
ATOM     34  H7  UNL     1      13.045  26.602  19.756  1.00  0.00     0.161 HD
BRANCH  33  35
HETATM   35  C14 UNL     1      11.539  27.764  18.859  1.00  0.00     0.147 C 
BRANCH  35  36
HETATM   36  C15 UNL     1      11.865  29.095  18.168  1.00  0.00     0.183 C 
BRANCH  36  37
HETATM   37  O2  UNL     1      10.938  30.011  18.685  1.00  0.00    -0.399 OA
ATOM     38  H2  UNL     1      11.265  30.866  18.430  1.00  0.00     0.209 HD
ENDBRANCH  36  37
ENDBRANCH  35  36
ENDBRANCH  33  35
ENDBRANCH   8  33
TORSDOF 11
ENDMDL
