MODEL 1
REMARK VINA RESULT: -7.595947784      0.000      0.000
REMARK  12 active torsions:
REMARK  status: ('A' for Active; 'I' for Inactive)
REMARK       I    between atoms: C2_5  and  N3_6 
REMARK       I    between atoms: C2_5  and  N11_41 
REMARK    1  A    between atoms: N3_6  and  C3_8 
REMARK    2  A    between atoms: C3_8  and  C4_9 
REMARK    3  A    between atoms: C4_9  and  S1_10 
REMARK    4  A    between atoms: S1_10  and  C5_11 
REMARK    5  A    between atoms: C7_15  and  C8_16 
REMARK    6  A    between atoms: C8_16  and  N5_17 
REMARK    7  A    between atoms: C8_16  and  N6_21 
REMARK       I    between atoms: N6_21  and  C9_23 
REMARK    8  A    between atoms: C9_23  and  C10_25 
REMARK    9  A    between atoms: C14_30  and  C15_31 
REMARK   10  A    between atoms: C15_31  and  N8_32 
REMARK   11  A    between atoms: N8_32  and  O2_34 
REMARK   12  A    between atoms: N11_41  and  C17_43 
ROOT
HETATM    1  N1  UNL     1     160.320  10.126  29.978  1.00  0.00    -0.171 NA
HETATM    2  C1  UNL     1     160.406   9.380  30.867  1.00  0.00     0.196 C 
HETATM    3  N2  UNL     1     160.495   8.476  31.896  1.00  0.00    -0.126 N 
ATOM      4  H2  UNL     1     160.604   7.488  31.668  1.00  0.00     0.197 HD
HETATM    5  C2  UNL     1     160.447   8.815  33.121  1.00  0.00     0.701 C 
HETATM    6  N3  UNL     1     160.544   7.804  34.105  1.00  0.00    -0.224 N 
ATOM      7  H3  UNL     1     160.649   6.842  33.781  1.00  0.00     0.177 HD
HETATM    8  N11 UNL     1     160.289  10.155  33.508  1.00  0.00    -0.022 N 
ATOM      9  H11 UNL     1     159.532  10.397  34.147  1.00  0.00     0.203 HD
ENDROOT
BRANCH   6  10
HETATM   10  C3  UNL     1     160.507   8.025  35.530  1.00  0.00     0.148 C 
BRANCH  10  11
HETATM   11  C4  UNL     1     161.751   8.672  36.041  1.00  0.00     0.102 C 
BRANCH  11  12
HETATM   12  S1  UNL     1     163.146   7.482  36.001  1.00  0.00    -0.091 SA
BRANCH  12  13
HETATM   13  C5  UNL     1     163.554   7.083  34.310  1.00  0.00     0.159 A 
HETATM   14  N4  UNL     1     163.445   5.840  33.812  1.00  0.00    -0.344 N 
HETATM   15  C6  UNL     1     163.744   5.505  32.546  1.00  0.00     0.120 A 
ATOM     16  H4  UNL     1     163.115   5.104  34.436  1.00  0.00     0.167 HD
HETATM   17  C7  UNL     1     164.195   6.496  31.680  1.00  0.00     0.090 A 
HETATM   18  N9  UNL     1     164.298   7.731  32.196  1.00  0.00    -0.298 N 
HETATM   19  N10 UNL     1     163.999   8.039  33.445  1.00  0.00    -0.280 N 
ATOM     20  H9  UNL     1     164.627   8.479  31.586  1.00  0.00     0.187 HD
ATOM     21  H10 UNL     1     164.102   9.001  33.766  1.00  0.00     0.189 HD
BRANCH  17  22
HETATM   22  C8  UNL     1     164.545   6.204  30.266  1.00  0.00     0.337 C 
BRANCH  22  23
HETATM   23  N5  UNL     1     165.855   5.624  30.135  1.00  0.00    -0.053 N 
ATOM     24  H53 UNL     1     166.167   5.215  31.016  1.00  0.00     0.277 HD
ATOM     25  H52 UNL     1     165.827   4.779  29.564  1.00  0.00     0.277 HD
ATOM     26  H51 UNL     1     166.540   6.289  29.775  1.00  0.00     0.277 HD
ENDBRANCH  22  23
BRANCH  22  27
HETATM   27  N6  UNL     1     163.587   5.189  29.796  1.00  0.00    -0.324 N 
HETATM   28  C9  UNL     1     162.433   5.542  29.068  1.00  0.00     0.253 C 
HETATM   29  O1  UNL     1     162.164   6.732  28.785  1.00  0.00    -0.268 OA
ATOM     30  H6  UNL     1     163.764   4.206  30.002  1.00  0.00     0.165 HD
BRANCH  28  31
HETATM   31  C10 UNL     1     161.521   4.496  28.630  1.00  0.00     0.034 A 
HETATM   32  C11 UNL     1     161.515   3.279  29.309  1.00  0.00     0.043 A 
HETATM   33  C12 UNL     1     160.701   2.226  28.980  1.00  0.00     0.048 A 
HETATM   34  N7  UNL     1     160.728   0.999  29.701  1.00  0.00    -0.102 NA
HETATM   35  C13 UNL     1     159.838   2.422  27.893  1.00  0.00     0.039 A 
HETATM   36  C14 UNL     1     159.812   3.602  27.201  1.00  0.00    -0.016 A 
HETATM   37  C16 UNL     1     160.666   4.646  27.580  1.00  0.00     0.030 A 
BRANCH  36  38
HETATM   38  C15 UNL     1     158.931   3.817  26.082  1.00  0.00     0.125 C 
BRANCH  38  39
HETATM   39  N8  UNL     1     158.067   3.058  25.606  1.00  0.00    -0.280 N 
ATOM     40  H8  UNL     1     157.103   3.310  25.821  1.00  0.00     0.193 HD
BRANCH  39  41
HETATM   41  O2  UNL     1     158.212   1.965  24.857  1.00  0.00    -0.290 OA
ATOM     42  H2  UNL     1     157.813   1.108  24.949  1.00  0.00     0.244 HD
ENDBRANCH  39  41
ENDBRANCH  38  39
ENDBRANCH  36  38
ENDBRANCH  28  31
ENDBRANCH  22  27
ENDBRANCH  17  22
ENDBRANCH  12  13
ENDBRANCH  11  12
ENDBRANCH  10  11
ENDBRANCH   6  10
BRANCH   8  43
HETATM   43  C17 UNL     1     161.137  11.178  33.047  1.00  0.00     0.688 C 
HETATM   44  N12 UNL     1     162.429  11.087  33.201  1.00  0.00    -0.226 N 
HETATM   45  C18 UNL     1     163.247  12.170  32.705  1.00  0.00     0.139 C 
ATOM     46  H12 UNL     1     162.848  10.278  33.658  1.00  0.00     0.177 HD
HETATM   47  C19 UNL     1     162.589  13.484  33.075  1.00  0.00     0.040 C 
HETATM   48  C20 UNL     1     161.243  13.610  32.381  1.00  0.00     0.139 C 
HETATM   49  N13 UNL     1     160.581  12.334  32.409  1.00  0.00    -0.226 N 
ATOM     50  H13 UNL     1     159.672  12.248  31.952  1.00  0.00     0.177 HD
ENDBRANCH   8  43
TORSDOF 12
ENDMDL
MODEL 2
REMARK VINA RESULT: -7.550578979      5.668      9.173
REMARK  12 active torsions:
REMARK  status: ('A' for Active; 'I' for Inactive)
REMARK       I    between atoms: C2_5  and  N3_6 
REMARK       I    between atoms: C2_5  and  N11_41 
REMARK    1  A    between atoms: N3_6  and  C3_8 
REMARK    2  A    between atoms: C3_8  and  C4_9 
REMARK    3  A    between atoms: C4_9  and  S1_10 
REMARK    4  A    between atoms: S1_10  and  C5_11 
REMARK    5  A    between atoms: C7_15  and  C8_16 
REMARK    6  A    between atoms: C8_16  and  N5_17 
REMARK    7  A    between atoms: C8_16  and  N6_21 
REMARK       I    between atoms: N6_21  and  C9_23 
REMARK    8  A    between atoms: C9_23  and  C10_25 
REMARK    9  A    between atoms: C14_30  and  C15_31 
REMARK   10  A    between atoms: C15_31  and  N8_32 
REMARK   11  A    between atoms: N8_32  and  O2_34 
REMARK   12  A    between atoms: N11_41  and  C17_43 
ROOT
HETATM    1  N1  UNL     1     160.343  10.123  30.108  1.00  0.00    -0.171 NA
HETATM    2  C1  UNL     1     160.543   9.404  31.001  1.00  0.00     0.196 C 
HETATM    3  N2  UNL     1     160.765   8.532  32.036  1.00  0.00    -0.126 N 
ATOM      4  H2  UNL     1     160.900   7.544  31.821  1.00  0.00     0.197 HD
HETATM    5  C2  UNL     1     160.810   8.899  33.254  1.00  0.00     0.701 C 
HETATM    6  N3  UNL     1     161.042   7.918  34.246  1.00  0.00    -0.224 N 
ATOM      7  H3  UNL     1     161.162   6.954  33.935  1.00  0.00     0.177 HD
HETATM    8  N11 UNL     1     160.625  10.240  33.624  1.00  0.00    -0.022 N 
ATOM      9  H11 UNL     1     159.917  10.463  34.324  1.00  0.00     0.203 HD
ENDROOT
BRANCH   6  10
HETATM   10  C3  UNL     1     161.121   8.173  35.664  1.00  0.00     0.148 C 
BRANCH  10  11
HETATM   11  C4  UNL     1     162.501   7.987  36.202  1.00  0.00     0.102 C 
BRANCH  11  12
HETATM   12  S1  UNL     1     162.830   9.204  37.534  1.00  0.00    -0.091 SA
BRANCH  12  13
HETATM   13  C5  UNL     1     164.002  10.423  36.965  1.00  0.00     0.159 A 
HETATM   14  N4  UNL     1     165.331  10.233  37.022  1.00  0.00    -0.344 N 
HETATM   15  C6  UNL     1     166.241  11.129  36.603  1.00  0.00     0.120 A 
ATOM     16  H4  UNL     1     165.670   9.352  37.408  1.00  0.00     0.167 HD
HETATM   17  C7  UNL     1     165.797  12.336  36.072  1.00  0.00     0.090 A 
HETATM   18  N9  UNL     1     164.466  12.507  36.024  1.00  0.00    -0.298 N 
HETATM   19  N10 UNL     1     163.589  11.613  36.442  1.00  0.00    -0.280 N 
ATOM     20  H9  UNL     1     164.109  13.383  35.641  1.00  0.00     0.187 HD
ATOM     21  H10 UNL     1     162.591  11.814  36.373  1.00  0.00     0.189 HD
BRANCH  17  22
HETATM   22  C8  UNL     1     166.740  13.375  35.589  1.00  0.00     0.337 C 
BRANCH  22  23
HETATM   23  N5  UNL     1     168.035  12.835  35.270  1.00  0.00    -0.053 N 
ATOM     24  H53 UNL     1     167.953  12.006  34.682  1.00  0.00     0.277 HD
ATOM     25  H52 UNL     1     168.539  13.443  34.624  1.00  0.00     0.277 HD
ATOM     26  H51 UNL     1     168.591  12.643  36.103  1.00  0.00     0.277 HD
ENDBRANCH  22  23
BRANCH  22  27
HETATM   27  N6  UNL     1     166.182  13.897  34.330  1.00  0.00    -0.324 N 
HETATM   28  C9  UNL     1     166.689  15.064  33.722  1.00  0.00     0.253 C 
HETATM   29  O1  UNL     1     167.637  15.714  34.220  1.00  0.00    -0.268 OA
ATOM     30  H6  UNL     1     165.409  13.402  33.886  1.00  0.00     0.165 HD
BRANCH  28  31
HETATM   31  C10 UNL     1     166.097  15.534  32.479  1.00  0.00     0.034 A 
HETATM   32  C11 UNL     1     166.576  15.028  31.271  1.00  0.00     0.043 A 
HETATM   33  C12 UNL     1     166.095  15.402  30.043  1.00  0.00     0.048 A 
HETATM   34  N7  UNL     1     166.613  14.859  28.834  1.00  0.00    -0.102 NA
HETATM   35  C13 UNL     1     165.063  16.350  30.041  1.00  0.00     0.039 A 
HETATM   36  C14 UNL     1     164.564  16.872  31.204  1.00  0.00    -0.016 A 
HETATM   37  C16 UNL     1     165.093  16.454  32.433  1.00  0.00     0.030 A 
BRANCH  36  38
HETATM   38  C15 UNL     1     163.506  17.847  31.217  1.00  0.00     0.125 C 
BRANCH  38  39
HETATM   39  N8  UNL     1     162.932  18.396  30.258  1.00  0.00    -0.280 N 
ATOM     40  H8  UNL     1     162.050  17.966  29.978  1.00  0.00     0.193 HD
BRANCH  39  41
HETATM   41  O2  UNL     1     163.296  19.459  29.542  1.00  0.00    -0.290 OA
ATOM     42  H2  UNL     1     163.087  20.378  29.670  1.00  0.00     0.244 HD
ENDBRANCH  39  41
ENDBRANCH  38  39
ENDBRANCH  36  38
ENDBRANCH  28  31
ENDBRANCH  22  27
ENDBRANCH  17  22
ENDBRANCH  12  13
ENDBRANCH  11  12
ENDBRANCH  10  11
ENDBRANCH   6  10
BRANCH   8  43
HETATM   43  C17 UNL     1     161.380  11.288  33.067  1.00  0.00     0.688 C 
HETATM   44  N12 UNL     1     162.683  11.249  33.090  1.00  0.00    -0.226 N 
HETATM   45  C18 UNL     1     163.403  12.355  32.500  1.00  0.00     0.139 C 
ATOM     46  H12 UNL     1     163.179  10.463  33.510  1.00  0.00     0.177 HD
HETATM   47  C19 UNL     1     162.734  13.648  32.921  1.00  0.00     0.040 C 
HETATM   48  C20 UNL     1     161.320  13.711  32.367  1.00  0.00     0.139 C 
HETATM   49  N13 UNL     1     160.716  12.411  32.477  1.00  0.00    -0.226 N 
ATOM     50  H13 UNL     1     159.770  12.283  32.117  1.00  0.00     0.177 HD
ENDBRANCH   8  43
TORSDOF 12
ENDMDL
MODEL 3
REMARK VINA RESULT: -7.548073240      5.166      9.129
REMARK  12 active torsions:
REMARK  status: ('A' for Active; 'I' for Inactive)
REMARK       I    between atoms: C2_5  and  N3_6 
REMARK       I    between atoms: C2_5  and  N11_41 
REMARK    1  A    between atoms: N3_6  and  C3_8 
REMARK    2  A    between atoms: C3_8  and  C4_9 
REMARK    3  A    between atoms: C4_9  and  S1_10 
REMARK    4  A    between atoms: S1_10  and  C5_11 
REMARK    5  A    between atoms: C7_15  and  C8_16 
REMARK    6  A    between atoms: C8_16  and  N5_17 
REMARK    7  A    between atoms: C8_16  and  N6_21 
REMARK       I    between atoms: N6_21  and  C9_23 
REMARK    8  A    between atoms: C9_23  and  C10_25 
REMARK    9  A    between atoms: C14_30  and  C15_31 
REMARK   10  A    between atoms: C15_31  and  N8_32 
REMARK   11  A    between atoms: N8_32  and  O2_34 
REMARK   12  A    between atoms: N11_41  and  C17_43 
ROOT
HETATM    1  N1  UNL     1     160.299  10.121  30.032  1.00  0.00    -0.171 NA
HETATM    2  C1  UNL     1     160.476   9.363  30.896  1.00  0.00     0.196 C 
HETATM    3  N2  UNL     1     160.672   8.444  31.896  1.00  0.00    -0.126 N 
ATOM      4  H2  UNL     1     160.823   7.468  31.639  1.00  0.00     0.197 HD
HETATM    5  C2  UNL     1     160.673   8.753  33.130  1.00  0.00     0.701 C 
HETATM    6  N3  UNL     1     160.881   7.728  34.083  1.00  0.00    -0.224 N 
ATOM      7  H3  UNL     1     161.021   6.781  33.730  1.00  0.00     0.177 HD
HETATM    8  N11 UNL     1     160.463  10.074  33.557  1.00  0.00    -0.022 N 
ATOM      9  H11 UNL     1     159.729  10.258  34.242  1.00  0.00     0.203 HD
ENDROOT
BRANCH   6  10
HETATM   10  C3  UNL     1     160.910   7.916  35.513  1.00  0.00     0.148 C 
BRANCH  10  11
HETATM   11  C4  UNL     1     162.272   7.712  36.088  1.00  0.00     0.102 C 
BRANCH  11  12
HETATM   12  S1  UNL     1     162.658   9.043  37.289  1.00  0.00    -0.091 SA
BRANCH  12  13
HETATM   13  C5  UNL     1     163.865  10.158  36.591  1.00  0.00     0.159 A 
HETATM   14  N4  UNL     1     163.734  11.493  36.644  1.00  0.00    -0.344 N 
HETATM   15  C6  UNL     1     164.623  12.361  36.130  1.00  0.00     0.120 A 
ATOM     16  H4  UNL     1     162.908  11.873  37.106  1.00  0.00     0.167 HD
HETATM   17  C7  UNL     1     165.757  11.861  35.498  1.00  0.00     0.090 A 
HETATM   18  N9  UNL     1     165.869  10.523  35.454  1.00  0.00    -0.298 N 
HETATM   19  N10 UNL     1     164.983   9.689  35.966  1.00  0.00    -0.280 N 
ATOM     20  H9  UNL     1     166.690  10.127  34.996  1.00  0.00     0.187 HD
ATOM     21  H10 UNL     1     165.137   8.683  35.894  1.00  0.00     0.189 HD
BRANCH  17  22
HETATM   22  C8  UNL     1     166.783  12.755  34.904  1.00  0.00     0.337 C 
BRANCH  22  23
HETATM   23  N5  UNL     1     167.632  12.068  33.968  1.00  0.00    -0.053 N 
ATOM     24  H53 UNL     1     167.783  11.099  34.249  1.00  0.00     0.277 HD
ATOM     25  H52 UNL     1     167.150  11.907  33.083  1.00  0.00     0.277 HD
ATOM     26  H51 UNL     1     168.519  12.550  33.821  1.00  0.00     0.277 HD
ENDBRANCH  22  23
BRANCH  22  27
HETATM   27  N6  UNL     1     166.057  13.781  34.137  1.00  0.00    -0.324 N 
HETATM   28  C9  UNL     1     166.704  14.929  33.640  1.00  0.00     0.253 C 
HETATM   29  O1  UNL     1     167.926  15.135  33.822  1.00  0.00    -0.268 OA
ATOM     30  H6  UNL     1     165.060  13.657  33.963  1.00  0.00     0.165 HD
BRANCH  28  31
HETATM   31  C10 UNL     1     165.935  15.911  32.889  1.00  0.00     0.034 A 
HETATM   32  C11 UNL     1     165.903  17.230  33.341  1.00  0.00     0.043 A 
HETATM   33  C12 UNL     1     165.210  18.234  32.716  1.00  0.00     0.048 A 
HETATM   34  N7  UNL     1     165.205  19.568  33.211  1.00  0.00    -0.102 NA
HETATM   35  C13 UNL     1     164.505  17.876  31.558  1.00  0.00     0.039 A 
HETATM   36  C14 UNL     1     164.512  16.594  31.081  1.00  0.00    -0.016 A 
HETATM   37  C16 UNL     1     165.237  15.606  31.760  1.00  0.00     0.030 A 
BRANCH  36  38
HETATM   38  C15 UNL     1     163.792  16.212  29.894  1.00  0.00     0.125 C 
BRANCH  38  39
HETATM   39  N8  UNL     1     162.780  15.495  29.785  1.00  0.00    -0.280 N 
ATOM     40  H8  UNL     1     162.966  14.499  29.672  1.00  0.00     0.193 HD
BRANCH  39  41
HETATM   41  O2  UNL     1     161.491  15.833  29.795  1.00  0.00    -0.290 OA
ATOM     42  H2  UNL     1     160.836  15.749  29.112  1.00  0.00     0.244 HD
ENDBRANCH  39  41
ENDBRANCH  38  39
ENDBRANCH  36  38
ENDBRANCH  28  31
ENDBRANCH  22  27
ENDBRANCH  17  22
ENDBRANCH  12  13
ENDBRANCH  11  12
ENDBRANCH  10  11
ENDBRANCH   6  10
BRANCH   8  43
HETATM   43  C17 UNL     1     161.226  11.153  33.076  1.00  0.00     0.688 C 
HETATM   44  N12 UNL     1     162.525  11.143  33.181  1.00  0.00    -0.226 N 
HETATM   45  C18 UNL     1     163.253  12.280  32.666  1.00  0.00     0.139 C 
ATOM     46  H12 UNL     1     163.012  10.358  33.612  1.00  0.00     0.177 HD
HETATM   47  C19 UNL     1     162.528  13.546  33.076  1.00  0.00     0.040 C 
HETATM   48  C20 UNL     1     161.151  13.592  32.434  1.00  0.00     0.139 C 
HETATM   49  N13 UNL     1     160.573  12.276  32.472  1.00  0.00    -0.226 N 
ATOM     50  H13 UNL     1     159.655  12.136  32.050  1.00  0.00     0.177 HD
ENDBRANCH   8  43
TORSDOF 12
ENDMDL
MODEL 4
REMARK VINA RESULT: -7.330249428      3.804      5.637
REMARK  12 active torsions:
REMARK  status: ('A' for Active; 'I' for Inactive)
REMARK       I    between atoms: C2_5  and  N3_6 
REMARK       I    between atoms: C2_5  and  N11_41 
REMARK    1  A    between atoms: N3_6  and  C3_8 
REMARK    2  A    between atoms: C3_8  and  C4_9 
REMARK    3  A    between atoms: C4_9  and  S1_10 
REMARK    4  A    between atoms: S1_10  and  C5_11 
REMARK    5  A    between atoms: C7_15  and  C8_16 
REMARK    6  A    between atoms: C8_16  and  N5_17 
REMARK    7  A    between atoms: C8_16  and  N6_21 
REMARK       I    between atoms: N6_21  and  C9_23 
REMARK    8  A    between atoms: C9_23  and  C10_25 
REMARK    9  A    between atoms: C14_30  and  C15_31 
REMARK   10  A    between atoms: C15_31  and  N8_32 
REMARK   11  A    between atoms: N8_32  and  O2_34 
REMARK   12  A    between atoms: N11_41  and  C17_43 
ROOT
HETATM    1  N1  UNL     1     165.554  17.737  29.167  1.00  0.00    -0.171 NA
HETATM    2  C1  UNL     1     164.895  16.816  29.436  1.00  0.00     0.196 C 
HETATM    3  N2  UNL     1     164.120  15.720  29.720  1.00  0.00    -0.126 N 
ATOM      4  H2  UNL     1     164.256  14.871  29.171  1.00  0.00     0.197 HD
HETATM    5  C2  UNL     1     163.239  15.714  30.639  1.00  0.00     0.701 C 
HETATM    6  N3  UNL     1     162.492  14.532  30.849  1.00  0.00    -0.224 N 
ATOM      7  H3  UNL     1     162.697  13.733  30.247  1.00  0.00     0.177 HD
HETATM    8  N11 UNL     1     162.993  16.848  31.428  1.00  0.00    -0.022 N 
ATOM      9  H11 UNL     1     162.039  17.201  31.497  1.00  0.00     0.203 HD
ENDROOT
BRANCH   6  10
HETATM   10  C3  UNL     1     161.462  14.366  31.846  1.00  0.00     0.148 C 
BRANCH  10  11
HETATM   11  C4  UNL     1     161.998  13.856  33.142  1.00  0.00     0.102 C 
BRANCH  11  12
HETATM   12  S1  UNL     1     163.288  12.589  32.838  1.00  0.00    -0.091 SA
BRANCH  12  13
HETATM   13  C5  UNL     1     162.597  10.957  33.052  1.00  0.00     0.159 A 
HETATM   14  N4  UNL     1     161.299  10.686  32.836  1.00  0.00    -0.344 N 
HETATM   15  C6  UNL     1     160.746   9.471  32.987  1.00  0.00     0.120 A 
ATOM     16  H4  UNL     1     160.695  11.452  32.539  1.00  0.00     0.167 HD
HETATM   17  C7  UNL     1     161.554   8.413  33.391  1.00  0.00     0.090 A 
HETATM   18  N9  UNL     1     162.848   8.704  33.601  1.00  0.00    -0.298 N 
HETATM   19  N10 UNL     1     163.371   9.906  33.447  1.00  0.00    -0.280 N 
ATOM     20  H9  UNL     1     163.466   7.949  33.899  1.00  0.00     0.187 HD
ATOM     21  H10 UNL     1     164.364  10.051  33.627  1.00  0.00     0.189 HD
BRANCH  17  22
HETATM   22  C8  UNL     1     161.017   7.042  33.580  1.00  0.00     0.337 C 
BRANCH  22  23
HETATM   23  N5  UNL     1     159.626   7.044  33.948  1.00  0.00    -0.053 N 
ATOM     24  H53 UNL     1     159.270   6.093  34.046  1.00  0.00     0.277 HD
ATOM     25  H52 UNL     1     159.501   7.364  34.908  1.00  0.00     0.277 HD
ATOM     26  H51 UNL     1     159.054   7.586  33.301  1.00  0.00     0.277 HD
ENDBRANCH  22  23
BRANCH  22  27
HETATM   27  N6  UNL     1     161.103   6.371  32.271  1.00  0.00    -0.324 N 
HETATM   28  C9  UNL     1     162.286   5.737  31.841  1.00  0.00     0.253 C 
HETATM   29  O1  UNL     1     163.320   5.710  32.547  1.00  0.00    -0.268 OA
ATOM     30  H6  UNL     1     160.286   6.366  31.660  1.00  0.00     0.165 HD
BRANCH  28  31
HETATM   31  C10 UNL     1     162.314   5.092  30.537  1.00  0.00     0.034 A 
HETATM   32  C11 UNL     1     163.529   4.610  30.050  1.00  0.00     0.043 A 
HETATM   33  C12 UNL     1     163.672   3.989  28.836  1.00  0.00     0.048 A 
HETATM   34  N7  UNL     1     164.931   3.512  28.378  1.00  0.00    -0.102 NA
HETATM   35  C13 UNL     1     162.508   3.849  28.068  1.00  0.00     0.039 A 
HETATM   36  C14 UNL     1     161.296   4.306  28.510  1.00  0.00    -0.016 A 
HETATM   37  C16 UNL     1     161.207   4.934  29.759  1.00  0.00     0.030 A 
BRANCH  36  38
HETATM   38  C15 UNL     1     160.093   4.170  27.731  1.00  0.00     0.125 C 
BRANCH  38  39
HETATM   39  N8  UNL     1     158.906   4.213  28.105  1.00  0.00    -0.280 N 
ATOM     40  H8  UNL     1     158.299   3.500  27.701  1.00  0.00     0.193 HD
BRANCH  39  41
HETATM   41  O2  UNL     1     158.310   5.050  28.953  1.00  0.00    -0.290 OA
ATOM     42  H2  UNL     1     157.965   5.923  28.803  1.00  0.00     0.244 HD
ENDBRANCH  39  41
ENDBRANCH  38  39
ENDBRANCH  36  38
ENDBRANCH  28  31
ENDBRANCH  22  27
ENDBRANCH  17  22
ENDBRANCH  12  13
ENDBRANCH  11  12
ENDBRANCH  10  11
ENDBRANCH   6  10
BRANCH   8  43
HETATM   43  C17 UNL     1     164.013  17.516  32.128  1.00  0.00     0.688 C 
HETATM   44  N12 UNL     1     164.152  18.808  32.023  1.00  0.00    -0.226 N 
HETATM   45  C18 UNL     1     165.219  19.437  32.768  1.00  0.00     0.139 C 
ATOM     46  H12 UNL     1     163.528  19.358  31.433  1.00  0.00     0.177 HD
HETATM   47  C19 UNL     1     166.466  18.587  32.639  1.00  0.00     0.040 C 
HETATM   48  C20 UNL     1     166.241  17.226  33.277  1.00  0.00     0.139 C 
HETATM   49  N13 UNL     1     164.914  16.774  32.959  1.00  0.00    -0.226 N 
ATOM     50  H13 UNL     1     164.599  15.882  33.342  1.00  0.00     0.177 HD
ENDBRANCH   8  43
TORSDOF 12
ENDMDL
MODEL 5
REMARK VINA RESULT: -7.094297625      5.476      8.432
REMARK  12 active torsions:
REMARK  status: ('A' for Active; 'I' for Inactive)
REMARK       I    between atoms: C2_5  and  N3_6 
REMARK       I    between atoms: C2_5  and  N11_41 
REMARK    1  A    between atoms: N3_6  and  C3_8 
REMARK    2  A    between atoms: C3_8  and  C4_9 
REMARK    3  A    between atoms: C4_9  and  S1_10 
REMARK    4  A    between atoms: S1_10  and  C5_11 
REMARK    5  A    between atoms: C7_15  and  C8_16 
REMARK    6  A    between atoms: C8_16  and  N5_17 
REMARK    7  A    between atoms: C8_16  and  N6_21 
REMARK       I    between atoms: N6_21  and  C9_23 
REMARK    8  A    between atoms: C9_23  and  C10_25 
REMARK    9  A    between atoms: C14_30  and  C15_31 
REMARK   10  A    between atoms: C15_31  and  N8_32 
REMARK   11  A    between atoms: N8_32  and  O2_34 
REMARK   12  A    between atoms: N11_41  and  C17_43 
ROOT
HETATM    1  N1  UNL     1     164.687   9.153  33.193  1.00  0.00    -0.171 NA
HETATM    2  C1  UNL     1     165.451   9.906  32.742  1.00  0.00     0.196 C 
HETATM    3  N2  UNL     1     166.347  10.779  32.180  1.00  0.00    -0.126 N 
ATOM      4  H2  UNL     1     166.249  11.009  31.191  1.00  0.00     0.197 HD
HETATM    5  C2  UNL     1     167.296  11.316  32.836  1.00  0.00     0.701 C 
HETATM    6  N3  UNL     1     168.168  12.201  32.160  1.00  0.00    -0.224 N 
ATOM      7  H3  UNL     1     167.993  12.367  31.169  1.00  0.00     0.177 HD
HETATM    8  N11 UNL     1     167.496  11.040  34.198  1.00  0.00    -0.022 N 
ATOM      9  H11 UNL     1     168.415  10.720  34.505  1.00  0.00     0.203 HD
ENDROOT
BRANCH   6  10
HETATM   10  C3  UNL     1     169.286  12.887  32.761  1.00  0.00     0.148 C 
BRANCH  10  11
HETATM   11  C4  UNL     1     168.923  14.246  33.259  1.00  0.00     0.102 C 
BRANCH  11  12
HETATM   12  S1  UNL     1     168.300  15.280  31.879  1.00  0.00    -0.091 SA
BRANCH  12  13
HETATM   13  C5  UNL     1     166.519  15.198  31.815  1.00  0.00     0.159 A 
HETATM   14  N4  UNL     1     165.749  15.284  32.913  1.00  0.00    -0.344 N 
HETATM   15  C6  UNL     1     164.407  15.226  32.902  1.00  0.00     0.120 A 
ATOM     16  H4  UNL     1     166.215  15.401  33.813  1.00  0.00     0.167 HD
HETATM   17  C7  UNL     1     163.754  15.067  31.683  1.00  0.00     0.090 A 
HETATM   18  N9  UNL     1     164.541  14.983  30.598  1.00  0.00    -0.298 N 
HETATM   19  N10 UNL     1     165.859  15.042  30.632  1.00  0.00    -0.280 N 
ATOM     20  H9  UNL     1     164.091  14.865  29.689  1.00  0.00     0.187 HD
ATOM     21  H10 UNL     1     166.390  14.970  29.764  1.00  0.00     0.189 HD
BRANCH  17  22
HETATM   22  C8  UNL     1     162.274  14.994  31.588  1.00  0.00     0.337 C 
BRANCH  22  23
HETATM   23  N5  UNL     1     161.780  15.508  30.339  1.00  0.00    -0.053 N 
ATOM     24  H53 UNL     1     162.077  16.473  30.194  1.00  0.00     0.277 HD
ATOM     25  H52 UNL     1     162.254  15.071  29.548  1.00  0.00     0.277 HD
ATOM     26  H51 UNL     1     160.767  15.419  30.256  1.00  0.00     0.277 HD
ENDBRANCH  22  23
BRANCH  22  27
HETATM   27  N6  UNL     1     161.920  13.566  31.624  1.00  0.00    -0.324 N 
HETATM   28  C9  UNL     1     161.371  12.968  32.776  1.00  0.00     0.253 C 
HETATM   29  O1  UNL     1     161.156  13.619  33.825  1.00  0.00    -0.268 OA
ATOM     30  H6  UNL     1     162.076  12.994  30.794  1.00  0.00     0.165 HD
BRANCH  28  31
HETATM   31  C10 UNL     1     161.041  11.551  32.755  1.00  0.00     0.034 A 
HETATM   32  C11 UNL     1     160.325  11.042  31.672  1.00  0.00     0.043 A 
HETATM   33  C12 UNL     1     159.958   9.727  31.550  1.00  0.00     0.048 A 
HETATM   34  N7  UNL     1     159.228   9.249  30.427  1.00  0.00    -0.102 NA
HETATM   35  C13 UNL     1     160.343   8.874  32.594  1.00  0.00     0.039 A 
HETATM   36  C14 UNL     1     161.047   9.333  33.675  1.00  0.00    -0.016 A 
HETATM   37  C16 UNL     1     161.395  10.688  33.748  1.00  0.00     0.030 A 
BRANCH  36  38
HETATM   38  C15 UNL     1     161.447   8.469  34.754  1.00  0.00     0.125 C 
BRANCH  38  39
HETATM   39  N8  UNL     1     161.090   8.485  35.947  1.00  0.00    -0.280 N 
ATOM     40  H8  UNL     1     160.089   8.612  36.097  1.00  0.00     0.193 HD
BRANCH  39  41
HETATM   41  O2  UNL     1     161.817   8.362  37.056  1.00  0.00    -0.290 OA
ATOM     42  H2  UNL     1     161.571   8.503  37.963  1.00  0.00     0.244 HD
ENDBRANCH  39  41
ENDBRANCH  38  39
ENDBRANCH  36  38
ENDBRANCH  28  31
ENDBRANCH  22  27
ENDBRANCH  17  22
ENDBRANCH  12  13
ENDBRANCH  11  12
ENDBRANCH  10  11
ENDBRANCH   6  10
BRANCH   8  43
HETATM   43  C17 UNL     1     166.477  11.188  35.155  1.00  0.00     0.688 C 
HETATM   44  N12 UNL     1     166.185  10.210  35.967  1.00  0.00    -0.226 N 
HETATM   45  C18 UNL     1     165.128  10.424  36.930  1.00  0.00     0.139 C 
ATOM     46  H12 UNL     1     166.686   9.324  35.925  1.00  0.00     0.177 HD
HETATM   47  C19 UNL     1     163.977  11.126  36.238  1.00  0.00     0.040 C 
HETATM   48  C20 UNL     1     164.411  12.503  35.765  1.00  0.00     0.139 C 
HETATM   49  N13 UNL     1     165.745  12.417  35.236  1.00  0.00    -0.226 N 
ATOM     50  H13 UNL     1     166.192  13.272  34.903  1.00  0.00     0.177 HD
ENDBRANCH   8  43
TORSDOF 12
ENDMDL
