MODEL 1
REMARK VINA RESULT: -7.641321742      0.000      0.000
REMARK  11 active torsions:
REMARK  status: ('A' for Active; 'I' for Inactive)
REMARK    1  A    between atoms: C2_2  and  N1_3 
REMARK    2  A    between atoms: N1_3  and  C3_5 
REMARK    3  A    between atoms: C3_5  and  O1_6 
REMARK    4  A    between atoms: C3_5  and  C4_8 
REMARK    5  A    between atoms: C6_11  and  N3_12 
REMARK    6  A    between atoms: N3_12  and  C7_14 
REMARK    7  A    between atoms: C8_15  and  C9_16 
REMARK       I    between atoms: C9_16  and  N4_18 
REMARK    8  A    between atoms: N4_18  and  N5_20 
REMARK    9  A    between atoms: C11_24  and  N6_25 
REMARK   10  A    between atoms: N8_34  and  N9_35 
REMARK   11  A    between atoms: C16_37  and  C17_38 
ROOT
HETATM    1  C4  UNL     1     160.469   9.235  32.150  1.00  0.00     0.084 A 
HETATM    2  C5  UNL     1     160.849   8.680  30.918  1.00  0.00     0.096 A 
HETATM    3  N2  UNL     1     160.785   9.490  29.724  1.00  0.00    -0.099 NA
HETATM    4  C6  UNL     1     161.287   7.381  30.786  1.00  0.00     0.129 A 
HETATM    5  C15 UNL     1     161.336   6.638  31.938  1.00  0.00     0.296 A 
HETATM    6  O4  UNL     1     161.724   5.460  31.881  1.00  0.00    -0.264 OA
HETATM    7  N8  UNL     1     160.978   7.149  33.126  1.00  0.00    -0.204 N 
HETATM    8  C22 UNL     1     160.542   8.444  33.257  1.00  0.00     0.158 A 
HETATM    9  N11 UNL     1     160.184   8.881  34.579  1.00  0.00    -0.080 NA
ENDROOT
BRANCH   4  10
HETATM   10  N3  UNL     1     161.664   6.834  29.560  1.00  0.00    -0.345 N 
ATOM     11  H3  UNL     1     161.299   7.305  28.732  1.00  0.00     0.166 HD
BRANCH  10  12
HETATM   12  C7  UNL     1     162.474   5.726  29.322  1.00  0.00     0.118 A 
HETATM   13  C8  UNL     1     162.018   4.567  28.717  1.00  0.00     0.069 A 
HETATM   14  C10 UNL     1     162.865   3.499  28.496  1.00  0.00     0.068 A 
HETATM   15  C11 UNL     1     164.207   3.595  28.893  1.00  0.00     0.106 A 
HETATM   16  N7  UNL     1     164.610   4.730  29.474  1.00  0.00    -0.303 N 
HETATM   17  C13 UNL     1     166.009   4.851  29.899  1.00  0.00     0.161 C 
HETATM   18  C14 UNL     1     163.797   5.777  29.696  1.00  0.00     0.276 A 
HETATM   19  O3  UNL     1     164.290   6.817  30.262  1.00  0.00    -0.265 OA
BRANCH  13  20
HETATM   20  C9  UNL     1     160.622   4.424  28.308  1.00  0.00     0.272 C 
HETATM   21  O2  UNL     1     159.684   4.709  29.127  1.00  0.00    -0.266 OA
HETATM   22  N4  UNL     1     160.224   3.981  27.035  1.00  0.00    -0.272 N 
ATOM     23  H4  UNL     1     160.932   3.740  26.340  1.00  0.00     0.189 HD
BRANCH  22  24
HETATM   24  N5  UNL     1     158.863   3.867  26.709  1.00  0.00    -0.342 N 
ATOM     25  H52 UNL     1     158.170   4.157  27.398  1.00  0.00     0.176 HD
ATOM     26  H51 UNL     1     158.573   3.501  25.802  1.00  0.00     0.176 HD
ENDBRANCH  22  24
ENDBRANCH  13  20
BRANCH  15  27
HETATM   27  N6  UNL     1     165.093   2.510  28.676  1.00  0.00    -0.380 N 
HETATM   28  C12 UNL     1     165.553   2.121  27.369  1.00  0.00     0.147 C 
ATOM     29  H6  UNL     1     165.421   1.982  29.484  1.00  0.00     0.160 HD
ENDBRANCH  15  27
ENDBRANCH  10  12
ENDBRANCH   4  10
BRANCH   1  30
HETATM   30  C3  UNL     1     160.028  10.592  32.190  1.00  0.00     0.151 C 
BRANCH  30  31
HETATM   31  N1  UNL     1     160.592  11.696  32.849  1.00  0.00    -0.371 N 
ATOM     32  H1  UNL     1     160.235  12.026  33.746  1.00  0.00     0.161 HD
BRANCH  31  33
HETATM   33  C2  UNL     1     161.737  12.358  32.169  1.00  0.00     0.117 C 
HETATM   34  C1  UNL     1     161.526  13.837  32.170  1.00  0.00     0.026 C 
ENDBRANCH  31  33
ENDBRANCH  30  31
BRANCH  30  35
HETATM   35  O1  UNL     1     158.935  10.818  31.506  1.00  0.00    -0.346 OA
ATOM     36  H1  UNL     1     158.147  10.984  32.010  1.00  0.00     0.219 HD
ENDBRANCH  30  35
ENDBRANCH   1  30
BRANCH   7  37
HETATM   37  N9  UNL     1     161.039   6.365  34.281  1.00  0.00    -0.299 N 
HETATM   38  C16 UNL     1     160.006   5.717  34.702  1.00  0.00     0.137 C 
ATOM     39  H9  UNL     1     161.916   6.303  34.800  1.00  0.00     0.186 HD
BRANCH  38  40
HETATM   40  C17 UNL     1     160.059   4.892  35.911  1.00  0.00     0.049 A 
HETATM   41  C18 UNL     1     159.410   3.676  35.939  1.00  0.00     0.031 A 
HETATM   42  C19 UNL     1     159.447   2.877  37.077  1.00  0.00     0.004 A 
HETATM   43  C20 UNL     1     160.151   3.313  38.203  1.00  0.00     0.017 A 
HETATM   44  C21 UNL     1     160.777   4.525  38.126  1.00  0.00     0.088 A 
HETATM   45  N10 UNL     1     160.722   5.276  37.005  1.00  0.00    -0.365 N 
ATOM     46  H10 UNL     1     161.206   6.174  36.993  1.00  0.00     0.165 HD
ENDBRANCH  38  40
ENDBRANCH   7  37
TORSDOF 11
ENDMDL
MODEL 2
REMARK VINA RESULT: -7.360312223      2.812      6.821
REMARK  11 active torsions:
REMARK  status: ('A' for Active; 'I' for Inactive)
REMARK    1  A    between atoms: C2_2  and  N1_3 
REMARK    2  A    between atoms: N1_3  and  C3_5 
REMARK    3  A    between atoms: C3_5  and  O1_6 
REMARK    4  A    between atoms: C3_5  and  C4_8 
REMARK    5  A    between atoms: C6_11  and  N3_12 
REMARK    6  A    between atoms: N3_12  and  C7_14 
REMARK    7  A    between atoms: C8_15  and  C9_16 
REMARK       I    between atoms: C9_16  and  N4_18 
REMARK    8  A    between atoms: N4_18  and  N5_20 
REMARK    9  A    between atoms: C11_24  and  N6_25 
REMARK   10  A    between atoms: N8_34  and  N9_35 
REMARK   11  A    between atoms: C16_37  and  C17_38 
ROOT
HETATM    1  C4  UNL     1     162.942   7.202  32.769  1.00  0.00     0.084 A 
HETATM    2  C5  UNL     1     163.064   8.539  33.178  1.00  0.00     0.096 A 
HETATM    3  N2  UNL     1     164.245   9.288  32.815  1.00  0.00    -0.099 NA
HETATM    4  C6  UNL     1     162.102   9.185  33.921  1.00  0.00     0.129 A 
HETATM    5  C15 UNL     1     160.993   8.447  34.251  1.00  0.00     0.296 A 
HETATM    6  O4  UNL     1     160.091   8.977  34.919  1.00  0.00    -0.264 OA
HETATM    7  N8  UNL     1     160.856   7.167  33.869  1.00  0.00    -0.204 N 
HETATM    8  C22 UNL     1     161.816   6.524  33.129  1.00  0.00     0.158 A 
HETATM    9  N11 UNL     1     161.560   5.153  32.780  1.00  0.00    -0.080 NA
ENDROOT
BRANCH   4  10
HETATM   10  N3  UNL     1     162.227  10.514  34.325  1.00  0.00    -0.345 N 
ATOM     11  H3  UNL     1     162.139  10.684  35.327  1.00  0.00     0.166 HD
BRANCH  10  12
HETATM   12  C7  UNL     1     162.458  11.638  33.536  1.00  0.00     0.118 A 
HETATM   13  C8  UNL     1     161.677  11.971  32.441  1.00  0.00     0.069 A 
HETATM   14  C10 UNL     1     161.943  13.102  31.695  1.00  0.00     0.068 A 
HETATM   15  C11 UNL     1     163.022  13.922  32.055  1.00  0.00     0.106 A 
HETATM   16  N7  UNL     1     163.753  13.569  33.118  1.00  0.00    -0.303 N 
HETATM   17  C13 UNL     1     164.886  14.412  33.512  1.00  0.00     0.161 C 
HETATM   18  C14 UNL     1     163.506  12.470  33.853  1.00  0.00     0.276 A 
HETATM   19  O3  UNL     1     164.272  12.226  34.853  1.00  0.00    -0.265 OA
BRANCH  13  20
HETATM   20  C9  UNL     1     160.558  11.129  32.025  1.00  0.00     0.272 C 
HETATM   21  O2  UNL     1     159.421  11.248  32.596  1.00  0.00    -0.266 OA
HETATM   22  N4  UNL     1     160.644  10.164  31.007  1.00  0.00    -0.272 N 
ATOM     23  H4  UNL     1     161.528  10.025  30.516  1.00  0.00     0.189 HD
BRANCH  22  24
HETATM   24  N5  UNL     1     159.527   9.388  30.658  1.00  0.00    -0.342 N 
ATOM     25  H52 UNL     1     159.123   8.769  31.361  1.00  0.00     0.176 HD
ATOM     26  H51 UNL     1     159.128   9.441  29.721  1.00  0.00     0.176 HD
ENDBRANCH  22  24
ENDBRANCH  13  20
BRANCH  15  27
HETATM   27  N6  UNL     1     163.313  15.088  31.303  1.00  0.00    -0.380 N 
HETATM   28  C12 UNL     1     162.363  15.709  30.418  1.00  0.00     0.147 C 
ATOM     29  H6  UNL     1     164.239  15.506  31.393  1.00  0.00     0.160 HD
ENDBRANCH  15  27
ENDBRANCH  10  12
ENDBRANCH   4  10
BRANCH   1  30
HETATM   30  C3  UNL     1     163.992   6.615  32.001  1.00  0.00     0.151 C 
BRANCH  30  31
HETATM   31  N1  UNL     1     164.237   6.687  30.620  1.00  0.00    -0.371 N 
ATOM     32  H1  UNL     1     164.782   7.446  30.211  1.00  0.00     0.161 HD
BRANCH  31  33
HETATM   33  C2  UNL     1     163.658   5.599  29.788  1.00  0.00     0.117 C 
HETATM   34  C1  UNL     1     162.321   6.026  29.274  1.00  0.00     0.026 C 
ENDBRANCH  31  33
ENDBRANCH  30  31
BRANCH  30  35
HETATM   35  O1  UNL     1     164.840   5.910  32.706  1.00  0.00    -0.346 OA
ATOM     36  H1  UNL     1     165.423   6.397  33.277  1.00  0.00     0.219 HD
ENDBRANCH  30  35
ENDBRANCH   1  30
BRANCH   7  37
HETATM   37  N9  UNL     1     159.714   6.443  34.223  1.00  0.00    -0.299 N 
HETATM   38  C16 UNL     1     159.575   5.956  35.409  1.00  0.00     0.137 C 
ATOM     39  H9  UNL     1     158.979   6.297  33.531  1.00  0.00     0.186 HD
BRANCH  38  40
HETATM   40  C17 UNL     1     158.383   5.195  35.790  1.00  0.00     0.049 A 
HETATM   41  C18 UNL     1     158.502   3.868  36.144  1.00  0.00     0.031 A 
HETATM   42  C19 UNL     1     157.383   3.127  36.509  1.00  0.00     0.004 A 
HETATM   43  C20 UNL     1     156.125   3.736  36.517  1.00  0.00     0.017 A 
HETATM   44  C21 UNL     1     156.059   5.053  36.158  1.00  0.00     0.088 A 
HETATM   45  N10 UNL     1     157.165   5.744  35.810  1.00  0.00    -0.365 N 
ATOM     46  H10 UNL     1     157.067   6.726  35.550  1.00  0.00     0.165 HD
ENDBRANCH  38  40
ENDBRANCH   7  37
TORSDOF 11
ENDMDL
MODEL 3
REMARK VINA RESULT: -7.235995698      2.074      7.287
REMARK  11 active torsions:
REMARK  status: ('A' for Active; 'I' for Inactive)
REMARK    1  A    between atoms: C2_2  and  N1_3 
REMARK    2  A    between atoms: N1_3  and  C3_5 
REMARK    3  A    between atoms: C3_5  and  O1_6 
REMARK    4  A    between atoms: C3_5  and  C4_8 
REMARK    5  A    between atoms: C6_11  and  N3_12 
REMARK    6  A    between atoms: N3_12  and  C7_14 
REMARK    7  A    between atoms: C8_15  and  C9_16 
REMARK       I    between atoms: C9_16  and  N4_18 
REMARK    8  A    between atoms: N4_18  and  N5_20 
REMARK    9  A    between atoms: C11_24  and  N6_25 
REMARK   10  A    between atoms: N8_34  and  N9_35 
REMARK   11  A    between atoms: C16_37  and  C17_38 
ROOT
HETATM    1  C4  UNL     1     160.644   8.720  31.929  1.00  0.00     0.084 A 
HETATM    2  C5  UNL     1     160.694   8.392  33.292  1.00  0.00     0.096 A 
HETATM    3  N2  UNL     1     160.179   9.324  34.268  1.00  0.00    -0.099 NA
HETATM    4  C6  UNL     1     161.217   7.206  33.757  1.00  0.00     0.129 A 
HETATM    5  C15 UNL     1     161.699   6.341  32.807  1.00  0.00     0.296 A 
HETATM    6  O4  UNL     1     162.182   5.256  33.167  1.00  0.00    -0.264 OA
HETATM    7  N8  UNL     1     161.660   6.636  31.498  1.00  0.00    -0.204 N 
HETATM    8  C22 UNL     1     161.138   7.818  31.035  1.00  0.00     0.158 A 
HETATM    9  N11 UNL     1     161.151   8.024  29.613  1.00  0.00    -0.080 NA
ENDROOT
BRANCH   4  10
HETATM   10  N3  UNL     1     161.265   6.883  35.113  1.00  0.00    -0.345 N 
ATOM     11  H3  UNL     1     161.766   7.542  35.710  1.00  0.00     0.166 HD
BRANCH  10  12
HETATM   12  C7  UNL     1     160.715   5.777  35.757  1.00  0.00     0.118 A 
HETATM   13  C8  UNL     1     161.477   4.809  36.389  1.00  0.00     0.069 A 
HETATM   14  C10 UNL     1     160.883   3.735  37.020  1.00  0.00     0.068 A 
HETATM   15  C11 UNL     1     159.484   3.627  37.018  1.00  0.00     0.106 A 
HETATM   16  N7  UNL     1     158.782   4.581  36.397  1.00  0.00    -0.303 N 
HETATM   17  C13 UNL     1     157.318   4.487  36.381  1.00  0.00     0.161 C 
HETATM   18  C14 UNL     1     159.348   5.632  35.778  1.00  0.00     0.276 A 
HETATM   19  O3  UNL     1     158.577   6.488  35.214  1.00  0.00    -0.265 OA
BRANCH  13  20
HETATM   20  C9  UNL     1     162.937   4.878  36.395  1.00  0.00     0.272 C 
HETATM   21  O2  UNL     1     163.535   5.705  37.164  1.00  0.00    -0.266 OA
HETATM   22  N4  UNL     1     163.759   4.074  35.588  1.00  0.00    -0.272 N 
ATOM     23  H4  UNL     1     163.336   3.395  34.954  1.00  0.00     0.189 HD
BRANCH  22  24
HETATM   24  N5  UNL     1     165.157   4.194  35.644  1.00  0.00    -0.342 N 
ATOM     25  H52 UNL     1     165.625   4.042  36.537  1.00  0.00     0.176 HD
ATOM     26  H51 UNL     1     165.694   4.428  34.809  1.00  0.00     0.176 HD
ENDBRANCH  22  24
ENDBRANCH  13  20
BRANCH  15  27
HETATM   27  N6  UNL     1     158.853   2.532  37.659  1.00  0.00    -0.380 N 
HETATM   28  C12 UNL     1     159.583   1.471  38.303  1.00  0.00     0.147 C 
ATOM     29  H6  UNL     1     157.834   2.494  37.665  1.00  0.00     0.160 HD
ENDBRANCH  15  27
ENDBRANCH  10  12
ENDBRANCH   4  10
BRANCH   1  30
HETATM   30  C3  UNL     1     160.083   9.974  31.540  1.00  0.00     0.151 C 
BRANCH  30  31
HETATM   31  N1  UNL     1     160.290  11.252  32.083  1.00  0.00    -0.371 N 
ATOM     32  H1  UNL     1     159.529  11.787  32.502  1.00  0.00     0.161 HD
BRANCH  31  33
HETATM   33  C2  UNL     1     161.677  11.784  32.013  1.00  0.00     0.117 C 
HETATM   34  C1  UNL     1     161.637  13.277  32.057  1.00  0.00     0.026 C 
ENDBRANCH  31  33
ENDBRANCH  30  31
BRANCH  30  35
HETATM   35  O1  UNL     1     159.257   9.898  30.527  1.00  0.00    -0.346 OA
ATOM     36  H1  UNL     1     158.405   9.516  30.704  1.00  0.00     0.219 HD
ENDBRANCH  30  35
ENDBRANCH   1  30
BRANCH   7  37
HETATM   37  N9  UNL     1     162.159   5.733  30.555  1.00  0.00    -0.299 N 
HETATM   38  C16 UNL     1     163.425   5.637  30.331  1.00  0.00     0.137 C 
ATOM     39  H9  UNL     1     161.511   5.141  30.036  1.00  0.00     0.186 HD
BRANCH  38  40
HETATM   40  C17 UNL     1     163.960   4.695  29.344  1.00  0.00     0.049 A 
HETATM   41  C18 UNL     1     165.268   4.273  29.441  1.00  0.00     0.031 A 
HETATM   42  C19 UNL     1     165.796   3.378  28.515  1.00  0.00     0.004 A 
HETATM   43  C20 UNL     1     164.989   2.904  27.477  1.00  0.00     0.017 A 
HETATM   44  C21 UNL     1     163.699   3.353  27.425  1.00  0.00     0.088 A 
HETATM   45  N10 UNL     1     163.218   4.220  28.340  1.00  0.00    -0.365 N 
ATOM     46  H10 UNL     1     162.248   4.527  28.261  1.00  0.00     0.165 HD
ENDBRANCH  38  40
ENDBRANCH   7  37
TORSDOF 11
ENDMDL
MODEL 4
REMARK VINA RESULT: -7.200914226      2.494      7.895
REMARK  11 active torsions:
REMARK  status: ('A' for Active; 'I' for Inactive)
REMARK    1  A    between atoms: C2_2  and  N1_3 
REMARK    2  A    between atoms: N1_3  and  C3_5 
REMARK    3  A    between atoms: C3_5  and  O1_6 
REMARK    4  A    between atoms: C3_5  and  C4_8 
REMARK    5  A    between atoms: C6_11  and  N3_12 
REMARK    6  A    between atoms: N3_12  and  C7_14 
REMARK    7  A    between atoms: C8_15  and  C9_16 
REMARK       I    between atoms: C9_16  and  N4_18 
REMARK    8  A    between atoms: N4_18  and  N5_20 
REMARK    9  A    between atoms: C11_24  and  N6_25 
REMARK   10  A    between atoms: N8_34  and  N9_35 
REMARK   11  A    between atoms: C16_37  and  C17_38 
ROOT
HETATM    1  C4  UNL     1     161.347   5.945  30.501  1.00  0.00     0.084 A 
HETATM    2  C5  UNL     1     161.714   5.084  31.547  1.00  0.00     0.096 A 
HETATM    3  N2  UNL     1     161.866   3.672  31.286  1.00  0.00    -0.099 NA
HETATM    4  C6  UNL     1     161.941   5.523  32.833  1.00  0.00     0.129 A 
HETATM    5  C15 UNL     1     161.788   6.870  33.049  1.00  0.00     0.296 A 
HETATM    6  O4  UNL     1     161.981   7.324  34.188  1.00  0.00    -0.264 OA
HETATM    7  N8  UNL     1     161.438   7.710  32.063  1.00  0.00    -0.204 N 
HETATM    8  C22 UNL     1     161.212   7.271  30.782  1.00  0.00     0.158 A 
HETATM    9  N11 UNL     1     160.841   8.262  29.809  1.00  0.00    -0.080 NA
ENDROOT
BRANCH   4  10
HETATM   10  N3  UNL     1     162.306   4.665  33.869  1.00  0.00    -0.345 N 
ATOM     11  H3  UNL     1     163.295   4.418  33.915  1.00  0.00     0.166 HD
BRANCH  10  12
HETATM   12  C7  UNL     1     161.494   4.101  34.850  1.00  0.00     0.118 A 
HETATM   13  C8  UNL     1     161.360   4.630  36.123  1.00  0.00     0.069 A 
HETATM   14  C10 UNL     1     160.534   4.037  37.057  1.00  0.00     0.068 A 
HETATM   15  C11 UNL     1     159.821   2.881  36.706  1.00  0.00     0.106 A 
HETATM   16  N7  UNL     1     159.976   2.400  35.468  1.00  0.00    -0.303 N 
HETATM   17  C13 UNL     1     159.241   1.191  35.080  1.00  0.00     0.161 C 
HETATM   18  C14 UNL     1     160.777   2.967  34.548  1.00  0.00     0.276 A 
HETATM   19  O3  UNL     1     160.850   2.420  33.390  1.00  0.00    -0.265 OA
BRANCH  13  20
HETATM   20  C9  UNL     1     162.102   5.821  36.530  1.00  0.00     0.272 C 
HETATM   21  O2  UNL     1     163.380   5.810  36.531  1.00  0.00    -0.266 OA
HETATM   22  N4  UNL     1     161.491   7.020  36.934  1.00  0.00    -0.272 N 
ATOM     23  H4  UNL     1     160.473   7.087  36.952  1.00  0.00     0.189 HD
BRANCH  22  24
HETATM   24  N5  UNL     1     162.266   8.128  37.313  1.00  0.00    -0.342 N 
ATOM     25  H52 UNL     1     162.536   8.803  36.598  1.00  0.00     0.176 HD
ATOM     26  H51 UNL     1     162.554   8.256  38.283  1.00  0.00     0.176 HD
ENDBRANCH  22  24
ENDBRANCH  13  20
BRANCH  15  27
HETATM   27  N6  UNL     1     158.968   2.256  37.649  1.00  0.00    -0.380 N 
HETATM   28  C12 UNL     1     159.459   1.489  38.765  1.00  0.00     0.147 C 
ATOM     29  H6  UNL     1     157.960   2.354  37.533  1.00  0.00     0.160 HD
ENDBRANCH  15  27
ENDBRANCH  10  12
ENDBRANCH   4  10
BRANCH   1  30
HETATM   30  C3  UNL     1     161.132   5.398  29.200  1.00  0.00     0.151 C 
BRANCH  30  31
HETATM   31  N1  UNL     1     160.156   4.490  28.763  1.00  0.00    -0.371 N 
ATOM     32  H1  UNL     1     159.326   4.285  29.318  1.00  0.00     0.161 HD
BRANCH  31  33
HETATM   33  C2  UNL     1     160.398   3.841  27.446  1.00  0.00     0.117 C 
HETATM   34  C1  UNL     1     159.241   4.114  26.540  1.00  0.00     0.026 C 
ENDBRANCH  31  33
ENDBRANCH  30  31
BRANCH  30  35
HETATM   35  O1  UNL     1     161.981   5.820  28.297  1.00  0.00    -0.346 OA
ATOM     36  H1  UNL     1     162.619   5.187  27.988  1.00  0.00     0.219 HD
ENDBRANCH  30  35
ENDBRANCH   1  30
BRANCH   7  37
HETATM   37  N9  UNL     1     161.291   9.076  32.317  1.00  0.00    -0.299 N 
HETATM   38  C16 UNL     1     162.319   9.839  32.472  1.00  0.00     0.137 C 
ATOM     39  H9  UNL     1     160.354   9.476  32.381  1.00  0.00     0.186 HD
BRANCH  38  40
HETATM   40  C17 UNL     1     162.176  11.272  32.740  1.00  0.00     0.049 A 
HETATM   41  C18 UNL     1     162.616  11.792  33.938  1.00  0.00     0.031 A 
HETATM   42  C19 UNL     1     162.490  13.150  34.212  1.00  0.00     0.004 A 
HETATM   43  C20 UNL     1     161.911  13.995  33.262  1.00  0.00     0.017 A 
HETATM   44  C21 UNL     1     161.491  13.432  32.090  1.00  0.00     0.088 A 
HETATM   45  N10 UNL     1     161.629  12.110  31.855  1.00  0.00    -0.365 N 
ATOM     46  H10 UNL     1     161.301  11.734  30.964  1.00  0.00     0.165 HD
ENDBRANCH  38  40
ENDBRANCH   7  37
TORSDOF 11
ENDMDL
MODEL 5
REMARK VINA RESULT: -7.118015803      1.971      5.664
REMARK  11 active torsions:
REMARK  status: ('A' for Active; 'I' for Inactive)
REMARK    1  A    between atoms: C2_2  and  N1_3 
REMARK    2  A    between atoms: N1_3  and  C3_5 
REMARK    3  A    between atoms: C3_5  and  O1_6 
REMARK    4  A    between atoms: C3_5  and  C4_8 
REMARK    5  A    between atoms: C6_11  and  N3_12 
REMARK    6  A    between atoms: N3_12  and  C7_14 
REMARK    7  A    between atoms: C8_15  and  C9_16 
REMARK       I    between atoms: C9_16  and  N4_18 
REMARK    8  A    between atoms: N4_18  and  N5_20 
REMARK    9  A    between atoms: C11_24  and  N6_25 
REMARK   10  A    between atoms: N8_34  and  N9_35 
REMARK   11  A    between atoms: C16_37  and  C17_38 
ROOT
HETATM    1  C4  UNL     1     161.090   6.233  35.407  1.00  0.00     0.084 A 
HETATM    2  C5  UNL     1     161.061   5.358  34.309  1.00  0.00     0.096 A 
HETATM    3  N2  UNL     1     160.689   3.977  34.511  1.00  0.00    -0.099 NA
HETATM    4  C6  UNL     1     161.373   5.755  33.028  1.00  0.00     0.129 A 
HETATM    5  C15 UNL     1     161.722   7.072  32.869  1.00  0.00     0.296 A 
HETATM    6  O4  UNL     1     162.013   7.488  31.736  1.00  0.00    -0.264 OA
HETATM    7  N8  UNL     1     161.756   7.925  33.905  1.00  0.00    -0.204 N 
HETATM    8  C22 UNL     1     161.445   7.529  35.182  1.00  0.00     0.158 A 
HETATM    9  N11 UNL     1     161.517   8.529  36.211  1.00  0.00    -0.080 NA
ENDROOT
BRANCH   4  10
HETATM   10  N3  UNL     1     161.342   4.883  31.940  1.00  0.00    -0.345 N 
ATOM     11  H3  UNL     1     160.458   4.396  31.786  1.00  0.00     0.166 HD
BRANCH  10  12
HETATM   12  C7  UNL     1     162.362   4.592  31.038  1.00  0.00     0.118 A 
HETATM   13  C8  UNL     1     162.193   4.620  29.664  1.00  0.00     0.069 A 
HETATM   14  C10 UNL     1     163.240   4.331  28.812  1.00  0.00     0.068 A 
HETATM   15  C11 UNL     1     164.492   4.003  29.352  1.00  0.00     0.106 A 
HETATM   16  N7  UNL     1     164.617   3.986  30.683  1.00  0.00    -0.303 N 
HETATM   17  C13 UNL     1     165.917   3.644  31.269  1.00  0.00     0.161 C 
HETATM   18  C14 UNL     1     163.606   4.265  31.525  1.00  0.00     0.276 A 
HETATM   19  O3  UNL     1     163.838   4.218  32.785  1.00  0.00    -0.265 OA
BRANCH  13  20
HETATM   20  C9  UNL     1     160.898   4.938  29.066  1.00  0.00     0.272 C 
HETATM   21  O2  UNL     1     160.392   6.102  29.217  1.00  0.00    -0.266 OA
HETATM   22  N4  UNL     1     160.141   4.024  28.312  1.00  0.00    -0.272 N 
ATOM     23  H4  UNL     1     160.497   3.079  28.159  1.00  0.00     0.189 HD
BRANCH  22  24
HETATM   24  N5  UNL     1     158.903   4.397  27.767  1.00  0.00    -0.342 N 
ATOM     25  H52 UNL     1     158.076   3.855  28.017  1.00  0.00     0.176 HD
ATOM     26  H51 UNL     1     158.830   5.193  27.133  1.00  0.00     0.176 HD
ENDBRANCH  22  24
ENDBRANCH  13  20
BRANCH  15  27
HETATM   27  N6  UNL     1     165.581   3.702  28.496  1.00  0.00    -0.380 N 
HETATM   28  C12 UNL     1     165.570   2.600  27.569  1.00  0.00     0.147 C 
ATOM     29  H6  UNL     1     166.410   4.293  28.537  1.00  0.00     0.160 HD
ENDBRANCH  15  27
ENDBRANCH  10  12
ENDBRANCH   4  10
BRANCH   1  30
HETATM   30  C3  UNL     1     160.751   5.731  36.700  1.00  0.00     0.151 C 
BRANCH  30  31
HETATM   31  N1  UNL     1     159.546   5.171  37.152  1.00  0.00    -0.371 N 
ATOM     32  H1  UNL     1     159.529   4.412  37.833  1.00  0.00     0.161 HD
BRANCH  31  33
HETATM   33  C2  UNL     1     158.296   5.743  36.585  1.00  0.00     0.117 C 
HETATM   34  C1  UNL     1     157.369   4.632  36.210  1.00  0.00     0.026 C 
ENDBRANCH  31  33
ENDBRANCH  30  31
BRANCH  30  35
HETATM   35  O1  UNL     1     161.719   5.816  37.576  1.00  0.00    -0.346 OA
ATOM     36  H1  UNL     1     162.261   6.595  37.534  1.00  0.00     0.219 HD
ENDBRANCH  30  35
ENDBRANCH   1  30
BRANCH   7  37
HETATM   37  N9  UNL     1     162.116   9.261  33.709  1.00  0.00    -0.299 N 
HETATM   38  C16 UNL     1     161.223  10.170  33.511  1.00  0.00     0.137 C 
ATOM     39  H9  UNL     1     163.102   9.522  33.723  1.00  0.00     0.186 HD
BRANCH  38  40
HETATM   40  C17 UNL     1     161.589  11.573  33.304  1.00  0.00     0.049 A 
HETATM   41  C18 UNL     1     162.726  12.078  33.896  1.00  0.00     0.031 A 
HETATM   42  C19 UNL     1     163.092  13.408  33.712  1.00  0.00     0.004 A 
HETATM   43  C20 UNL     1     162.297  14.238  32.918  1.00  0.00     0.017 A 
HETATM   44  C21 UNL     1     161.180  13.691  32.353  1.00  0.00     0.088 A 
HETATM   45  N10 UNL     1     160.853  12.396  32.551  1.00  0.00    -0.365 N 
ATOM     46  H10 UNL     1     160.010  12.030  32.108  1.00  0.00     0.165 HD
ENDBRANCH  38  40
ENDBRANCH   7  37
TORSDOF 11
ENDMDL
