MODEL 1
REMARK VINA RESULT: -5.895090345      0.000      0.000
REMARK  2 active torsions:
REMARK  status: ('A' for Active; 'I' for Inactive)
REMARK    1  A    between atoms: C2_2  and  N1_3 
REMARK    2  A    between atoms: N1_3  and  N2_5 
ROOT
HETATM    1  N2  UNL     1      28.684  24.622  69.716  1.00  0.00    -0.245 N 
ATOM      2  H2  UNL     1      29.046  25.476  70.140  1.00  0.00     0.208 HD
HETATM    3  N3  UNL     1      29.366  24.104  68.808  1.00  0.00    -0.307 N 
HETATM    4  C3  UNL     1      29.064  22.914  68.070  1.00  0.00     0.171 C 
HETATM    5  C4  UNL     1      29.578  23.234  66.716  1.00  0.00    -0.008 C 
HETATM    6  C5  UNL     1      30.477  24.199  66.848  1.00  0.00    -0.008 C 
HETATM    7  C6  UNL     1      30.619  24.584  68.292  1.00  0.00     0.171 C 
ENDROOT
BRANCH   1   8
HETATM    8  N1  UNL     1      27.481  24.140  70.196  1.00  0.00    -0.298 N 
ATOM      9  H1  UNL     1      26.629  24.392  69.695  1.00  0.00     0.187 HD
BRANCH   8  10
HETATM   10  C2  UNL     1      27.363  23.319  71.340  1.00  0.00     0.098 C 
HETATM   11  C1  UNL     1      27.207  23.837  72.537  1.00  0.00     0.031 C 
ENDBRANCH   8  10
ENDBRANCH   1   8
TORSDOF 2
ENDMDL
MODEL 2
REMARK VINA RESULT: -5.563381350      1.314      5.020
REMARK  2 active torsions:
REMARK  status: ('A' for Active; 'I' for Inactive)
REMARK    1  A    between atoms: C2_2  and  N1_3 
REMARK    2  A    between atoms: N1_3  and  N2_5 
ROOT
HETATM    1  N2  UNL     1      27.601  24.265  70.832  1.00  0.00    -0.245 N 
ATOM      2  H2  UNL     1      27.786  25.265  70.909  1.00  0.00     0.208 HD
HETATM    3  N3  UNL     1      27.163  23.687  71.847  1.00  0.00    -0.307 N 
HETATM    4  C3  UNL     1      26.832  22.300  71.980  1.00  0.00     0.171 C 
HETATM    5  C4  UNL     1      27.233  22.003  73.376  1.00  0.00    -0.008 C 
HETATM    6  C5  UNL     1      27.262  23.152  74.036  1.00  0.00    -0.008 C 
HETATM    7  C6  UNL     1      26.886  24.285  73.125  1.00  0.00     0.171 C 
ENDROOT
BRANCH   1   8
HETATM    8  N1  UNL     1      27.859  23.668  69.613  1.00  0.00    -0.298 N 
ATOM      9  H1  UNL     1      27.189  22.983  69.262  1.00  0.00     0.187 HD
BRANCH   8  10
HETATM   10  C2  UNL     1      28.997  23.951  68.823  1.00  0.00     0.098 C 
HETATM   11  C1  UNL     1      29.314  23.201  67.793  1.00  0.00     0.031 C 
ENDBRANCH   8  10
ENDBRANCH   1   8
TORSDOF 2
ENDMDL
MODEL 3
REMARK VINA RESULT: -5.342706971      1.466      5.344
REMARK  2 active torsions:
REMARK  status: ('A' for Active; 'I' for Inactive)
REMARK    1  A    between atoms: C2_2  and  N1_3 
REMARK    2  A    between atoms: N1_3  and  N2_5 
ROOT
HETATM    1  N2  UNL     1      26.841  23.782  70.519  1.00  0.00    -0.245 N 
ATOM      2  H2  UNL     1      26.078  23.869  69.848  1.00  0.00     0.208 HD
HETATM    3  N3  UNL     1      26.553  23.354  71.655  1.00  0.00    -0.307 N 
HETATM    4  C3  UNL     1      27.447  23.148  72.755  1.00  0.00     0.171 C 
HETATM    5  C4  UNL     1      26.610  23.511  73.924  1.00  0.00    -0.008 C 
HETATM    6  C5  UNL     1      25.342  23.404  73.557  1.00  0.00    -0.008 C 
HETATM    7  C6  UNL     1      25.251  22.965  72.124  1.00  0.00     0.171 C 
ENDROOT
BRANCH   1   8
HETATM    8  N1  UNL     1      28.102  24.149  70.091  1.00  0.00    -0.298 N 
ATOM      9  H1  UNL     1      28.657  24.756  70.695  1.00  0.00     0.187 HD
BRANCH   8  10
HETATM   10  C2  UNL     1      28.669  23.732  68.865  1.00  0.00     0.098 C 
HETATM   11  C1  UNL     1      29.804  24.234  68.434  1.00  0.00     0.031 C 
ENDBRANCH   8  10
ENDBRANCH   1   8
TORSDOF 2
ENDMDL
MODEL 4
REMARK VINA RESULT: -5.225575979      0.846      1.557
REMARK  2 active torsions:
REMARK  status: ('A' for Active; 'I' for Inactive)
REMARK    1  A    between atoms: C2_2  and  N1_3 
REMARK    2  A    between atoms: N1_3  and  N2_5 
ROOT
HETATM    1  N2  UNL     1      27.807  23.601  69.811  1.00  0.00    -0.245 N 
ATOM      2  H2  UNL     1      27.149  22.877  69.520  1.00  0.00     0.208 HD
HETATM    3  N3  UNL     1      28.641  23.985  68.966  1.00  0.00    -0.307 N 
HETATM    4  C3  UNL     1      29.656  24.980  69.142  1.00  0.00     0.171 C 
HETATM    5  C4  UNL     1      30.778  24.445  68.333  1.00  0.00    -0.008 C 
HETATM    6  C5  UNL     1      30.265  23.599  67.450  1.00  0.00    -0.008 C 
HETATM    7  C6  UNL     1      28.775  23.515  67.614  1.00  0.00     0.171 C 
ENDROOT
BRANCH   1   8
HETATM    8  N1  UNL     1      27.697  24.068  71.106  1.00  0.00    -0.298 N 
ATOM      9  H1  UNL     1      27.998  25.024  71.300  1.00  0.00     0.187 HD
BRANCH   8  10
HETATM   10  C2  UNL     1      27.191  23.300  72.180  1.00  0.00     0.098 C 
HETATM   11  C1  UNL     1      27.184  23.767  73.407  1.00  0.00     0.031 C 
ENDBRANCH   8  10
ENDBRANCH   1   8
TORSDOF 2
ENDMDL
MODEL 5
REMARK VINA RESULT: -4.544144604      0.895      1.507
REMARK  2 active torsions:
REMARK  status: ('A' for Active; 'I' for Inactive)
REMARK    1  A    between atoms: C2_2  and  N1_3 
REMARK    2  A    between atoms: N1_3  and  N2_5 
ROOT
HETATM    1  N2  UNL     1      27.982  23.738  68.590  1.00  0.00    -0.245 N 
ATOM      2  H2  UNL     1      27.284  23.121  68.173  1.00  0.00     0.208 HD
HETATM    3  N3  UNL     1      28.975  24.026  67.892  1.00  0.00    -0.307 N 
HETATM    4  C3  UNL     1      30.076  24.865  68.259  1.00  0.00     0.171 C 
HETATM    5  C4  UNL     1      31.224  24.203  67.594  1.00  0.00    -0.008 C 
HETATM    6  C5  UNL     1      30.740  23.461  66.608  1.00  0.00    -0.008 C 
HETATM    7  C6  UNL     1      29.245  23.580  66.553  1.00  0.00     0.171 C 
ENDROOT
BRANCH   1   8
HETATM    8  N1  UNL     1      27.744  24.180  69.877  1.00  0.00    -0.298 N 
ATOM      9  H1  UNL     1      27.596  25.179  70.022  1.00  0.00     0.187 HD
BRANCH   8  10
HETATM   10  C2  UNL     1      27.695  23.329  71.005  1.00  0.00     0.098 C 
HETATM   11  C1  UNL     1      26.795  23.497  71.946  1.00  0.00     0.031 C 
ENDBRANCH   8  10
ENDBRANCH   1   8
TORSDOF 2
ENDMDL
