MODEL 1
REMARK VINA RESULT: -7.261279467      0.000      0.000
REMARK  12 active torsions:
REMARK  status: ('A' for Active; 'I' for Inactive)
REMARK    1  A    between atoms: N2_3  and  C2_4 
REMARK    2  A    between atoms: N2_3  and  C11_28 
REMARK    3  A    between atoms: C2_4  and  C3_5 
REMARK    4  A    between atoms: C3_5  and  C4_6 
REMARK    5  A    between atoms: C4_6  and  O1_7 
REMARK    6  A    between atoms: C4_6  and  N3_9 
REMARK    7  A    between atoms: N3_9  and  C5_12 
REMARK    8  A    between atoms: C5_12  and  C6_13 
REMARK    9  A    between atoms: C6_13  and  C7_14 
REMARK   10  A    between atoms: C9_18  and  N5_19 
REMARK   11  A    between atoms: C10_24  and  N7_25 
REMARK   12  A    between atoms: C11_28  and  C12_29 
ROOT
HETATM    1  N1  UNL     1      -4.939  79.152  34.993  1.00  0.00    -0.172 NA
HETATM    2  C1  UNL     1      -4.413  78.419  34.231  1.00  0.00     0.179 C 
HETATM    3  N2  UNL     1      -3.807  77.507  33.332  1.00  0.00    -0.318 N 
ENDROOT
BRANCH   3   4
HETATM    4  C2  UNL     1      -4.707  76.714  32.548  1.00  0.00     0.139 C 
BRANCH   4   5
HETATM    5  C3  UNL     1      -4.411  76.709  31.069  1.00  0.00     0.081 C 
BRANCH   5   6
HETATM    6  C4  UNL     1      -3.797  75.429  30.602  1.00  0.00     0.320 C 
BRANCH   6   7
HETATM    7  O1  UNL     1      -4.513  74.309  31.025  1.00  0.00    -0.370 OA
ATOM      8  H1  UNL     1      -3.951  73.562  31.198  1.00  0.00     0.212 HD
ENDBRANCH   6   7
BRANCH   6   9
HETATM    9  N3  UNL     1      -3.652  75.444  29.159  1.00  0.00    -0.049 N 
ATOM     10  H32 UNL     1      -2.707  75.186  28.873  1.00  0.00     0.280 HD
ATOM     11  H31 UNL     1      -4.162  74.676  28.723  1.00  0.00     0.280 HD
BRANCH   9  12
HETATM   12  C5  UNL     1      -4.046  76.729  28.605  1.00  0.00     0.240 C 
BRANCH  12  13
HETATM   13  C6  UNL     1      -3.177  77.163  27.447  1.00  0.00     0.071 C 
BRANCH  13  14
HETATM   14  C7  UNL     1      -3.836  78.170  26.581  1.00  0.00     0.004 A 
HETATM   15  C8  UNL     1      -5.065  78.613  26.967  1.00  0.00     0.117 A 
HETATM   16  N4  UNL     1      -5.741  79.549  26.281  1.00  0.00    -0.202 N 
HETATM   17  C9  UNL     1      -5.159  80.042  25.183  1.00  0.00     0.677 A 
ATOM     18  H4  UNL     1      -6.660  79.871  26.585  1.00  0.00     0.183 HD
HETATM   19  N6  UNL     1      -3.931  79.623  24.764  1.00  0.00    -0.177 N 
HETATM   20  C10 UNL     1      -3.254  78.686  25.450  1.00  0.00     0.122 A 
ATOM     21  H6  UNL     1      -3.522  80.025  23.920  1.00  0.00     0.185 HD
BRANCH  17  22
HETATM   22  N5  UNL     1      -5.723  80.964  24.441  1.00  0.00    -0.234 N 
ATOM     23  H52 UNL     1      -5.473  81.926  24.672  1.00  0.00     0.174 HD
ATOM     24  H51 UNL     1      -6.374  80.739  23.689  1.00  0.00     0.174 HD
ENDBRANCH  17  22
BRANCH  20  25
HETATM   25  N7  UNL     1      -2.117  78.269  25.048  1.00  0.00    -0.385 N 
ATOM     26  H72 UNL     1      -1.255  78.574  25.501  1.00  0.00     0.157 HD
ATOM     27  H71 UNL     1      -2.041  77.638  24.250  1.00  0.00     0.157 HD
ENDBRANCH  20  25
ENDBRANCH  13  14
ENDBRANCH  12  13
ENDBRANCH   9  12
ENDBRANCH   6   9
ENDBRANCH   5   6
ENDBRANCH   4   5
ENDBRANCH   3   4
BRANCH   3  28
HETATM   28  C11 UNL     1      -2.382  77.383  33.319  1.00  0.00     0.161 C 
BRANCH  28  29
HETATM   29  C12 UNL     1      -1.841  77.163  34.686  1.00  0.00     0.120 C 
HETATM   30  C13 UNL     1      -0.400  77.579  34.850  1.00  0.00     0.149 C 
HETATM   31  N8  UNL     1       0.002  76.776  36.016  1.00  0.00    -0.363 N 
HETATM   32  C14 UNL     1      -0.808  75.761  36.149  1.00  0.00     0.184 C 
ATOM     33  H8  UNL     1       0.792  76.981  36.626  1.00  0.00     0.162 HD
HETATM   34  N9  UNL     1      -0.703  74.792  37.168  1.00  0.00    -0.064 NA
HETATM   35  N10 UNL     1      -1.786  75.796  35.121  1.00  0.00    -0.357 N 
ATOM     36  H10 UNL     1      -2.336  75.013  34.766  1.00  0.00     0.162 HD
ENDBRANCH  28  29
ENDBRANCH   3  28
TORSDOF 12
ENDMDL
MODEL 2
REMARK VINA RESULT: -7.231294913      3.464      5.906
REMARK  12 active torsions:
REMARK  status: ('A' for Active; 'I' for Inactive)
REMARK    1  A    between atoms: N2_3  and  C2_4 
REMARK    2  A    between atoms: N2_3  and  C11_28 
REMARK    3  A    between atoms: C2_4  and  C3_5 
REMARK    4  A    between atoms: C3_5  and  C4_6 
REMARK    5  A    between atoms: C4_6  and  O1_7 
REMARK    6  A    between atoms: C4_6  and  N3_9 
REMARK    7  A    between atoms: N3_9  and  C5_12 
REMARK    8  A    between atoms: C5_12  and  C6_13 
REMARK    9  A    between atoms: C6_13  and  C7_14 
REMARK   10  A    between atoms: C9_18  and  N5_19 
REMARK   11  A    between atoms: C10_24  and  N7_25 
REMARK   12  A    between atoms: C11_28  and  C12_29 
ROOT
HETATM    1  N1  UNL     1      -0.906  74.673  37.230  1.00  0.00    -0.172 NA
HETATM    2  C1  UNL     1      -1.128  75.833  37.235  1.00  0.00     0.179 C 
HETATM    3  N2  UNL     1      -1.354  77.231  37.256  1.00  0.00    -0.318 N 
ENDROOT
BRANCH   3   4
HETATM    4  C2  UNL     1      -0.341  78.036  36.639  1.00  0.00     0.139 C 
BRANCH   4   5
HETATM    5  C3  UNL     1       0.406  77.354  35.521  1.00  0.00     0.081 C 
BRANCH   5   6
HETATM    6  C4  UNL     1      -0.114  77.715  34.168  1.00  0.00     0.320 C 
BRANCH   6   7
HETATM    7  O1  UNL     1       0.882  77.695  33.191  1.00  0.00    -0.370 OA
ATOM      8  H1  UNL     1       0.528  77.601  32.313  1.00  0.00     0.212 HD
ENDBRANCH   6   7
BRANCH   6   9
HETATM    9  N3  UNL     1      -1.217  76.843  33.810  1.00  0.00    -0.049 N 
ATOM     10  H32 UNL     1      -1.055  76.382  32.914  1.00  0.00     0.280 HD
ATOM     11  H31 UNL     1      -1.250  76.016  34.406  1.00  0.00     0.280 HD
BRANCH   9  12
HETATM   12  C5  UNL     1      -2.479  77.562  33.821  1.00  0.00     0.240 C 
BRANCH  12  13
HETATM   13  C6  UNL     1      -3.662  76.681  33.489  1.00  0.00     0.071 C 
BRANCH  13  14
HETATM   14  C7  UNL     1      -3.712  76.302  32.056  1.00  0.00     0.004 A 
HETATM   15  C8  UNL     1      -3.842  77.311  31.150  1.00  0.00     0.117 A 
HETATM   16  N4  UNL     1      -3.863  77.091  29.825  1.00  0.00    -0.202 N 
HETATM   17  C9  UNL     1      -3.751  75.824  29.414  1.00  0.00     0.677 A 
ATOM     18  H4  UNL     1      -3.960  77.858  29.161  1.00  0.00     0.183 HD
HETATM   19  N6  UNL     1      -3.621  74.787  30.290  1.00  0.00    -0.177 N 
HETATM   20  C10 UNL     1      -3.600  75.007  31.616  1.00  0.00     0.122 A 
ATOM     21  H6  UNL     1      -3.538  73.835  29.935  1.00  0.00     0.185 HD
BRANCH  17  22
HETATM   22  N5  UNL     1      -3.751  75.494  28.146  1.00  0.00    -0.234 N 
ATOM     23  H52 UNL     1      -4.122  76.199  27.508  1.00  0.00     0.174 HD
ATOM     24  H51 UNL     1      -3.410  74.591  27.815  1.00  0.00     0.174 HD
ENDBRANCH  17  22
BRANCH  20  25
HETATM   25  N7  UNL     1      -3.505  74.038  32.442  1.00  0.00    -0.385 N 
ATOM     26  H72 UNL     1      -3.047  74.160  33.345  1.00  0.00     0.157 HD
ATOM     27  H71 UNL     1      -3.867  73.113  32.210  1.00  0.00     0.157 HD
ENDBRANCH  20  25
ENDBRANCH  13  14
ENDBRANCH  12  13
ENDBRANCH   9  12
ENDBRANCH   6   9
ENDBRANCH   5   6
ENDBRANCH   4   5
ENDBRANCH   3   4
BRANCH   3  28
HETATM   28  C11 UNL     1      -2.504  77.742  37.937  1.00  0.00     0.161 C 
BRANCH  28  29
HETATM   29  C12 UNL     1      -3.691  76.869  37.733  1.00  0.00     0.120 C 
HETATM   30  C13 UNL     1      -4.741  77.463  36.827  1.00  0.00     0.149 C 
HETATM   31  N8  UNL     1      -5.938  76.717  37.243  1.00  0.00    -0.363 N 
HETATM   32  C14 UNL     1      -5.756  76.226  38.438  1.00  0.00     0.184 C 
ATOM     33  H8  UNL     1      -6.782  76.600  36.682  1.00  0.00     0.162 HD
HETATM   34  N9  UNL     1      -6.711  75.456  39.134  1.00  0.00    -0.064 NA
HETATM   35  N10 UNL     1      -4.467  76.589  38.909  1.00  0.00    -0.357 N 
ATOM     36  H10 UNL     1      -4.156  76.640  39.879  1.00  0.00     0.162 HD
ENDBRANCH  28  29
ENDBRANCH   3  28
TORSDOF 12
ENDMDL
MODEL 3
REMARK VINA RESULT: -7.218709274      2.630      8.569
REMARK  12 active torsions:
REMARK  status: ('A' for Active; 'I' for Inactive)
REMARK    1  A    between atoms: N2_3  and  C2_4 
REMARK    2  A    between atoms: N2_3  and  C11_28 
REMARK    3  A    between atoms: C2_4  and  C3_5 
REMARK    4  A    between atoms: C3_5  and  C4_6 
REMARK    5  A    between atoms: C4_6  and  O1_7 
REMARK    6  A    between atoms: C4_6  and  N3_9 
REMARK    7  A    between atoms: N3_9  and  C5_12 
REMARK    8  A    between atoms: C5_12  and  C6_13 
REMARK    9  A    between atoms: C6_13  and  C7_14 
REMARK   10  A    between atoms: C9_18  and  N5_19 
REMARK   11  A    between atoms: C10_24  and  N7_25 
REMARK   12  A    between atoms: C11_28  and  C12_29 
ROOT
HETATM    1  N1  UNL     1      -1.285  76.950  32.688  1.00  0.00    -0.172 NA
HETATM    2  C1  UNL     1      -2.425  77.192  32.500  1.00  0.00     0.179 C 
HETATM    3  N2  UNL     1      -3.802  77.471  32.316  1.00  0.00    -0.318 N 
ENDROOT
BRANCH   3   4
HETATM    4  C2  UNL     1      -4.404  78.318  33.303  1.00  0.00     0.139 C 
BRANCH   4   5
HETATM    5  C3  UNL     1      -4.144  77.901  34.730  1.00  0.00     0.081 C 
BRANCH   5   6
HETATM    6  C4  UNL     1      -5.360  77.365  35.411  1.00  0.00     0.320 C 
BRANCH   6   7
HETATM    7  O1  UNL     1      -6.096  76.507  34.593  1.00  0.00    -0.370 OA
ATOM      8  H1  UNL     1      -6.874  76.173  35.024  1.00  0.00     0.212 HD
ENDBRANCH   6   7
BRANCH   6   9
HETATM    9  N3  UNL     1      -4.989  76.714  36.653  1.00  0.00    -0.049 N 
ATOM     10  H32 UNL     1      -5.768  76.187  37.048  1.00  0.00     0.280 HD
ATOM     11  H31 UNL     1      -4.342  75.941  36.493  1.00  0.00     0.280 HD
BRANCH   9  12
HETATM   12  C5  UNL     1      -4.453  77.670  37.607  1.00  0.00     0.240 C 
BRANCH  12  13
HETATM   13  C6  UNL     1      -3.155  77.213  38.234  1.00  0.00     0.071 C 
BRANCH  13  14
HETATM   14  C7  UNL     1      -2.002  77.319  37.308  1.00  0.00     0.004 A 
HETATM   15  C8  UNL     1      -1.434  78.549  37.161  1.00  0.00     0.117 A 
HETATM   16  N4  UNL     1      -0.363  78.758  36.377  1.00  0.00    -0.202 N 
HETATM   17  C9  UNL     1       0.138  77.701  35.731  1.00  0.00     0.677 A 
ATOM     18  H4  UNL     1       0.050  79.686  36.279  1.00  0.00     0.183 HD
HETATM   19  N6  UNL     1      -0.402  76.455  35.853  1.00  0.00    -0.177 N 
HETATM   20  C10 UNL     1      -1.474  76.245  36.637  1.00  0.00     0.122 A 
ATOM     21  H6  UNL     1       0.011  75.674  35.344  1.00  0.00     0.185 HD
BRANCH  17  22
HETATM   22  N5  UNL     1       1.185  77.787  34.947  1.00  0.00    -0.234 N 
ATOM     23  H52 UNL     1       1.746  78.633  35.055  1.00  0.00     0.174 HD
ATOM     24  H51 UNL     1       1.423  77.062  34.270  1.00  0.00     0.174 HD
ENDBRANCH  17  22
BRANCH  20  25
HETATM   25  N7  UNL     1      -2.002  75.087  36.734  1.00  0.00    -0.385 N 
ATOM     26  H72 UNL     1      -2.706  74.887  37.444  1.00  0.00     0.157 HD
ATOM     27  H71 UNL     1      -1.716  74.327  36.116  1.00  0.00     0.157 HD
ENDBRANCH  20  25
ENDBRANCH  13  14
ENDBRANCH  12  13
ENDBRANCH   9  12
ENDBRANCH   6   9
ENDBRANCH   5   6
ENDBRANCH   4   5
ENDBRANCH   3   4
BRANCH   3  28
HETATM   28  C11 UNL     1      -4.502  76.847  31.235  1.00  0.00     0.161 C 
BRANCH  28  29
HETATM   29  C12 UNL     1      -3.661  76.773  30.012  1.00  0.00     0.120 C 
HETATM   30  C13 UNL     1      -4.284  77.418  28.798  1.00  0.00     0.149 C 
HETATM   31  N8  UNL     1      -3.566  76.738  27.709  1.00  0.00    -0.363 N 
HETATM   32  C14 UNL     1      -3.067  75.614  28.146  1.00  0.00     0.184 C 
ATOM     33  H8  UNL     1      -3.473  77.090  26.757  1.00  0.00     0.162 HD
HETATM   34  N9  UNL     1      -2.320  74.716  27.356  1.00  0.00    -0.064 NA
HETATM   35  N10 UNL     1      -3.396  75.450  29.518  1.00  0.00    -0.357 N 
ATOM     36  H10 UNL     1      -3.436  74.577  30.043  1.00  0.00     0.162 HD
ENDBRANCH  28  29
ENDBRANCH   3  28
TORSDOF 12
ENDMDL
MODEL 4
REMARK VINA RESULT: -7.171776481      2.080      8.289
REMARK  12 active torsions:
REMARK  status: ('A' for Active; 'I' for Inactive)
REMARK    1  A    between atoms: N2_3  and  C2_4 
REMARK    2  A    between atoms: N2_3  and  C11_28 
REMARK    3  A    between atoms: C2_4  and  C3_5 
REMARK    4  A    between atoms: C3_5  and  C4_6 
REMARK    5  A    between atoms: C4_6  and  O1_7 
REMARK    6  A    between atoms: C4_6  and  N3_9 
REMARK    7  A    between atoms: N3_9  and  C5_12 
REMARK    8  A    between atoms: C5_12  and  C6_13 
REMARK    9  A    between atoms: C6_13  and  C7_14 
REMARK   10  A    between atoms: C9_18  and  N5_19 
REMARK   11  A    between atoms: C10_24  and  N7_25 
REMARK   12  A    between atoms: C11_28  and  C12_29 
ROOT
HETATM    1  N1  UNL     1      -2.667  73.378  31.733  1.00  0.00    -0.172 NA
HETATM    2  C1  UNL     1      -3.178  74.308  31.216  1.00  0.00     0.179 C 
HETATM    3  N2  UNL     1      -3.825  75.422  30.626  1.00  0.00    -0.318 N 
ENDROOT
BRANCH   3   4
HETATM    4  C2  UNL     1      -4.220  76.464  31.527  1.00  0.00     0.139 C 
BRANCH   4   5
HETATM    5  C3  UNL     1      -5.034  75.996  32.708  1.00  0.00     0.081 C 
BRANCH   5   6
HETATM    6  C4  UNL     1      -5.448  77.112  33.609  1.00  0.00     0.320 C 
BRANCH   6   7
HETATM    7  O1  UNL     1      -6.807  77.408  33.502  1.00  0.00    -0.370 OA
ATOM      8  H1  UNL     1      -7.072  78.115  34.080  1.00  0.00     0.212 HD
ENDBRANCH   6   7
BRANCH   6   9
HETATM    9  N3  UNL     1      -5.085  76.806  34.980  1.00  0.00    -0.049 N 
ATOM     10  H32 UNL     1      -5.861  76.975  35.621  1.00  0.00     0.280 HD
ATOM     11  H31 UNL     1      -4.979  75.802  35.125  1.00  0.00     0.280 HD
BRANCH   9  12
HETATM   12  C5  UNL     1      -3.892  77.532  35.382  1.00  0.00     0.240 C 
BRANCH  12  13
HETATM   13  C6  UNL     1      -2.729  76.622  35.707  1.00  0.00     0.071 C 
BRANCH  13  14
HETATM   14  C7  UNL     1      -1.440  77.126  35.177  1.00  0.00     0.004 A 
HETATM   15  C8  UNL     1      -1.333  77.262  33.825  1.00  0.00     0.117 A 
HETATM   16  N4  UNL     1      -0.226  77.742  33.235  1.00  0.00    -0.202 N 
HETATM   17  C9  UNL     1       0.790  78.089  34.031  1.00  0.00     0.677 A 
ATOM     18  H4  UNL     1      -0.164  77.837  32.222  1.00  0.00     0.183 HD
HETATM   19  N6  UNL     1       0.721  77.968  35.387  1.00  0.00    -0.177 N 
HETATM   20  C10 UNL     1      -0.386  77.487  35.979  1.00  0.00     0.122 A 
ATOM     21  H6  UNL     1       1.519  78.245  35.959  1.00  0.00     0.185 HD
BRANCH  17  22
HETATM   22  N5  UNL     1       1.914  78.576  33.564  1.00  0.00    -0.234 N 
ATOM     23  H52 UNL     1       2.159  79.509  33.897  1.00  0.00     0.174 HD
ATOM     24  H51 UNL     1       2.502  78.062  32.908  1.00  0.00     0.174 HD
ENDBRANCH  17  22
BRANCH  20  25
HETATM   25  N7  UNL     1      -0.447  77.345  37.246  1.00  0.00    -0.385 N 
ATOM     26  H72 UNL     1      -1.259  77.664  37.773  1.00  0.00     0.157 HD
ATOM     27  H71 UNL     1       0.327  76.928  37.765  1.00  0.00     0.157 HD
ENDBRANCH  20  25
ENDBRANCH  13  14
ENDBRANCH  12  13
ENDBRANCH   9  12
ENDBRANCH   6   9
ENDBRANCH   5   6
ENDBRANCH   4   5
ENDBRANCH   3   4
BRANCH   3  28
HETATM   28  C11 UNL     1      -4.104  75.403  29.222  1.00  0.00     0.161 C 
BRANCH  28  29
HETATM   29  C12 UNL     1      -3.810  76.717  28.592  1.00  0.00     0.120 C 
HETATM   30  C13 UNL     1      -4.970  77.303  27.825  1.00  0.00     0.149 C 
HETATM   31  N8  UNL     1      -4.277  78.219  26.906  1.00  0.00    -0.363 N 
HETATM   32  C14 UNL     1      -3.029  77.858  26.785  1.00  0.00     0.184 C 
ATOM     33  H8  UNL     1      -4.706  79.016  26.436  1.00  0.00     0.162 HD
HETATM   34  N9  UNL     1      -2.085  78.524  25.976  1.00  0.00    -0.064 NA
HETATM   35  N10 UNL     1      -2.788  76.709  27.583  1.00  0.00    -0.357 N 
ATOM     36  H10 UNL     1      -2.044  76.021  27.465  1.00  0.00     0.162 HD
ENDBRANCH  28  29
ENDBRANCH   3  28
TORSDOF 12
ENDMDL
MODEL 5
REMARK VINA RESULT: -7.004187782      3.147      5.284
REMARK  12 active torsions:
REMARK  status: ('A' for Active; 'I' for Inactive)
REMARK    1  A    between atoms: N2_3  and  C2_4 
REMARK    2  A    between atoms: N2_3  and  C11_28 
REMARK    3  A    between atoms: C2_4  and  C3_5 
REMARK    4  A    between atoms: C3_5  and  C4_6 
REMARK    5  A    between atoms: C4_6  and  O1_7 
REMARK    6  A    between atoms: C4_6  and  N3_9 
REMARK    7  A    between atoms: N3_9  and  C5_12 
REMARK    8  A    between atoms: C5_12  and  C6_13 
REMARK    9  A    between atoms: C6_13  and  C7_14 
REMARK   10  A    between atoms: C9_18  and  N5_19 
REMARK   11  A    between atoms: C10_24  and  N7_25 
REMARK   12  A    between atoms: C11_28  and  C12_29 
ROOT
HETATM    1  N1  UNL     1       2.500  78.035  33.852  1.00  0.00    -0.172 NA
HETATM    2  C1  UNL     1       1.468  78.041  34.425  1.00  0.00     0.179 C 
HETATM    3  N2  UNL     1       0.217  78.082  35.087  1.00  0.00    -0.318 N 
ENDROOT
BRANCH   3   4
HETATM    4  C2  UNL     1      -0.937  78.142  34.239  1.00  0.00     0.139 C 
BRANCH   4   5
HETATM    5  C3  UNL     1      -1.195  76.887  33.442  1.00  0.00     0.081 C 
BRANCH   5   6
HETATM    6  C4  UNL     1      -1.968  75.862  34.204  1.00  0.00     0.320 C 
BRANCH   6   7
HETATM    7  O1  UNL     1      -1.186  75.196  35.149  1.00  0.00    -0.370 OA
ATOM      8  H1  UNL     1      -1.346  74.259  35.157  1.00  0.00     0.212 HD
ENDBRANCH   6   7
BRANCH   6   9
HETATM    9  N3  UNL     1      -3.130  76.473  34.823  1.00  0.00    -0.049 N 
ATOM     10  H32 UNL     1      -3.628  75.813  35.421  1.00  0.00     0.280 HD
ATOM     11  H31 UNL     1      -2.861  77.155  35.533  1.00  0.00     0.280 HD
BRANCH   9  12
HETATM   12  C5  UNL     1      -4.008  77.059  33.825  1.00  0.00     0.240 C 
BRANCH  12  13
HETATM   13  C6  UNL     1      -4.738  76.023  33.002  1.00  0.00     0.071 C 
BRANCH  13  14
HETATM   14  C7  UNL     1      -4.287  75.990  31.589  1.00  0.00     0.004 A 
HETATM   15  C8  UNL     1      -4.448  77.129  30.858  1.00  0.00     0.117 A 
HETATM   16  N4  UNL     1      -4.046  77.228  29.581  1.00  0.00    -0.202 N 
HETATM   17  C9  UNL     1      -3.470  76.151  29.036  1.00  0.00     0.677 A 
ATOM     18  H4  UNL     1      -4.173  78.088  29.049  1.00  0.00     0.183 HD
HETATM   19  N6  UNL     1      -3.292  74.994  29.735  1.00  0.00    -0.177 N 
HETATM   20  C10 UNL     1      -3.696  74.894  31.013  1.00  0.00     0.122 A 
ATOM     21  H6  UNL     1      -2.849  74.195  29.282  1.00  0.00     0.185 HD
BRANCH  17  22
HETATM   22  N5  UNL     1      -3.032  76.137  27.801  1.00  0.00    -0.234 N 
ATOM     23  H52 UNL     1      -3.338  76.917  27.218  1.00  0.00     0.174 HD
ATOM     24  H51 UNL     1      -2.431  75.395  27.442  1.00  0.00     0.174 HD
ENDBRANCH  17  22
BRANCH  20  25
HETATM   25  N7  UNL     1      -3.557  73.805  31.664  1.00  0.00    -0.385 N 
ATOM     26  H72 UNL     1      -4.113  72.981  31.436  1.00  0.00     0.157 HD
ATOM     27  H71 UNL     1      -2.902  73.739  32.443  1.00  0.00     0.157 HD
ENDBRANCH  20  25
ENDBRANCH  13  14
ENDBRANCH  12  13
ENDBRANCH   9  12
ENDBRANCH   6   9
ENDBRANCH   5   6
ENDBRANCH   4   5
ENDBRANCH   3   4
BRANCH   3  28
HETATM   28  C11 UNL     1       0.186  78.138  36.517  1.00  0.00     0.161 C 
BRANCH  28  29
HETATM   29  C12 UNL     1      -1.198  78.336  37.024  1.00  0.00     0.120 C 
HETATM   30  C13 UNL     1      -1.491  79.746  37.473  1.00  0.00     0.149 C 
HETATM   31  N8  UNL     1      -2.623  79.529  38.387  1.00  0.00    -0.363 N 
HETATM   32  C14 UNL     1      -2.629  78.289  38.792  1.00  0.00     0.184 C 
ATOM     33  H8  UNL     1      -3.301  80.240  38.663  1.00  0.00     0.162 HD
HETATM   34  N9  UNL     1      -3.583  77.748  39.679  1.00  0.00    -0.064 NA
HETATM   35  N10 UNL     1      -1.540  77.593  38.205  1.00  0.00    -0.357 N 
ATOM     36  H10 UNL     1      -1.093  76.743  38.549  1.00  0.00     0.162 HD
ENDBRANCH  28  29
ENDBRANCH   3  28
TORSDOF 12
ENDMDL
