MODEL 1
REMARK VINA RESULT: -5.848043476      0.000      0.000
REMARK  14 active torsions:
REMARK  status: ('A' for Active; 'I' for Inactive)
REMARK    1  A    between atoms: C3_3  and  C4_4 
REMARK    2  A    between atoms: C4_4  and  N1_5 
REMARK    3  A    between atoms: C5_6  and  N2_7 
REMARK    4  A    between atoms: N2_7  and  C6_9 
REMARK    5  A    between atoms: C6_9  and  C7_10 
REMARK    6  A    between atoms: C7_10  and  C8_11 
REMARK    7  A    between atoms: C8_11  and  N3_12 
REMARK    8  A    between atoms: N3_12  and  C9_15 
REMARK    9  A    between atoms: C9_15  and  C10_16 
REMARK   10  A    between atoms: C10_16  and  N4_17 
REMARK   11  A    between atoms: C12_27  and  C13_28 
REMARK   12  A    between atoms: C13_28  and  O1_29 
REMARK   13  A    between atoms: C14_31  and  O2_32 
REMARK   14  A    between atoms: C15_34  and  O3_35 
ROOT
HETATM    1  N1  UNL     1      -3.171  77.418  35.296  1.00  0.00    -0.204 N 
HETATM    2  C5  UNL     1      -2.546  76.161  35.465  1.00  0.00     0.674 C 
HETATM    3  N5  UNL     1      -2.324  75.600  34.313  1.00  0.00    -0.195 N 
ATOM      4  H5  UNL     1      -1.882  74.688  34.198  1.00  0.00     0.180 HD
HETATM    5  C11 UNL     1      -2.779  76.423  33.214  1.00  0.00     0.326 C 
HETATM    6  N6  UNL     1      -3.330  75.591  32.224  1.00  0.00    -0.043 N 
ATOM      7  H61 UNL     1      -3.527  74.666  32.605  1.00  0.00     0.280 HD
ATOM      8  H62 UNL     1      -2.621  75.346  31.531  1.00  0.00     0.280 HD
HETATM    9  C12 UNL     1      -4.480  76.120  31.588  1.00  0.00     0.242 C 
HETATM   10  C14 UNL     1      -5.552  76.312  32.610  1.00  0.00     0.181 C 
HETATM   11  C15 UNL     1      -5.126  77.123  33.801  1.00  0.00     0.176 C 
HETATM   12  C16 UNL     1      -3.681  77.388  33.914  1.00  0.00     0.184 C 
ENDROOT
BRANCH   2  13
HETATM   13  N2  UNL     1      -2.154  75.490  36.653  1.00  0.00    -0.226 N 
ATOM     14  H2  UNL     1      -2.786  74.814  37.080  1.00  0.00     0.177 HD
BRANCH  13  15
HETATM   15  C6  UNL     1      -0.879  75.751  37.260  1.00  0.00     0.139 C 
BRANCH  15  16
HETATM   16  C7  UNL     1       0.130  76.374  36.309  1.00  0.00     0.048 C 
BRANCH  16  17
HETATM   17  C8  UNL     1       0.244  77.831  36.708  1.00  0.00     0.234 C 
BRANCH  17  18
HETATM   18  N3  UNL     1       0.244  78.666  35.555  1.00  0.00    -0.073 N 
ATOM     19  H32 UNL     1      -0.643  79.163  35.472  1.00  0.00     0.277 HD
ATOM     20  H31 UNL     1       0.874  79.458  35.686  1.00  0.00     0.277 HD
BRANCH  18  21
HETATM   21  C9  UNL     1       0.550  77.976  34.335  1.00  0.00     0.259 C 
BRANCH  21  22
HETATM   22  C10 UNL     1       1.846  78.497  33.758  1.00  0.00     0.257 C 
BRANCH  22  23
HETATM   23  N4  UNL     1       1.665  79.881  33.386  1.00  0.00    -0.078 N 
ATOM     24  H43 UNL     1       2.030  80.524  34.089  1.00  0.00     0.274 HD
ATOM     25  H42 UNL     1       2.270  80.159  32.614  1.00  0.00     0.274 HD
ATOM     26  H41 UNL     1       0.679  80.041  33.186  1.00  0.00     0.274 HD
ENDBRANCH  22  23
ENDBRANCH  21  22
ENDBRANCH  18  21
ENDBRANCH  17  18
ENDBRANCH  16  17
ENDBRANCH  15  16
ENDBRANCH  13  15
ENDBRANCH   2  13
BRANCH   1  27
HETATM   27  C4  UNL     1      -3.266  78.467  36.273  1.00  0.00     0.169 C 
BRANCH  27  28
HETATM   28  C3  UNL     1      -4.190  78.250  37.379  1.00  0.00    -0.011 C 
HETATM   29  C2  UNL     1      -3.839  78.216  38.655  1.00  0.00    -0.033 C 
HETATM   30  C1  UNL     1      -2.474  78.388  39.193  1.00  0.00     0.036 C 
ENDBRANCH  27  28
ENDBRANCH   1  27
BRANCH  11  31
HETATM   31  O3  UNL     1      -5.689  76.497  34.916  1.00  0.00    -0.391 OA
ATOM     32  H3  UNL     1      -6.595  76.777  34.944  1.00  0.00     0.210 HD
ENDBRANCH  11  31
BRANCH  10  33
HETATM   33  O2  UNL     1      -6.671  76.837  31.969  1.00  0.00    -0.391 OA
ATOM     34  H2  UNL     1      -6.943  77.616  32.441  1.00  0.00     0.210 HD
ENDBRANCH  10  33
BRANCH   9  35
HETATM   35  C13 UNL     1      -4.235  77.291  30.688  1.00  0.00     0.199 C 
BRANCH  35  36
HETATM   36  O1  UNL     1      -5.186  77.280  29.641  1.00  0.00    -0.399 OA
ATOM     37  H1  UNL     1      -4.789  77.635  28.855  1.00  0.00     0.209 HD
ENDBRANCH  35  36
ENDBRANCH   9  35
TORSDOF 14
ENDMDL
MODEL 2
REMARK VINA RESULT: -5.828086561      3.215      6.405
REMARK  14 active torsions:
REMARK  status: ('A' for Active; 'I' for Inactive)
REMARK    1  A    between atoms: C3_3  and  C4_4 
REMARK    2  A    between atoms: C4_4  and  N1_5 
REMARK    3  A    between atoms: C5_6  and  N2_7 
REMARK    4  A    between atoms: N2_7  and  C6_9 
REMARK    5  A    between atoms: C6_9  and  C7_10 
REMARK    6  A    between atoms: C7_10  and  C8_11 
REMARK    7  A    between atoms: C8_11  and  N3_12 
REMARK    8  A    between atoms: N3_12  and  C9_15 
REMARK    9  A    between atoms: C9_15  and  C10_16 
REMARK   10  A    between atoms: C10_16  and  N4_17 
REMARK   11  A    between atoms: C12_27  and  C13_28 
REMARK   12  A    between atoms: C13_28  and  O1_29 
REMARK   13  A    between atoms: C14_31  and  O2_32 
REMARK   14  A    between atoms: C15_34  and  O3_35 
ROOT
HETATM    1  N1  UNL     1      -1.257  77.416  35.511  1.00  0.00    -0.204 N 
HETATM    2  C5  UNL     1      -2.316  76.611  35.035  1.00  0.00     0.674 C 
HETATM    3  N5  UNL     1      -3.464  77.091  35.415  1.00  0.00    -0.195 N 
ATOM      4  H5  UNL     1      -4.363  76.669  35.184  1.00  0.00     0.180 HD
HETATM    5  C11 UNL     1      -3.313  78.293  36.205  1.00  0.00     0.326 C 
HETATM    6  N6  UNL     1      -4.271  78.282  37.233  1.00  0.00    -0.043 N 
ATOM      7  H61 UNL     1      -4.654  77.344  37.353  1.00  0.00     0.280 HD
ATOM      8  H62 UNL     1      -5.113  78.778  36.939  1.00  0.00     0.280 HD
HETATM    9  C12 UNL     1      -3.806  78.787  38.472  1.00  0.00     0.242 C 
HETATM   10  C14 UNL     1      -2.677  77.934  38.949  1.00  0.00     0.181 C 
HETATM   11  C15 UNL     1      -1.572  77.761  37.946  1.00  0.00     0.176 C 
HETATM   12  C16 UNL     1      -1.867  78.227  36.580  1.00  0.00     0.184 C 
ENDROOT
BRANCH   2  13
HETATM   13  N2  UNL     1      -2.283  75.433  34.243  1.00  0.00    -0.226 N 
ATOM     14  H2  UNL     1      -2.245  74.522  34.698  1.00  0.00     0.177 HD
BRANCH  13  15
HETATM   15  C6  UNL     1      -2.301  75.508  32.809  1.00  0.00     0.139 C 
BRANCH  15  16
HETATM   16  C7  UNL     1      -3.056  74.366  32.151  1.00  0.00     0.048 C 
BRANCH  16  17
HETATM   17  C8  UNL     1      -4.045  75.006  31.198  1.00  0.00     0.234 C 
BRANCH  17  18
HETATM   18  N3  UNL     1      -3.492  75.095  29.889  1.00  0.00    -0.073 N 
ATOM     19  H32 UNL     1      -2.476  75.014  29.924  1.00  0.00     0.277 HD
ATOM     20  H31 UNL     1      -3.713  74.258  29.350  1.00  0.00     0.277 HD
BRANCH  18  21
HETATM   21  C9  UNL     1      -3.879  76.274  29.171  1.00  0.00     0.259 C 
BRANCH  21  22
HETATM   22  C10 UNL     1      -3.127  76.353  27.863  1.00  0.00     0.257 C 
BRANCH  22  23
HETATM   23  N4  UNL     1      -2.335  75.155  27.709  1.00  0.00    -0.078 N 
ATOM     24  H43 UNL     1      -2.355  74.565  28.541  1.00  0.00     0.274 HD
ATOM     25  H42 UNL     1      -2.753  74.493  27.056  1.00  0.00     0.274 HD
ATOM     26  H41 UNL     1      -1.388  75.420  27.441  1.00  0.00     0.274 HD
ENDBRANCH  22  23
ENDBRANCH  21  22
ENDBRANCH  18  21
ENDBRANCH  17  18
ENDBRANCH  16  17
ENDBRANCH  15  16
ENDBRANCH  13  15
ENDBRANCH   2  13
BRANCH   1  27
HETATM   27  C4  UNL     1       0.099  77.418  35.037  1.00  0.00     0.169 C 
BRANCH  27  28
HETATM   28  C3  UNL     1       0.694  78.718  34.754  1.00  0.00    -0.011 C 
HETATM   29  C2  UNL     1       1.724  78.913  33.947  1.00  0.00    -0.033 C 
HETATM   30  C1  UNL     1       2.454  77.875  33.192  1.00  0.00     0.036 C 
ENDBRANCH  27  28
ENDBRANCH   1  27
BRANCH  11  31
HETATM   31  O3  UNL     1      -1.182  76.422  38.029  1.00  0.00    -0.391 OA
ATOM     32  H3  UNL     1      -0.665  76.251  37.252  1.00  0.00     0.210 HD
ENDBRANCH  11  31
BRANCH  10  33
HETATM   33  O2  UNL     1      -2.230  78.450  40.164  1.00  0.00    -0.391 OA
ATOM     34  H2  UNL     1      -2.991  78.655  40.695  1.00  0.00     0.210 HD
ENDBRANCH  10  33
BRANCH   9  35
HETATM   35  C13 UNL     1      -3.556  80.263  38.509  1.00  0.00     0.199 C 
BRANCH  35  36
HETATM   36  O1  UNL     1      -3.981  80.776  39.757  1.00  0.00    -0.399 OA
ATOM     37  H1  UNL     1      -4.345  81.644  39.630  1.00  0.00     0.209 HD
ENDBRANCH  35  36
ENDBRANCH   9  35
TORSDOF 14
ENDMDL
MODEL 3
REMARK VINA RESULT: -5.789934624      2.900      6.263
REMARK  14 active torsions:
REMARK  status: ('A' for Active; 'I' for Inactive)
REMARK    1  A    between atoms: C3_3  and  C4_4 
REMARK    2  A    between atoms: C4_4  and  N1_5 
REMARK    3  A    between atoms: C5_6  and  N2_7 
REMARK    4  A    between atoms: N2_7  and  C6_9 
REMARK    5  A    between atoms: C6_9  and  C7_10 
REMARK    6  A    between atoms: C7_10  and  C8_11 
REMARK    7  A    between atoms: C8_11  and  N3_12 
REMARK    8  A    between atoms: N3_12  and  C9_15 
REMARK    9  A    between atoms: C9_15  and  C10_16 
REMARK   10  A    between atoms: C10_16  and  N4_17 
REMARK   11  A    between atoms: C12_27  and  C13_28 
REMARK   12  A    between atoms: C13_28  and  O1_29 
REMARK   13  A    between atoms: C14_31  and  O2_32 
REMARK   14  A    between atoms: C15_34  and  O3_35 
ROOT
HETATM    1  N1  UNL     1      -3.085  77.099  35.071  1.00  0.00    -0.204 N 
HETATM    2  C5  UNL     1      -4.437  77.103  34.661  1.00  0.00     0.674 C 
HETATM    3  N5  UNL     1      -5.078  78.095  35.205  1.00  0.00    -0.195 N 
ATOM      4  H5  UNL     1      -6.067  78.290  35.048  1.00  0.00     0.180 HD
HETATM    5  C11 UNL     1      -4.223  78.890  36.059  1.00  0.00     0.326 C 
HETATM    6  N6  UNL     1      -4.958  79.293  37.187  1.00  0.00    -0.043 N 
ATOM      7  H61 UNL     1      -5.803  78.731  37.280  1.00  0.00     0.280 HD
ATOM      8  H62 UNL     1      -5.375  80.211  37.029  1.00  0.00     0.280 HD
HETATM    9  C12 UNL     1      -4.223  79.285  38.398  1.00  0.00     0.242 C 
HETATM   10  C14 UNL     1      -3.767  77.891  38.678  1.00  0.00     0.181 C 
HETATM   11  C15 UNL     1      -3.017  77.251  37.544  1.00  0.00     0.176 C 
HETATM   12  C16 UNL     1      -3.060  77.971  36.259  1.00  0.00     0.184 C 
ENDROOT
BRANCH   2  13
HETATM   13  N2  UNL     1      -5.128  76.225  33.786  1.00  0.00    -0.226 N 
ATOM     14  H2  UNL     1      -5.377  75.289  34.106  1.00  0.00     0.177 HD
BRANCH  13  15
HETATM   15  C6  UNL     1      -5.482  76.636  32.457  1.00  0.00     0.139 C 
BRANCH  15  16
HETATM   16  C7  UNL     1      -4.294  76.721  31.512  1.00  0.00     0.048 C 
BRANCH  16  17
HETATM   17  C8  UNL     1      -3.798  75.301  31.327  1.00  0.00     0.234 C 
BRANCH  17  18
HETATM   18  N3  UNL     1      -3.425  75.075  29.972  1.00  0.00    -0.073 N 
ATOM     19  H32 UNL     1      -2.411  75.004  29.887  1.00  0.00     0.277 HD
ATOM     20  H31 UNL     1      -3.689  74.133  29.681  1.00  0.00     0.277 HD
BRANCH  18  21
HETATM   21  C9  UNL     1      -3.940  76.049  29.055  1.00  0.00     0.259 C 
BRANCH  21  22
HETATM   22  C10 UNL     1      -3.029  76.161  27.855  1.00  0.00     0.257 C 
BRANCH  22  23
HETATM   23  N4  UNL     1      -2.285  74.931  27.719  1.00  0.00    -0.078 N 
ATOM     24  H43 UNL     1      -2.860  74.165  27.369  1.00  0.00     0.274 HD
ATOM     25  H42 UNL     1      -1.613  74.965  26.953  1.00  0.00     0.274 HD
ATOM     26  H41 UNL     1      -1.846  74.713  28.613  1.00  0.00     0.274 HD
ENDBRANCH  22  23
ENDBRANCH  21  22
ENDBRANCH  18  21
ENDBRANCH  17  18
ENDBRANCH  16  17
ENDBRANCH  15  16
ENDBRANCH  13  15
ENDBRANCH   2  13
BRANCH   1  27
HETATM   27  C4  UNL     1      -2.001  76.393  34.445  1.00  0.00     0.169 C 
BRANCH  27  28
HETATM   28  C3  UNL     1      -1.141  77.165  33.556  1.00  0.00    -0.011 C 
HETATM   29  C2  UNL     1      -0.023  77.767  33.930  1.00  0.00    -0.033 C 
HETATM   30  C1  UNL     1       0.558  77.772  35.287  1.00  0.00     0.036 C 
ENDBRANCH  27  28
ENDBRANCH   1  27
BRANCH  11  31
HETATM   31  O3  UNL     1      -3.464  75.929  37.483  1.00  0.00    -0.391 OA
ATOM     32  H3  UNL     1      -3.373  75.581  38.362  1.00  0.00     0.210 HD
ENDBRANCH  11  31
BRANCH  10  33
HETATM   33  O2  UNL     1      -3.042  77.905  39.868  1.00  0.00    -0.391 OA
ATOM     34  H2  UNL     1      -3.221  77.095  40.331  1.00  0.00     0.210 HD
ENDBRANCH  10  33
BRANCH   9  35
HETATM   35  C13 UNL     1      -3.168  80.341  38.515  1.00  0.00     0.199 C 
BRANCH  35  36
HETATM   36  O1  UNL     1      -3.136  80.823  39.844  1.00  0.00    -0.399 OA
ATOM     37  H1  UNL     1      -3.848  81.440  39.970  1.00  0.00     0.209 HD
ENDBRANCH  35  36
ENDBRANCH   9  35
TORSDOF 14
ENDMDL
MODEL 4
REMARK VINA RESULT: -5.655152223      2.882      6.182
REMARK  14 active torsions:
REMARK  status: ('A' for Active; 'I' for Inactive)
REMARK    1  A    between atoms: C3_3  and  C4_4 
REMARK    2  A    between atoms: C4_4  and  N1_5 
REMARK    3  A    between atoms: C5_6  and  N2_7 
REMARK    4  A    between atoms: N2_7  and  C6_9 
REMARK    5  A    between atoms: C6_9  and  C7_10 
REMARK    6  A    between atoms: C7_10  and  C8_11 
REMARK    7  A    between atoms: C8_11  and  N3_12 
REMARK    8  A    between atoms: N3_12  and  C9_15 
REMARK    9  A    between atoms: C9_15  and  C10_16 
REMARK   10  A    between atoms: C10_16  and  N4_17 
REMARK   11  A    between atoms: C12_27  and  C13_28 
REMARK   12  A    between atoms: C13_28  and  O1_29 
REMARK   13  A    between atoms: C14_31  and  O2_32 
REMARK   14  A    between atoms: C15_34  and  O3_35 
ROOT
HETATM    1  N1  UNL     1      -2.092  76.990  33.841  1.00  0.00    -0.204 N 
HETATM    2  C5  UNL     1      -2.975  76.189  33.082  1.00  0.00     0.674 C 
HETATM    3  N5  UNL     1      -4.206  76.385  33.453  1.00  0.00    -0.195 N 
ATOM      4  H5  UNL     1      -5.009  75.911  33.040  1.00  0.00     0.180 HD
HETATM    5  C11 UNL     1      -4.301  77.356  34.522  1.00  0.00     0.326 C 
HETATM    6  N6  UNL     1      -5.303  76.945  35.418  1.00  0.00    -0.043 N 
ATOM      7  H61 UNL     1      -5.533  75.963  35.269  1.00  0.00     0.280 HD
ATOM      8  H62 UNL     1      -6.196  77.373  35.172  1.00  0.00     0.280 HD
HETATM    9  C12 UNL     1      -5.001  77.181  36.782  1.00  0.00     0.242 C 
HETATM   10  C14 UNL     1      -3.777  76.406  37.146  1.00  0.00     0.181 C 
HETATM   11  C15 UNL     1      -2.601  76.655  36.244  1.00  0.00     0.176 C 
HETATM   12  C16 UNL     1      -2.888  77.406  35.009  1.00  0.00     0.184 C 
ENDROOT
BRANCH   2  13
HETATM   13  N2  UNL     1      -2.702  75.269  32.036  1.00  0.00    -0.226 N 
ATOM     14  H2  UNL     1      -1.834  74.733  32.051  1.00  0.00     0.177 HD
BRANCH  13  15
HETATM   15  C6  UNL     1      -3.631  75.083  30.958  1.00  0.00     0.139 C 
BRANCH  15  16
HETATM   16  C7  UNL     1      -3.805  76.316  30.087  1.00  0.00     0.048 C 
BRANCH  16  17
HETATM   17  C8  UNL     1      -3.803  75.825  28.653  1.00  0.00     0.234 C 
BRANCH  17  18
HETATM   18  N3  UNL     1      -3.193  76.785  27.797  1.00  0.00    -0.073 N 
ATOM     19  H32 UNL     1      -2.419  77.249  28.274  1.00  0.00     0.277 HD
ATOM     20  H31 UNL     1      -2.680  76.321  27.047  1.00  0.00     0.277 HD
BRANCH  18  21
HETATM   21  C9  UNL     1      -4.106  77.751  27.260  1.00  0.00     0.259 C 
BRANCH  21  22
HETATM   22  C10 UNL     1      -3.505  78.406  26.038  1.00  0.00     0.257 C 
BRANCH  22  23
HETATM   23  N4  UNL     1      -2.107  78.052  25.960  1.00  0.00    -0.078 N 
ATOM     24  H43 UNL     1      -1.966  77.086  25.666  1.00  0.00     0.274 HD
ATOM     25  H42 UNL     1      -1.632  78.508  25.182  1.00  0.00     0.274 HD
ATOM     26  H41 UNL     1      -1.667  78.255  26.858  1.00  0.00     0.274 HD
ENDBRANCH  22  23
ENDBRANCH  21  22
ENDBRANCH  18  21
ENDBRANCH  17  18
ENDBRANCH  16  17
ENDBRANCH  15  16
ENDBRANCH  13  15
ENDBRANCH   2  13
BRANCH   1  27
HETATM   27  C4  UNL     1      -0.729  77.308  33.516  1.00  0.00     0.169 C 
BRANCH  27  28
HETATM   28  C3  UNL     1       0.046  77.998  34.540  1.00  0.00    -0.011 C 
HETATM   29  C2  UNL     1       1.335  78.280  34.442  1.00  0.00    -0.033 C 
HETATM   30  C1  UNL     1       2.219  77.961  33.303  1.00  0.00     0.036 C 
ENDBRANCH  27  28
ENDBRANCH   1  27
BRANCH  11  31
HETATM   31  O3  UNL     1      -2.002  75.410  36.038  1.00  0.00    -0.391 OA
ATOM     32  H3  UNL     1      -1.692  75.125  36.889  1.00  0.00     0.210 HD
ENDBRANCH  11  31
BRANCH  10  33
HETATM   33  O2  UNL     1      -3.492  76.655  38.487  1.00  0.00    -0.391 OA
ATOM     34  H2  UNL     1      -2.566  76.856  38.559  1.00  0.00     0.210 HD
ENDBRANCH  10  33
BRANCH   9  35
HETATM   35  C13 UNL     1      -4.998  78.618  37.199  1.00  0.00     0.199 C 
BRANCH  35  36
HETATM   36  O1  UNL     1      -5.559  78.728  38.493  1.00  0.00    -0.399 OA
ATOM     37  H1  UNL     1      -5.589  79.644  38.745  1.00  0.00     0.209 HD
ENDBRANCH  35  36
ENDBRANCH   9  35
TORSDOF 14
ENDMDL
MODEL 5
REMARK VINA RESULT: -5.599802926      2.964      5.788
REMARK  14 active torsions:
REMARK  status: ('A' for Active; 'I' for Inactive)
REMARK    1  A    between atoms: C3_3  and  C4_4 
REMARK    2  A    between atoms: C4_4  and  N1_5 
REMARK    3  A    between atoms: C5_6  and  N2_7 
REMARK    4  A    between atoms: N2_7  and  C6_9 
REMARK    5  A    between atoms: C6_9  and  C7_10 
REMARK    6  A    between atoms: C7_10  and  C8_11 
REMARK    7  A    between atoms: C8_11  and  N3_12 
REMARK    8  A    between atoms: N3_12  and  C9_15 
REMARK    9  A    between atoms: C9_15  and  C10_16 
REMARK   10  A    between atoms: C10_16  and  N4_17 
REMARK   11  A    between atoms: C12_27  and  C13_28 
REMARK   12  A    between atoms: C13_28  and  O1_29 
REMARK   13  A    between atoms: C14_31  and  O2_32 
REMARK   14  A    between atoms: C15_34  and  O3_35 
ROOT
HETATM    1  N1  UNL     1      -2.833  77.691  35.940  1.00  0.00    -0.204 N 
HETATM    2  C5  UNL     1      -3.264  77.023  34.771  1.00  0.00     0.674 C 
HETATM    3  N5  UNL     1      -4.563  76.993  34.712  1.00  0.00    -0.195 N 
ATOM      4  H5  UNL     1      -5.089  76.560  33.954  1.00  0.00     0.180 HD
HETATM    5  C11 UNL     1      -5.171  77.645  35.851  1.00  0.00     0.326 C 
HETATM    6  N6  UNL     1      -6.315  76.921  36.229  1.00  0.00    -0.043 N 
ATOM      7  H61 UNL     1      -6.301  75.991  35.812  1.00  0.00     0.280 HD
ATOM      8  H62 UNL     1      -7.144  77.304  35.775  1.00  0.00     0.280 HD
HETATM    9  C12 UNL     1      -6.514  76.832  37.629  1.00  0.00     0.242 C 
HETATM   10  C14 UNL     1      -5.352  76.119  38.239  1.00  0.00     0.181 C 
HETATM   11  C15 UNL     1      -4.016  76.707  37.883  1.00  0.00     0.176 C 
HETATM   12  C16 UNL     1      -4.024  77.713  36.807  1.00  0.00     0.184 C 
ENDROOT
BRANCH   2  13
HETATM   13  N2  UNL     1      -2.506  76.432  33.726  1.00  0.00    -0.226 N 
ATOM     14  H2  UNL     1      -2.224  75.455  33.800  1.00  0.00     0.177 HD
BRANCH  13  15
HETATM   15  C6  UNL     1      -2.133  77.191  32.566  1.00  0.00     0.139 C 
BRANCH  15  16
HETATM   16  C7  UNL     1      -3.136  77.094  31.429  1.00  0.00     0.048 C 
BRANCH  16  17
HETATM   17  C8  UNL     1      -3.553  75.639  31.355  1.00  0.00     0.234 C 
BRANCH  17  18
HETATM   18  N3  UNL     1      -3.507  75.173  30.011  1.00  0.00    -0.073 N 
ATOM     19  H32 UNL     1      -2.562  74.873  29.768  1.00  0.00     0.277 HD
ATOM     20  H31 UNL     1      -3.998  74.283  29.923  1.00  0.00     0.277 HD
BRANCH  18  21
HETATM   21  C9  UNL     1      -3.998  76.117  29.050  1.00  0.00     0.259 C 
BRANCH  21  22
HETATM   22  C10 UNL     1      -3.041  76.213  27.884  1.00  0.00     0.257 C 
BRANCH  22  23
HETATM   23  N4  UNL     1      -2.331  74.962  27.761  1.00  0.00    -0.078 N 
ATOM     24  H43 UNL     1      -2.901  74.161  28.036  1.00  0.00     0.274 HD
ATOM     25  H42 UNL     1      -2.174  74.696  26.789  1.00  0.00     0.274 HD
ATOM     26  H41 UNL     1      -1.463  75.023  28.292  1.00  0.00     0.274 HD
ENDBRANCH  22  23
ENDBRANCH  21  22
ENDBRANCH  18  21
ENDBRANCH  17  18
ENDBRANCH  16  17
ENDBRANCH  15  16
ENDBRANCH  13  15
ENDBRANCH   2  13
BRANCH   1  27
HETATM   27  C4  UNL     1      -1.521  78.218  36.192  1.00  0.00     0.169 C 
BRANCH  27  28
HETATM   28  C3  UNL     1      -0.426  77.257  36.245  1.00  0.00    -0.011 C 
HETATM   29  C2  UNL     1       0.665  77.320  35.499  1.00  0.00    -0.033 C 
HETATM   30  C1  UNL     1       0.980  78.353  34.492  1.00  0.00     0.036 C 
ENDBRANCH  27  28
ENDBRANCH   1  27
BRANCH  11  31
HETATM   31  O3  UNL     1      -3.166  75.622  37.655  1.00  0.00    -0.391 OA
ATOM     32  H3  UNL     1      -3.653  75.018  37.108  1.00  0.00     0.210 HD
ENDBRANCH  11  31
BRANCH  10  33
HETATM   33  O2  UNL     1      -5.563  76.046  39.614  1.00  0.00    -0.391 OA
ATOM     34  H2  UNL     1      -4.811  75.617  40.005  1.00  0.00     0.210 HD
ENDBRANCH  10  33
BRANCH   9  35
HETATM   35  C13 UNL     1      -6.909  78.109  38.304  1.00  0.00     0.199 C 
BRANCH  35  36
HETATM   36  O1  UNL     1      -7.956  77.847  39.218  1.00  0.00    -0.399 OA
ATOM     37  H1  UNL     1      -8.213  78.659  39.639  1.00  0.00     0.209 HD
ENDBRANCH  35  36
ENDBRANCH   9  35
TORSDOF 14
ENDMDL
