MODEL 1
REMARK VINA RESULT: -9.157375383      0.000      0.000
REMARK  6 active torsions:
REMARK  status: ('A' for Active; 'I' for Inactive)
REMARK    1  A    between atoms: C4_8  and  S1_9 
REMARK    2  A    between atoms: S1_9  and  C5_11 
REMARK    3  A    between atoms: C5_11  and  C6_12 
REMARK    4  A    between atoms: C6_12  and  C7_13 
REMARK    5  A    between atoms: C7_13  and  C8_14 
REMARK    6  A    between atoms: C12_20  and  C13_21 
ROOT
HETATM    1  C6  UNL     1       7.341  39.472  17.969  1.00  0.00     0.092 A 
HETATM    2  C9  UNL     1       6.162  40.352  18.234  1.00  0.00     0.081 A 
HETATM    3  C10 UNL     1       6.174  41.280  17.067  1.00  0.00    -0.020 A 
HETATM    4  C11 UNL     1       5.374  42.370  16.780  1.00  0.00     0.024 A 
HETATM    5  C12 UNL     1       5.515  43.141  15.636  1.00  0.00    -0.004 A 
HETATM    6  C20 UNL     1       6.539  42.743  14.767  1.00  0.00    -0.041 A 
HETATM    7  C21 UNL     1       6.769  43.494  13.534  1.00  0.00     0.050 C 
HETATM    8  C22 UNL     1       7.349  41.642  15.053  1.00  0.00    -0.021 A 
HETATM    9  C23 UNL     1       8.418  41.252  14.111  1.00  0.00     0.052 C 
HETATM   10  C24 UNL     1       7.168  40.922  16.189  1.00  0.00     0.082 A 
HETATM   11  O4  UNL     1       7.819  39.806  16.704  1.00  0.00    -0.337 OA
ENDROOT
BRANCH   1  12
HETATM   12  C5  UNL     1       8.447  39.790  18.982  1.00  0.00     0.155 C 
BRANCH  12  13
HETATM   13  S1  UNL     1       9.864  40.438  18.117  1.00  0.00     0.071 S 
HETATM   14  O1  UNL     1       9.843  42.114  18.121  1.00  0.00    -0.251 OA
BRANCH  13  15
HETATM   15  C4  UNL     1      11.318  39.905  18.918  1.00  0.00     0.123 A 
HETATM   16  C2  UNL     1      11.784  38.617  18.969  1.00  0.00     0.042 A 
HETATM   17  C1  UNL     1      11.162  37.422  18.361  1.00  0.00     0.071 C 
HETATM   18  N1  UNL     1      12.933  38.617  19.680  1.00  0.00    -0.354 N 
HETATM   19  C3  UNL     1      13.182  39.875  20.067  1.00  0.00     0.181 A 
ATOM     20  H1  UNL     1      13.509  37.801  19.887  1.00  0.00     0.166 HD
HETATM   21  N2  UNL     1      12.205  40.655  19.607  1.00  0.00    -0.344 N 
ATOM     22  H2  UNL     1      12.137  41.663  19.753  1.00  0.00     0.167 HD
ENDBRANCH  13  15
ENDBRANCH  12  13
ENDBRANCH   1  12
BRANCH   1  23
HETATM   23  C7  UNL     1       6.997  38.005  18.013  1.00  0.00     0.152 C 
BRANCH  23  24
HETATM   24  C8  UNL     1       5.998  37.665  19.049  1.00  0.00     0.175 C 
HETATM   25  O2  UNL     1       6.225  37.618  20.282  1.00  0.00    -0.648 OA
HETATM   26  O3  UNL     1       4.716  37.375  18.629  1.00  0.00    -0.648 OA
ENDBRANCH  23  24
ENDBRANCH   1  23
BRANCH   5  27
HETATM   27  C13 UNL     1       4.643  44.275  15.357  1.00  0.00     0.043 C 
HETATM   28  N3  UNL     1       3.632  44.231  14.581  1.00  0.00    -0.306 N 
HETATM   29  N4  UNL     1       2.949  45.409  14.460  1.00  0.00    -0.130 NA
ATOM     30  H3  UNL     1       3.354  43.382  14.088  1.00  0.00     0.182 HD
HETATM   31  C14 UNL     1       3.801  46.456  14.970  1.00  0.00     0.056 C 
HETATM   32  C15 UNL     1       4.550  47.000  13.758  1.00  0.00     0.036 C 
HETATM   33  C16 UNL     1       3.071  47.524  15.709  1.00  0.00     0.036 C 
HETATM   34  C17 UNL     1       4.744  45.657  15.870  1.00  0.00     0.020 C 
HETATM   35  C18 UNL     1       4.262  45.682  17.305  1.00  0.00     0.024 C 
HETATM   36  C19 UNL     1       6.084  46.302  15.718  1.00  0.00     0.024 C 
ENDBRANCH   5  27
TORSDOF 6
ENDMDL
MODEL 2
REMARK VINA RESULT: -8.954691993      2.856      8.982
REMARK  6 active torsions:
REMARK  status: ('A' for Active; 'I' for Inactive)
REMARK    1  A    between atoms: C4_8  and  S1_9 
REMARK    2  A    between atoms: S1_9  and  C5_11 
REMARK    3  A    between atoms: C5_11  and  C6_12 
REMARK    4  A    between atoms: C6_12  and  C7_13 
REMARK    5  A    between atoms: C7_13  and  C8_14 
REMARK    6  A    between atoms: C12_20  and  C13_21 
ROOT
HETATM    1  C6  UNL     1       5.881  43.084  16.011  1.00  0.00     0.092 A 
HETATM    2  C9  UNL     1       7.335  42.776  15.844  1.00  0.00     0.081 A 
HETATM    3  C10 UNL     1       7.523  41.586  16.722  1.00  0.00    -0.020 A 
HETATM    4  C11 UNL     1       8.667  40.883  17.047  1.00  0.00     0.024 A 
HETATM    5  C12 UNL     1       8.676  39.783  17.891  1.00  0.00    -0.004 A 
HETATM    6  C20 UNL     1       7.427  39.415  18.408  1.00  0.00    -0.041 A 
HETATM    7  C21 UNL     1       7.331  38.269  19.310  1.00  0.00     0.050 C 
HETATM    8  C22 UNL     1       6.268  40.122  18.083  1.00  0.00    -0.021 A 
HETATM    9  C23 UNL     1       4.969  39.704  18.648  1.00  0.00     0.052 C 
HETATM   10  C24 UNL     1       6.317  41.194  17.251  1.00  0.00     0.082 A 
HETATM   11  O4  UNL     1       5.334  42.054  16.774  1.00  0.00    -0.337 OA
ENDROOT
BRANCH   1  12
HETATM   12  C5  UNL     1       5.729  44.384  16.810  1.00  0.00     0.155 C 
BRANCH  12  13
HETATM   13  S1  UNL     1       4.201  45.177  16.349  1.00  0.00     0.071 S 
HETATM   14  O1  UNL     1       3.306  45.571  17.711  1.00  0.00    -0.251 OA
BRANCH  13  15
HETATM   15  C4  UNL     1       4.557  46.648  15.483  1.00  0.00     0.123 A 
HETATM   16  C2  UNL     1       3.646  47.444  14.838  1.00  0.00     0.042 A 
HETATM   17  C1  UNL     1       2.187  47.228  14.744  1.00  0.00     0.071 C 
HETATM   18  N1  UNL     1       4.314  48.483  14.291  1.00  0.00    -0.354 N 
HETATM   19  C3  UNL     1       5.613  48.344  14.585  1.00  0.00     0.181 A 
ATOM     20  H1  UNL     1       3.900  49.242  13.748  1.00  0.00     0.166 HD
HETATM   21  N2  UNL     1       5.762  47.233  15.306  1.00  0.00    -0.344 N 
ATOM     22  H2  UNL     1       6.648  46.879  15.668  1.00  0.00     0.167 HD
ENDBRANCH  13  15
ENDBRANCH  12  13
ENDBRANCH   1  12
BRANCH   1  23
HETATM   23  C7  UNL     1       5.151  43.189  14.697  1.00  0.00     0.152 C 
BRANCH  23  24
HETATM   24  C8  UNL     1       5.998  43.678  13.588  1.00  0.00     0.175 C 
HETATM   25  O2  UNL     1       6.461  44.840  13.494  1.00  0.00    -0.648 OA
HETATM   26  O3  UNL     1       6.304  42.789  12.578  1.00  0.00    -0.648 OA
ENDBRANCH  23  24
ENDBRANCH   1  23
BRANCH   5  27
HETATM   27  C13 UNL     1       9.900  39.055  18.199  1.00  0.00     0.043 C 
HETATM   28  N3  UNL     1      10.305  38.027  17.562  1.00  0.00    -0.306 N 
HETATM   29  N4  UNL     1      11.481  37.497  18.015  1.00  0.00    -0.130 NA
ATOM     30  H3  UNL     1       9.791  37.630  16.775  1.00  0.00     0.182 HD
HETATM   31  C14 UNL     1      11.728  38.051  19.325  1.00  0.00     0.056 C 
HETATM   32  C15 UNL     1      11.132  37.052  20.311  1.00  0.00     0.036 C 
HETATM   33  C16 UNL     1      13.165  38.330  19.603  1.00  0.00     0.036 C 
HETATM   34  C17 UNL     1      10.881  39.323  19.272  1.00  0.00     0.020 C 
HETATM   35  C18 UNL     1      11.727  40.513  18.874  1.00  0.00     0.024 C 
HETATM   36  C19 UNL     1      10.306  39.478  20.642  1.00  0.00     0.024 C 
ENDBRANCH   5  27
TORSDOF 6
ENDMDL
MODEL 3
REMARK VINA RESULT: -8.748185695      4.768      7.711
REMARK  6 active torsions:
REMARK  status: ('A' for Active; 'I' for Inactive)
REMARK    1  A    between atoms: C4_8  and  S1_9 
REMARK    2  A    between atoms: S1_9  and  C5_11 
REMARK    3  A    between atoms: C5_11  and  C6_12 
REMARK    4  A    between atoms: C6_12  and  C7_13 
REMARK    5  A    between atoms: C7_13  and  C8_14 
REMARK    6  A    between atoms: C12_20  and  C13_21 
ROOT
HETATM    1  C6  UNL     1       5.120  46.429  14.794  1.00  0.00     0.092 A 
HETATM    2  C9  UNL     1       3.845  45.819  14.307  1.00  0.00     0.081 A 
HETATM    3  C10 UNL     1       3.241  45.274  15.556  1.00  0.00    -0.020 A 
HETATM    4  C11 UNL     1       2.092  44.531  15.747  1.00  0.00     0.024 A 
HETATM    5  C12 UNL     1       1.660  44.094  16.990  1.00  0.00    -0.004 A 
HETATM    6  C20 UNL     1       2.477  44.458  18.069  1.00  0.00    -0.041 A 
HETATM    7  C21 UNL     1       2.108  44.044  19.421  1.00  0.00     0.050 C 
HETATM    8  C22 UNL     1       3.638  45.210  17.882  1.00  0.00    -0.021 A 
HETATM    9  C23 UNL     1       4.472  45.575  19.044  1.00  0.00     0.052 C 
HETATM   10  C24 UNL     1       4.014  45.611  16.641  1.00  0.00     0.082 A 
HETATM   11  O4  UNL     1       5.100  46.352  16.185  1.00  0.00    -0.337 OA
ENDROOT
BRANCH   1  12
HETATM   12  C5  UNL     1       6.303  45.588  14.300  1.00  0.00     0.155 C 
BRANCH  12  13
HETATM   13  S1  UNL     1       5.693  44.050  13.639  1.00  0.00     0.071 S 
HETATM   14  O1  UNL     1       5.700  44.083  11.963  1.00  0.00    -0.251 OA
BRANCH  13  15
HETATM   15  C4  UNL     1       6.727  42.750  14.167  1.00  0.00     0.123 A 
HETATM   16  C2  UNL     1       6.735  42.181  15.414  1.00  0.00     0.042 A 
HETATM   17  C1  UNL     1       5.876  42.545  16.561  1.00  0.00     0.071 C 
HETATM   18  N1  UNL     1       7.675  41.211  15.425  1.00  0.00    -0.354 N 
HETATM   19  C3  UNL     1       8.245  41.171  14.213  1.00  0.00     0.181 A 
ATOM     20  H1  UNL     1       7.909  40.613  16.218  1.00  0.00     0.166 HD
HETATM   21  N2  UNL     1       7.673  42.102  13.451  1.00  0.00    -0.344 N 
ATOM     22  H2  UNL     1       7.911  42.296  12.478  1.00  0.00     0.167 HD
ENDBRANCH  13  15
ENDBRANCH  12  13
ENDBRANCH   1  12
BRANCH   1  23
HETATM   23  C7  UNL     1       5.283  47.864  14.365  1.00  0.00     0.152 C 
BRANCH  23  24
HETATM   24  C8  UNL     1       4.057  48.673  14.535  1.00  0.00     0.175 C 
HETATM   25  O2  UNL     1       3.535  48.969  15.636  1.00  0.00    -0.648 OA
HETATM   26  O3  UNL     1       3.436  49.139  13.394  1.00  0.00    -0.648 OA
ENDBRANCH  23  24
ENDBRANCH   1  23
BRANCH   5  27
HETATM   27  C13 UNL     1       0.434  43.325  17.156  1.00  0.00     0.043 C 
HETATM   28  N3  UNL     1      -0.719  43.839  17.333  1.00  0.00    -0.306 N 
HETATM   29  N4  UNL     1      -1.737  42.936  17.465  1.00  0.00    -0.130 NA
ATOM     30  H3  UNL     1      -0.871  44.847  17.373  1.00  0.00     0.182 HD
HETATM   31  C14 UNL     1      -1.141  41.649  17.731  1.00  0.00     0.056 C 
HETATM   32  C15 UNL     1      -1.101  41.522  19.250  1.00  0.00     0.036 C 
HETATM   33  C16 UNL     1      -1.851  40.509  17.086  1.00  0.00     0.036 C 
HETATM   34  C17 UNL     1       0.268  41.856  17.173  1.00  0.00     0.020 C 
HETATM   35  C18 UNL     1       0.363  41.338  15.753  1.00  0.00     0.024 C 
HETATM   36  C19 UNL     1       1.178  41.118  18.101  1.00  0.00     0.024 C 
ENDBRANCH   5  27
TORSDOF 6
ENDMDL
MODEL 4
REMARK VINA RESULT: -8.604206713      1.293      1.587
REMARK  6 active torsions:
REMARK  status: ('A' for Active; 'I' for Inactive)
REMARK    1  A    between atoms: C4_8  and  S1_9 
REMARK    2  A    between atoms: S1_9  and  C5_11 
REMARK    3  A    between atoms: C5_11  and  C6_12 
REMARK    4  A    between atoms: C6_12  and  C7_13 
REMARK    5  A    between atoms: C7_13  and  C8_14 
REMARK    6  A    between atoms: C12_20  and  C13_21 
ROOT
HETATM    1  C6  UNL     1       6.845  39.126  18.436  1.00  0.00     0.092 A 
HETATM    2  C9  UNL     1       5.629  39.991  18.518  1.00  0.00     0.081 A 
HETATM    3  C10 UNL     1       5.837  40.958  17.402  1.00  0.00    -0.020 A 
HETATM    4  C11 UNL     1       5.089  42.054  17.014  1.00  0.00     0.024 A 
HETATM    5  C12 UNL     1       5.421  42.864  15.938  1.00  0.00    -0.004 A 
HETATM    6  C20 UNL     1       6.586  42.500  15.251  1.00  0.00    -0.041 A 
HETATM    7  C21 UNL     1       7.022  43.293  14.103  1.00  0.00     0.050 C 
HETATM    8  C22 UNL     1       7.344  41.393  15.639  1.00  0.00    -0.021 A 
HETATM    9  C23 UNL     1       8.566  41.040  14.889  1.00  0.00     0.052 C 
HETATM   10  C24 UNL     1       6.973  40.634  16.701  1.00  0.00     0.082 A 
HETATM   11  O4  UNL     1       7.536  39.504  17.286  1.00  0.00    -0.337 OA
ENDROOT
BRANCH   1  12
HETATM   12  C5  UNL     1       7.753  39.413  19.638  1.00  0.00     0.155 C 
BRANCH  12  13
HETATM   13  S1  UNL     1       9.439  39.039  19.200  1.00  0.00     0.071 S 
HETATM   14  O1  UNL     1       9.494  38.083  17.824  1.00  0.00    -0.251 OA
BRANCH  13  15
HETATM   15  C4  UNL     1      10.288  40.525  18.869  1.00  0.00     0.123 A 
HETATM   16  C2  UNL     1      11.625  40.752  19.072  1.00  0.00     0.042 A 
HETATM   17  C1  UNL     1      12.617  39.795  19.607  1.00  0.00     0.071 C 
HETATM   18  N1  UNL     1      11.895  42.021  18.695  1.00  0.00    -0.354 N 
HETATM   19  C3  UNL     1      10.756  42.578  18.266  1.00  0.00     0.181 A 
ATOM     20  H1  UNL     1      12.808  42.475  18.732  1.00  0.00     0.166 HD
HETATM   21  N2  UNL     1       9.783  41.675  18.371  1.00  0.00    -0.344 N 
ATOM     22  H2  UNL     1       8.806  41.827  18.115  1.00  0.00     0.167 HD
ENDBRANCH  13  15
ENDBRANCH  12  13
ENDBRANCH   1  12
BRANCH   1  23
HETATM   23  C7  UNL     1       6.514  37.657  18.371  1.00  0.00     0.152 C 
BRANCH  23  24
HETATM   24  C8  UNL     1       5.287  37.296  19.114  1.00  0.00     0.175 C 
HETATM   25  O2  UNL     1       5.213  37.150  20.357  1.00  0.00    -0.648 OA
HETATM   26  O3  UNL     1       4.132  37.104  18.383  1.00  0.00    -0.648 OA
ENDBRANCH  23  24
ENDBRANCH   1  23
BRANCH   5  27
HETATM   27  C13 UNL     1       4.601  44.003  15.548  1.00  0.00     0.043 C 
HETATM   28  N3  UNL     1       3.690  43.961  14.656  1.00  0.00    -0.306 N 
HETATM   29  N4  UNL     1       3.038  45.144  14.444  1.00  0.00    -0.130 NA
ATOM     30  H3  UNL     1       3.465  43.110  14.140  1.00  0.00     0.182 HD
HETATM   31  C14 UNL     1       3.833  46.188  15.045  1.00  0.00     0.056 C 
HETATM   32  C15 UNL     1       4.728  46.715  13.928  1.00  0.00     0.036 C 
HETATM   33  C16 UNL     1       3.029  47.269  15.682  1.00  0.00     0.036 C 
HETATM   34  C17 UNL     1       4.652  45.389  16.058  1.00  0.00     0.020 C 
HETATM   35  C18 UNL     1       4.002  45.431  17.425  1.00  0.00     0.024 C 
HETATM   36  C19 UNL     1       6.007  46.020  16.063  1.00  0.00     0.024 C 
ENDBRANCH   5  27
TORSDOF 6
ENDMDL
MODEL 5
REMARK VINA RESULT: -8.543656328      4.569      8.838
REMARK  6 active torsions:
REMARK  status: ('A' for Active; 'I' for Inactive)
REMARK    1  A    between atoms: C4_8  and  S1_9 
REMARK    2  A    between atoms: S1_9  and  C5_11 
REMARK    3  A    between atoms: C5_11  and  C6_12 
REMARK    4  A    between atoms: C6_12  and  C7_13 
REMARK    5  A    between atoms: C7_13  and  C8_14 
REMARK    6  A    between atoms: C12_20  and  C13_21 
ROOT
HETATM    1  C6  UNL     1       5.514  44.317  15.762  1.00  0.00     0.092 A 
HETATM    2  C9  UNL     1       6.201  43.088  16.265  1.00  0.00     0.081 A 
HETATM    3  C10 UNL     1       5.061  42.206  16.647  1.00  0.00    -0.020 A 
HETATM    4  C11 UNL     1       5.052  40.961  17.247  1.00  0.00     0.024 A 
HETATM    5  C12 UNL     1       3.891  40.262  17.542  1.00  0.00    -0.004 A 
HETATM    6  C20 UNL     1       2.698  40.906  17.188  1.00  0.00    -0.041 A 
HETATM    7  C21 UNL     1       1.420  40.251  17.459  1.00  0.00     0.050 C 
HETATM    8  C22 UNL     1       2.702  42.164  16.582  1.00  0.00    -0.021 A 
HETATM    9  C23 UNL     1       1.424  42.810  16.224  1.00  0.00     0.052 C 
HETATM   10  C24 UNL     1       3.869  42.804  16.317  1.00  0.00     0.082 A 
HETATM   11  O4  UNL     1       4.149  44.036  15.733  1.00  0.00    -0.337 OA
ENDROOT
BRANCH   1  12
HETATM   12  C5  UNL     1       5.731  45.461  16.759  1.00  0.00     0.155 C 
BRANCH  12  13
HETATM   13  S1  UNL     1       4.171  46.259  17.081  1.00  0.00     0.071 S 
HETATM   14  O1  UNL     1       4.199  47.035  18.567  1.00  0.00    -0.251 OA
BRANCH  13  15
HETATM   15  C4  UNL     1       3.871  47.452  15.846  1.00  0.00     0.123 A 
HETATM   16  C2  UNL     1       2.801  47.474  14.989  1.00  0.00     0.042 A 
HETATM   17  C1  UNL     1       1.688  46.502  14.932  1.00  0.00     0.071 C 
HETATM   18  N1  UNL     1       2.931  48.552  14.186  1.00  0.00    -0.354 N 
HETATM   19  C3  UNL     1       4.056  49.193  14.530  1.00  0.00     0.181 A 
ATOM     20  H1  UNL     1       2.285  48.829  13.446  1.00  0.00     0.166 HD
HETATM   21  N2  UNL     1       4.625  48.528  15.534  1.00  0.00    -0.344 N 
ATOM     22  H2  UNL     1       5.497  48.790  15.995  1.00  0.00     0.167 HD
ENDBRANCH  13  15
ENDBRANCH  12  13
ENDBRANCH   1  12
BRANCH   1  23
HETATM   23  C7  UNL     1       5.979  44.726  14.387  1.00  0.00     0.152 C 
BRANCH  23  24
HETATM   24  C8  UNL     1       5.128  44.202  13.297  1.00  0.00     0.175 C 
HETATM   25  O2  UNL     1       3.969  44.602  13.033  1.00  0.00    -0.648 OA
HETATM   26  O3  UNL     1       5.647  43.196  12.509  1.00  0.00    -0.648 OA
ENDBRANCH  23  24
ENDBRANCH   1  23
BRANCH   5  27
HETATM   27  C13 UNL     1       3.920  38.943  18.160  1.00  0.00     0.043 C 
HETATM   28  N3  UNL     1       3.536  37.871  17.585  1.00  0.00    -0.306 N 
HETATM   29  N4  UNL     1       3.649  36.740  18.345  1.00  0.00    -0.130 NA
ATOM     30  H3  UNL     1       3.173  37.858  16.632  1.00  0.00     0.182 HD
HETATM   31  C14 UNL     1       3.831  37.157  19.715  1.00  0.00     0.056 C 
HETATM   32  C15 UNL     1       2.433  37.183  20.324  1.00  0.00     0.036 C 
HETATM   33  C16 UNL     1       4.768  36.296  20.490  1.00  0.00     0.036 C 
HETATM   34  C17 UNL     1       4.359  38.579  19.523  1.00  0.00     0.020 C 
HETATM   35  C18 UNL     1       5.873  38.598  19.570  1.00  0.00     0.024 C 
HETATM   36  C19 UNL     1       3.755  39.383  20.628  1.00  0.00     0.024 C 
ENDBRANCH   5  27
TORSDOF 6
ENDMDL
