MODEL 1
REMARK VINA RESULT: -8.006229753      0.000      0.000
REMARK  8 active torsions:
REMARK  status: ('A' for Active; 'I' for Inactive)
REMARK    1  A    between atoms: C2_2  and  C3_3 
REMARK    2  A    between atoms: C3_3  and  C4_4 
REMARK    3  A    between atoms: C4_4  and  C5_5 
REMARK    4  A    between atoms: C5_5  and  C6_6 
REMARK    5  A    between atoms: C6_6  and  N1_7 
REMARK    6  A    between atoms: N1_7  and  C7_9 
REMARK    7  A    between atoms: N4_20  and  C12_21 
REMARK    8  A    between atoms: C12_21  and  C13_22 
ROOT
HETATM    1  C7  UNL     1       3.067  23.705   5.550  1.00  0.00     0.682 A 
HETATM    2  N2  UNL     1       3.951  22.900   6.164  1.00  0.00    -0.155 N 
ATOM      3  H2  UNL     1       4.944  22.963   5.942  1.00  0.00     0.187 HD
HETATM    4  C8  UNL     1       3.508  22.001   7.083  1.00  0.00     0.275 A 
HETATM    5  O1  UNL     1       4.359  21.265   7.638  1.00  0.00    -0.267 OA
HETATM    6  C9  UNL     1       2.190  21.876   7.417  1.00  0.00     0.093 A 
HETATM    7  C10 UNL     1       1.730  20.969   8.346  1.00  0.00     0.113 A 
HETATM    8  N3  UNL     1       0.421  20.933   8.593  1.00  0.00    -0.318 N 
ATOM      9  H3  UNL     1       0.057  20.269   9.276  1.00  0.00     0.170 HD
HETATM   10  C11 UNL     1      -0.415  21.748   7.963  1.00  0.00     0.328 A 
HETATM   11  O2  UNL     1      -1.652  21.697   8.211  1.00  0.00    -0.246 OA
HETATM   12  N4  UNL     1      -0.029  22.664   7.037  1.00  0.00    -0.284 N 
HETATM   13  C16 UNL     1       1.287  22.720   6.770  1.00  0.00     0.144 A 
HETATM   14  N5  UNL     1       1.745  23.583   5.882  1.00  0.00    -0.175 N 
ATOM     15  H5  UNL     1       1.074  24.194   5.417  1.00  0.00     0.186 HD
ENDROOT
BRANCH   1  16
HETATM   16  N1  UNL     1       3.444  24.561   4.681  1.00  0.00    -0.226 N 
ATOM     17  H1  UNL     1       2.714  25.132   4.255  1.00  0.00     0.177 HD
BRANCH  16  18
HETATM   18  C6  UNL     1       4.788  24.805   4.240  1.00  0.00     0.138 C 
BRANCH  18  19
HETATM   19  C5  UNL     1       5.397  25.986   4.939  1.00  0.00     0.020 C 
BRANCH  19  20
HETATM   20  C4  UNL     1       6.779  25.737   5.417  1.00  0.00     0.002 C 
BRANCH  20  21
HETATM   21  C3  UNL     1       7.166  24.300   5.193  1.00  0.00    -0.000 C 
BRANCH  21  22
HETATM   22  C2  UNL     1       8.469  24.206   4.395  1.00  0.00    -0.005 C 
HETATM   23  C1  UNL     1       8.810  25.580   3.877  1.00  0.00     0.005 C 
ENDBRANCH  21  22
ENDBRANCH  20  21
ENDBRANCH  19  20
ENDBRANCH  18  19
ENDBRANCH  16  18
ENDBRANCH   1  16
BRANCH  12  24
HETATM   24  C12 UNL     1      -0.989  23.516   6.390  1.00  0.00     0.140 C 
BRANCH  24  25
HETATM   25  C13 UNL     1      -1.203  24.755   7.211  1.00  0.00     0.004 A 
HETATM   26  C14 UNL     1      -2.525  25.076   7.791  1.00  0.00     0.007 A 
HETATM   27  C15 UNL     1      -2.084  25.880   6.626  1.00  0.00     0.007 A 
ENDBRANCH  24  25
ENDBRANCH  12  24
TORSDOF 8
ENDMDL
MODEL 2
REMARK VINA RESULT: -7.606761064      0.953      1.266
REMARK  8 active torsions:
REMARK  status: ('A' for Active; 'I' for Inactive)
REMARK    1  A    between atoms: C2_2  and  C3_3 
REMARK    2  A    between atoms: C3_3  and  C4_4 
REMARK    3  A    between atoms: C4_4  and  C5_5 
REMARK    4  A    between atoms: C5_5  and  C6_6 
REMARK    5  A    between atoms: C6_6  and  N1_7 
REMARK    6  A    between atoms: N1_7  and  C7_9 
REMARK    7  A    between atoms: N4_20  and  C12_21 
REMARK    8  A    between atoms: C12_21  and  C13_22 
ROOT
HETATM    1  C7  UNL     1       3.249  23.745   5.509  1.00  0.00     0.682 A 
HETATM    2  N2  UNL     1       4.097  22.915   6.141  1.00  0.00    -0.155 N 
ATOM      3  H2  UNL     1       5.100  22.968   5.961  1.00  0.00     0.187 HD
HETATM    4  C8  UNL     1       3.606  22.003   7.023  1.00  0.00     0.275 A 
HETATM    5  O1  UNL     1       4.424  21.243   7.595  1.00  0.00    -0.267 OA
HETATM    6  C9  UNL     1       2.274  21.890   7.300  1.00  0.00     0.093 A 
HETATM    7  C10 UNL     1       1.765  20.970   8.190  1.00  0.00     0.113 A 
HETATM    8  N3  UNL     1       0.447  20.947   8.384  1.00  0.00    -0.318 N 
ATOM      9  H3  UNL     1       0.046  20.275   9.038  1.00  0.00     0.170 HD
HETATM   10  C11 UNL     1      -0.352  21.786   7.738  1.00  0.00     0.328 A 
HETATM   11  O2  UNL     1      -1.599  21.748   7.936  1.00  0.00    -0.246 OA
HETATM   12  N4  UNL     1       0.083  22.716   6.848  1.00  0.00    -0.284 N 
HETATM   13  C16 UNL     1       1.409  22.759   6.636  1.00  0.00     0.144 A 
HETATM   14  N5  UNL     1       1.913  23.634   5.786  1.00  0.00    -0.175 N 
ATOM     15  H5  UNL     1       1.270  24.264   5.307  1.00  0.00     0.186 HD
ENDROOT
BRANCH   1  16
HETATM   16  N1  UNL     1       3.673  24.613   4.675  1.00  0.00    -0.226 N 
ATOM     17  H1  UNL     1       3.071  24.808   3.875  1.00  0.00     0.177 HD
BRANCH  16  18
HETATM   18  C6  UNL     1       4.906  25.342   4.743  1.00  0.00     0.138 C 
BRANCH  18  19
HETATM   19  C5  UNL     1       5.872  24.903   3.680  1.00  0.00     0.020 C 
BRANCH  19  20
HETATM   20  C4  UNL     1       6.018  25.884   2.577  1.00  0.00     0.002 C 
BRANCH  20  21
HETATM   21  C3  UNL     1       6.781  27.095   3.043  1.00  0.00    -0.000 C 
BRANCH  21  22
HETATM   22  C2  UNL     1       8.208  26.717   3.447  1.00  0.00    -0.005 C 
HETATM   23  C1  UNL     1       8.530  27.402   4.752  1.00  0.00     0.005 C 
ENDBRANCH  21  22
ENDBRANCH  20  21
ENDBRANCH  19  20
ENDBRANCH  18  19
ENDBRANCH  16  18
ENDBRANCH   1  16
BRANCH  12  24
HETATM   24  C12 UNL     1      -0.839  23.594   6.182  1.00  0.00     0.140 C 
BRANCH  24  25
HETATM   25  C13 UNL     1      -1.089  24.808   7.031  1.00  0.00     0.004 A 
HETATM   26  C14 UNL     1      -2.388  25.023   7.703  1.00  0.00     0.007 A 
HETATM   27  C15 UNL     1      -2.090  25.866   6.521  1.00  0.00     0.007 A 
ENDBRANCH  24  25
ENDBRANCH  12  24
TORSDOF 8
ENDMDL
MODEL 3
REMARK VINA RESULT: -7.596831491      3.119      7.768
REMARK  8 active torsions:
REMARK  status: ('A' for Active; 'I' for Inactive)
REMARK    1  A    between atoms: C2_2  and  C3_3 
REMARK    2  A    between atoms: C3_3  and  C4_4 
REMARK    3  A    between atoms: C4_4  and  C5_5 
REMARK    4  A    between atoms: C5_5  and  C6_6 
REMARK    5  A    between atoms: C6_6  and  N1_7 
REMARK    6  A    between atoms: N1_7  and  C7_9 
REMARK    7  A    between atoms: N4_20  and  C12_21 
REMARK    8  A    between atoms: C12_21  and  C13_22 
ROOT
HETATM    1  C7  UNL     1       4.392  23.851   5.579  1.00  0.00     0.682 A 
HETATM    2  N2  UNL     1       5.024  22.687   5.348  1.00  0.00    -0.155 N 
ATOM      3  H2  UNL     1       4.527  21.802   5.456  1.00  0.00     0.187 HD
HETATM    4  C8  UNL     1       6.330  22.699   4.969  1.00  0.00     0.275 A 
HETATM    5  O1  UNL     1       6.889  21.596   4.762  1.00  0.00    -0.267 OA
HETATM    6  C9  UNL     1       7.040  23.855   4.810  1.00  0.00     0.093 A 
HETATM    7  C10 UNL     1       8.363  23.880   4.429  1.00  0.00     0.113 A 
HETATM    8  N3  UNL     1       8.959  25.066   4.305  1.00  0.00    -0.318 N 
ATOM      9  H3  UNL     1       9.938  25.110   4.024  1.00  0.00     0.170 HD
HETATM   10  C11 UNL     1       8.295  26.190   4.543  1.00  0.00     0.328 A 
HETATM   11  O2  UNL     1       8.878  27.303   4.420  1.00  0.00    -0.246 OA
HETATM   12  N4  UNL     1       6.992  26.237   4.922  1.00  0.00    -0.284 N 
HETATM   13  C16 UNL     1       6.370  25.053   5.054  1.00  0.00     0.144 A 
HETATM   14  N5  UNL     1       5.102  25.011   5.420  1.00  0.00    -0.175 N 
ATOM     15  H5  UNL     1       4.623  25.894   5.594  1.00  0.00     0.186 HD
ENDROOT
BRANCH   1  16
HETATM   16  N1  UNL     1       3.167  23.879   5.936  1.00  0.00    -0.226 N 
ATOM     17  H1  UNL     1       2.751  24.802   6.067  1.00  0.00     0.177 HD
BRANCH  16  18
HETATM   18  C6  UNL     1       2.313  22.751   6.173  1.00  0.00     0.138 C 
BRANCH  18  19
HETATM   19  C5  UNL     1       2.469  22.219   7.568  1.00  0.00     0.020 C 
BRANCH  19  20
HETATM   20  C4  UNL     1       1.198  22.194   8.332  1.00  0.00     0.002 C 
BRANCH  20  21
HETATM   21  C3  UNL     1       0.493  20.877   8.146  1.00  0.00    -0.000 C 
BRANCH  21  22
HETATM   22  C2  UNL     1      -0.840  20.862   8.898  1.00  0.00    -0.005 C 
HETATM   23  C1  UNL     1      -1.957  20.930   7.888  1.00  0.00     0.005 C 
ENDBRANCH  21  22
ENDBRANCH  20  21
ENDBRANCH  19  20
ENDBRANCH  18  19
ENDBRANCH  16  18
ENDBRANCH   1  16
BRANCH  12  24
HETATM   24  C12 UNL     1       6.334  27.491   5.166  1.00  0.00     0.140 C 
BRANCH  24  25
HETATM   25  C13 UNL     1       6.632  27.959   6.562  1.00  0.00     0.004 A 
HETATM   26  C14 UNL     1       5.957  29.142   7.137  1.00  0.00     0.007 A 
HETATM   27  C15 UNL     1       7.378  29.298   6.743  1.00  0.00     0.007 A 
ENDBRANCH  24  25
ENDBRANCH  12  24
TORSDOF 8
ENDMDL
MODEL 4
REMARK VINA RESULT: -7.448269813      3.975      8.191
REMARK  8 active torsions:
REMARK  status: ('A' for Active; 'I' for Inactive)
REMARK    1  A    between atoms: C2_2  and  C3_3 
REMARK    2  A    between atoms: C3_3  and  C4_4 
REMARK    3  A    between atoms: C4_4  and  C5_5 
REMARK    4  A    between atoms: C5_5  and  C6_6 
REMARK    5  A    between atoms: C6_6  and  N1_7 
REMARK    6  A    between atoms: N1_7  and  C7_9 
REMARK    7  A    between atoms: N4_20  and  C12_21 
REMARK    8  A    between atoms: C12_21  and  C13_22 
ROOT
HETATM    1  C7  UNL     1       5.471  24.845   5.013  1.00  0.00     0.682 A 
HETATM    2  N2  UNL     1       5.911  24.375   3.832  1.00  0.00    -0.155 N 
ATOM      3  H2  UNL     1       5.738  23.406   3.568  1.00  0.00     0.187 HD
HETATM    4  C8  UNL     1       6.589  25.205   2.995  1.00  0.00     0.275 A 
HETATM    5  O1  UNL     1       6.986  24.735   1.901  1.00  0.00    -0.267 OA
HETATM    6  C9  UNL     1       6.847  26.510   3.300  1.00  0.00     0.093 A 
HETATM    7  C10 UNL     1       7.534  27.360   2.461  1.00  0.00     0.113 A 
HETATM    8  N3  UNL     1       7.730  28.615   2.861  1.00  0.00    -0.318 N 
ATOM      9  H3  UNL     1       8.236  29.262   2.257  1.00  0.00     0.170 HD
HETATM   10  C11 UNL     1       7.277  29.035   4.035  1.00  0.00     0.328 A 
HETATM   11  O2  UNL     1       7.474  30.229   4.396  1.00  0.00    -0.246 OA
HETATM   12  N4  UNL     1       6.594  28.252   4.910  1.00  0.00    -0.284 N 
HETATM   13  C16 UNL     1       6.384  26.981   4.529  1.00  0.00     0.144 A 
HETATM   14  N5  UNL     1       5.728  26.153   5.321  1.00  0.00    -0.175 N 
ATOM     15  H5  UNL     1       5.394  26.510   6.217  1.00  0.00     0.186 HD
ENDROOT
BRANCH   1  16
HETATM   16  N1  UNL     1       4.832  24.097   5.825  1.00  0.00    -0.226 N 
ATOM     17  H1  UNL     1       3.952  24.464   6.188  1.00  0.00     0.177 HD
BRANCH  16  18
HETATM   18  C6  UNL     1       5.219  22.793   6.282  1.00  0.00     0.138 C 
BRANCH  18  19
HETATM   19  C5  UNL     1       4.049  22.021   6.820  1.00  0.00     0.020 C 
BRANCH  19  20
HETATM   20  C4  UNL     1       2.782  22.793   6.809  1.00  0.00     0.002 C 
BRANCH  20  21
HETATM   21  C3  UNL     1       1.907  22.391   7.965  1.00  0.00    -0.000 C 
BRANCH  21  22
HETATM   22  C2  UNL     1       1.225  21.048   7.692  1.00  0.00    -0.005 C 
HETATM   23  C1  UNL     1      -0.029  20.973   8.526  1.00  0.00     0.005 C 
ENDBRANCH  21  22
ENDBRANCH  20  21
ENDBRANCH  19  20
ENDBRANCH  18  19
ENDBRANCH  16  18
ENDBRANCH   1  16
BRANCH  12  24
HETATM   24  C12 UNL     1       6.132  28.772   6.167  1.00  0.00     0.140 C 
BRANCH  24  25
HETATM   25  C13 UNL     1       7.195  28.590   7.213  1.00  0.00     0.004 A 
HETATM   26  C14 UNL     1       6.890  28.735   8.653  1.00  0.00     0.007 A 
HETATM   27  C15 UNL     1       7.659  29.828   8.011  1.00  0.00     0.007 A 
ENDBRANCH  24  25
ENDBRANCH  12  24
TORSDOF 8
ENDMDL
MODEL 5
REMARK VINA RESULT: -7.433634077      4.499      8.036
REMARK  8 active torsions:
REMARK  status: ('A' for Active; 'I' for Inactive)
REMARK    1  A    between atoms: C2_2  and  C3_3 
REMARK    2  A    between atoms: C3_3  and  C4_4 
REMARK    3  A    between atoms: C4_4  and  C5_5 
REMARK    4  A    between atoms: C5_5  and  C6_6 
REMARK    5  A    between atoms: C6_6  and  N1_7 
REMARK    6  A    between atoms: N1_7  and  C7_9 
REMARK    7  A    between atoms: N4_20  and  C12_21 
REMARK    8  A    between atoms: C12_21  and  C13_22 
ROOT
HETATM    1  C7  UNL     1       6.935  24.659   4.713  1.00  0.00     0.682 A 
HETATM    2  N2  UNL     1       6.587  24.499   3.424  1.00  0.00    -0.155 N 
ATOM      3  H2  UNL     1       6.421  23.566   3.048  1.00  0.00     0.187 HD
HETATM    4  C8  UNL     1       6.460  25.594   2.627  1.00  0.00     0.275 A 
HETATM    5  O1  UNL     1       6.134  25.410   1.429  1.00  0.00    -0.267 OA
HETATM    6  C9  UNL     1       6.671  26.864   3.080  1.00  0.00     0.093 A 
HETATM    7  C10 UNL     1       6.546  27.980   2.282  1.00  0.00     0.113 A 
HETATM    8  N3  UNL     1       6.777  29.173   2.830  1.00  0.00    -0.318 N 
ATOM      9  H3  UNL     1       6.691  30.013   2.259  1.00  0.00     0.170 HD
HETATM   10  C11 UNL     1       7.117  29.282   4.107  1.00  0.00     0.328 A 
HETATM   11  O2  UNL     1       7.332  30.422   4.607  1.00  0.00    -0.246 OA
HETATM   12  N4  UNL     1       7.258  28.225   4.949  1.00  0.00    -0.284 N 
HETATM   13  C16 UNL     1       7.031  27.011   4.419  1.00  0.00     0.144 A 
HETATM   14  N5  UNL     1       7.147  25.931   5.170  1.00  0.00    -0.175 N 
ATOM     15  H5  UNL     1       7.410  26.052   6.148  1.00  0.00     0.186 HD
ENDROOT
BRANCH   1  16
HETATM   16  N1  UNL     1       7.065  23.656   5.491  1.00  0.00    -0.226 N 
ATOM     17  H1  UNL     1       7.848  23.030   5.302  1.00  0.00     0.177 HD
BRANCH  16  18
HETATM   18  C6  UNL     1       6.226  23.315   6.604  1.00  0.00     0.138 C 
BRANCH  18  19
HETATM   19  C5  UNL     1       5.022  22.528   6.173  1.00  0.00     0.020 C 
BRANCH  19  20
HETATM   20  C4  UNL     1       3.856  23.378   5.832  1.00  0.00     0.002 C 
BRANCH  20  21
HETATM   21  C3  UNL     1       2.571  22.687   6.201  1.00  0.00    -0.000 C 
BRANCH  21  22
HETATM   22  C2  UNL     1       2.792  21.704   7.353  1.00  0.00    -0.005 C 
HETATM   23  C1  UNL     1       1.797  22.015   8.442  1.00  0.00     0.005 C 
ENDBRANCH  21  22
ENDBRANCH  20  21
ENDBRANCH  19  20
ENDBRANCH  18  19
ENDBRANCH  16  18
ENDBRANCH   1  16
BRANCH  12  24
HETATM   24  C12 UNL     1       7.631  28.415   6.323  1.00  0.00     0.140 C 
BRANCH  24  25
HETATM   25  C13 UNL     1       6.399  28.485   7.179  1.00  0.00     0.004 A 
HETATM   26  C14 UNL     1       5.948  29.759   7.777  1.00  0.00     0.007 A 
HETATM   27  C15 UNL     1       6.569  28.768   8.687  1.00  0.00     0.007 A 
ENDBRANCH  24  25
ENDBRANCH  12  24
TORSDOF 8
ENDMDL
