MODEL 1
REMARK VINA RESULT: -6.781155993      0.000      0.000
REMARK  9 active torsions:
REMARK  status: ('A' for Active; 'I' for Inactive)
REMARK    1  A    between atoms: C2_2  and  C3_3 
REMARK    2  A    between atoms: N1_5  and  C5_6 
REMARK    3  A    between atoms: C5_6  and  C6_7 
REMARK    4  A    between atoms: C6_7  and  N2_8 
REMARK    5  A    between atoms: N2_8  and  C7_10 
REMARK    6  A    between atoms: C7_10  and  N3_12 
REMARK    7  A    between atoms: N3_12  and  C8_14 
REMARK    8  A    between atoms: C8_14  and  C9_15 
REMARK    9  A    between atoms: C9_15  and  S2_16 
ROOT
HETATM    1  S2  UNL     1      -1.714  23.932   7.289  1.00  0.00    -0.049 SA
HETATM    2  C10 UNL     1      -1.907  25.642   7.371  1.00  0.00     0.133 C 
HETATM    3  N4  UNL     1      -2.060  26.802   7.411  1.00  0.00    -0.184 NA
ENDROOT
BRANCH   1   4
HETATM    4  C9  UNL     1      -0.121  23.290   7.745  1.00  0.00     0.110 C 
BRANCH   4   5
HETATM    5  C8  UNL     1       0.542  22.544   6.627  1.00  0.00     0.133 C 
BRANCH   5   6
HETATM    6  N3  UNL     1       1.350  23.424   5.840  1.00  0.00    -0.367 N 
ATOM      7  H3  UNL     1       0.906  24.150   5.278  1.00  0.00     0.161 HD
BRANCH   6   8
HETATM    8  C7  UNL     1       2.763  23.293   5.834  1.00  0.00     0.167 C 
HETATM    9  S1  UNL     1       3.416  22.062   6.682  1.00  0.00    -0.041 SA
BRANCH   8  10
HETATM   10  N2  UNL     1       3.556  24.222   5.111  1.00  0.00    -0.366 N 
ATOM     11  H2  UNL     1       3.130  24.711   4.324  1.00  0.00     0.161 HD
BRANCH  10  12
HETATM   12  C6  UNL     1       4.930  24.510   5.428  1.00  0.00     0.141 C 
BRANCH  12  13
HETATM   13  C5  UNL     1       5.903  23.982   4.399  1.00  0.00     0.136 C 
BRANCH  13  14
HETATM   14  N1  UNL     1       6.702  25.063   3.944  1.00  0.00    -0.406 N 
HETATM   15  C4  UNL     1       7.768  25.441   4.803  1.00  0.00     0.149 C 
HETATM   16  C3  UNL     1       8.752  26.368   4.196  1.00  0.00     0.139 C 
HETATM   17  O1  UNL     1       8.935  26.298   2.853  1.00  0.00    -0.378 OA
HETATM   18  C12 UNL     1       7.736  26.350   2.190  1.00  0.00     0.135 C 
HETATM   19  C11 UNL     1       6.949  25.113   2.550  1.00  0.00     0.148 C 
HETATM   20  C13 UNL     1       8.004  26.426   0.696  1.00  0.00     0.041 C 
BRANCH  16  21
HETATM   21  C2  UNL     1       8.476  27.819   4.592  1.00  0.00     0.029 C 
HETATM   22  C1  UNL     1       7.696  27.920   5.874  1.00  0.00     0.007 C 
ENDBRANCH  16  21
ENDBRANCH  13  14
ENDBRANCH  12  13
ENDBRANCH  10  12
ENDBRANCH   8  10
ENDBRANCH   6   8
ENDBRANCH   5   6
ENDBRANCH   4   5
ENDBRANCH   1   4
TORSDOF 9
ENDMDL
MODEL 2
REMARK VINA RESULT: -6.715338949      0.900      2.215
REMARK  9 active torsions:
REMARK  status: ('A' for Active; 'I' for Inactive)
REMARK    1  A    between atoms: C2_2  and  C3_3 
REMARK    2  A    between atoms: N1_5  and  C5_6 
REMARK    3  A    between atoms: C5_6  and  C6_7 
REMARK    4  A    between atoms: C6_7  and  N2_8 
REMARK    5  A    between atoms: N2_8  and  C7_10 
REMARK    6  A    between atoms: C7_10  and  N3_12 
REMARK    7  A    between atoms: N3_12  and  C8_14 
REMARK    8  A    between atoms: C8_14  and  C9_15 
REMARK    9  A    between atoms: C9_15  and  S2_16 
ROOT
HETATM    1  S2  UNL     1      -1.754  24.198   7.075  1.00  0.00    -0.049 SA
HETATM    2  C10 UNL     1      -1.928  25.885   7.381  1.00  0.00     0.133 C 
HETATM    3  N4  UNL     1      -2.062  27.033   7.567  1.00  0.00    -0.184 NA
ENDROOT
BRANCH   1   4
HETATM    4  C9  UNL     1      -0.332  23.404   7.787  1.00  0.00     0.110 C 
BRANCH   4   5
HETATM    5  C8  UNL     1       0.403  22.548   6.802  1.00  0.00     0.133 C 
BRANCH   5   6
HETATM    6  N3  UNL     1       1.204  23.350   5.930  1.00  0.00    -0.367 N 
ATOM      7  H3  UNL     1       0.756  24.027   5.312  1.00  0.00     0.161 HD
BRANCH   6   8
HETATM    8  C7  UNL     1       2.616  23.213   5.917  1.00  0.00     0.167 C 
HETATM    9  S1  UNL     1       3.270  22.008   6.803  1.00  0.00    -0.041 SA
BRANCH   8  10
HETATM   10  N2  UNL     1       3.408  24.111   5.156  1.00  0.00    -0.366 N 
ATOM     11  H2  UNL     1       2.985  24.557   4.342  1.00  0.00     0.161 HD
BRANCH  10  12
HETATM   12  C6  UNL     1       4.776  24.427   5.470  1.00  0.00     0.141 C 
BRANCH  12  13
HETATM   13  C5  UNL     1       5.759  23.902   4.449  1.00  0.00     0.136 C 
BRANCH  13  14
HETATM   14  N1  UNL     1       6.440  25.007   3.874  1.00  0.00    -0.406 N 
HETATM   15  C4  UNL     1       5.804  25.602   2.753  1.00  0.00     0.149 C 
HETATM   16  C3  UNL     1       6.370  26.908   2.342  1.00  0.00     0.139 C 
HETATM   17  O1  UNL     1       6.939  27.677   3.306  1.00  0.00    -0.378 OA
HETATM   18  C12 UNL     1       7.846  26.955   4.038  1.00  0.00     0.135 C 
HETATM   19  C11 UNL     1       7.095  25.876   4.781  1.00  0.00     0.148 C 
HETATM   20  C13 UNL     1       8.564  27.894   4.994  1.00  0.00     0.041 C 
BRANCH  16  21
HETATM   21  C2  UNL     1       7.348  26.756   1.176  1.00  0.00     0.029 C 
HETATM   22  C1  UNL     1       7.570  28.052   0.447  1.00  0.00     0.007 C 
ENDBRANCH  16  21
ENDBRANCH  13  14
ENDBRANCH  12  13
ENDBRANCH  10  12
ENDBRANCH   8  10
ENDBRANCH   6   8
ENDBRANCH   5   6
ENDBRANCH   4   5
ENDBRANCH   1   4
TORSDOF 9
ENDMDL
MODEL 3
REMARK VINA RESULT: -6.696965057      1.401      1.872
REMARK  9 active torsions:
REMARK  status: ('A' for Active; 'I' for Inactive)
REMARK    1  A    between atoms: C2_2  and  C3_3 
REMARK    2  A    between atoms: N1_5  and  C5_6 
REMARK    3  A    between atoms: C5_6  and  C6_7 
REMARK    4  A    between atoms: C6_7  and  N2_8 
REMARK    5  A    between atoms: N2_8  and  C7_10 
REMARK    6  A    between atoms: C7_10  and  N3_12 
REMARK    7  A    between atoms: N3_12  and  C8_14 
REMARK    8  A    between atoms: C8_14  and  C9_15 
REMARK    9  A    between atoms: C9_15  and  S2_16 
ROOT
HETATM    1  S2  UNL     1      -1.938  22.528   7.366  1.00  0.00    -0.049 SA
HETATM    2  C10 UNL     1      -1.340  21.277   8.388  1.00  0.00     0.133 C 
HETATM    3  N4  UNL     1      -0.956  20.427   9.097  1.00  0.00    -0.184 NA
ENDROOT
BRANCH   1   4
HETATM    4  C9  UNL     1      -0.729  23.443   6.439  1.00  0.00     0.110 C 
BRANCH   4   5
HETATM    5  C8  UNL     1       0.661  22.916   6.627  1.00  0.00     0.133 C 
BRANCH   5   6
HETATM    6  N3  UNL     1       1.547  23.462   5.647  1.00  0.00    -0.367 N 
ATOM      7  H3  UNL     1       1.166  23.951   4.836  1.00  0.00     0.161 HD
BRANCH   6   8
HETATM    8  C7  UNL     1       2.952  23.330   5.791  1.00  0.00     0.167 C 
HETATM    9  S1  UNL     1       3.509  22.106   6.717  1.00  0.00    -0.041 SA
BRANCH   8  10
HETATM   10  N2  UNL     1       3.821  24.249   5.148  1.00  0.00    -0.366 N 
ATOM     11  H2  UNL     1       3.441  24.826   4.397  1.00  0.00     0.161 HD
BRANCH  10  12
HETATM   12  C6  UNL     1       5.207  24.413   5.497  1.00  0.00     0.141 C 
BRANCH  12  13
HETATM   13  C5  UNL     1       6.153  23.895   4.439  1.00  0.00     0.136 C 
BRANCH  13  14
HETATM   14  N1  UNL     1       6.884  24.994   3.916  1.00  0.00    -0.406 N 
HETATM   15  C4  UNL     1       7.986  25.425   4.701  1.00  0.00     0.149 C 
HETATM   16  C3  UNL     1       8.897  26.373   4.020  1.00  0.00     0.139 C 
HETATM   17  O1  UNL     1       9.001  26.284   2.669  1.00  0.00    -0.378 OA
HETATM   18  C12 UNL     1       7.763  26.282   2.081  1.00  0.00     0.135 C 
HETATM   19  C11 UNL     1       7.044  25.025   2.509  1.00  0.00     0.148 C 
HETATM   20  C13 UNL     1       7.937  26.338   0.572  1.00  0.00     0.041 C 
BRANCH  16  21
HETATM   21  C2  UNL     1       8.595  27.821   4.407  1.00  0.00     0.029 C 
HETATM   22  C1  UNL     1       7.847  27.918   5.708  1.00  0.00     0.007 C 
ENDBRANCH  16  21
ENDBRANCH  13  14
ENDBRANCH  12  13
ENDBRANCH  10  12
ENDBRANCH   8  10
ENDBRANCH   6   8
ENDBRANCH   5   6
ENDBRANCH   4   5
ENDBRANCH   1   4
TORSDOF 9
ENDMDL
MODEL 4
REMARK VINA RESULT: -6.668549821      3.930      8.646
REMARK  9 active torsions:
REMARK  status: ('A' for Active; 'I' for Inactive)
REMARK    1  A    between atoms: C2_2  and  C3_3 
REMARK    2  A    between atoms: N1_5  and  C5_6 
REMARK    3  A    between atoms: C5_6  and  C6_7 
REMARK    4  A    between atoms: C6_7  and  N2_8 
REMARK    5  A    between atoms: N2_8  and  C7_10 
REMARK    6  A    between atoms: C7_10  and  N3_12 
REMARK    7  A    between atoms: N3_12  and  C8_14 
REMARK    8  A    between atoms: C8_14  and  C9_15 
REMARK    9  A    between atoms: C9_15  and  S2_16 
ROOT
HETATM    1  S2  UNL     1       6.323  26.803   2.800  1.00  0.00    -0.049 SA
HETATM    2  C10 UNL     1       7.014  25.465   1.963  1.00  0.00     0.133 C 
HETATM    3  N4  UNL     1       7.462  24.555   1.378  1.00  0.00    -0.184 NA
ENDROOT
BRANCH   1   4
HETATM    4  C9  UNL     1       6.924  27.108   4.444  1.00  0.00     0.110 C 
BRANCH   4   5
HETATM    5  C8  UNL     1       6.038  26.521   5.500  1.00  0.00     0.133 C 
BRANCH   5   6
HETATM    6  N3  UNL     1       5.384  25.344   5.017  1.00  0.00    -0.367 N 
ATOM      7  H3  UNL     1       4.673  25.424   4.290  1.00  0.00     0.161 HD
BRANCH   6   8
HETATM    8  C7  UNL     1       5.716  24.068   5.540  1.00  0.00     0.167 C 
HETATM    9  S1  UNL     1       7.159  23.428   5.124  1.00  0.00    -0.041 SA
BRANCH   8  10
HETATM   10  N2  UNL     1       4.802  23.391   6.388  1.00  0.00    -0.366 N 
ATOM     11  H2  UNL     1       5.108  23.148   7.331  1.00  0.00     0.161 HD
BRANCH  10  12
HETATM   12  C6  UNL     1       3.468  23.028   5.991  1.00  0.00     0.141 C 
BRANCH  12  13
HETATM   13  C5  UNL     1       2.984  21.746   6.628  1.00  0.00     0.136 C 
BRANCH  13  14
HETATM   14  N1  UNL     1       1.594  21.872   6.887  1.00  0.00    -0.406 N 
HETATM   15  C4  UNL     1       1.149  21.327   8.121  1.00  0.00     0.149 C 
HETATM   16  C3  UNL     1      -0.230  21.708   8.504  1.00  0.00     0.139 C 
HETATM   17  O1  UNL     1      -0.695  22.906   8.067  1.00  0.00    -0.378 OA
HETATM   18  C12 UNL     1      -0.502  23.046   6.717  1.00  0.00     0.135 C 
HETATM   19  C11 UNL     1       0.986  23.077   6.458  1.00  0.00     0.148 C 
HETATM   20  C13 UNL     1      -1.175  24.328   6.255  1.00  0.00     0.041 C 
BRANCH  16  21
HETATM   21  C2  UNL     1      -1.237  20.615   8.140  1.00  0.00     0.029 C 
HETATM   22  C1  UNL     1      -2.646  20.998   8.501  1.00  0.00     0.007 C 
ENDBRANCH  16  21
ENDBRANCH  13  14
ENDBRANCH  12  13
ENDBRANCH  10  12
ENDBRANCH   8  10
ENDBRANCH   6   8
ENDBRANCH   5   6
ENDBRANCH   4   5
ENDBRANCH   1   4
TORSDOF 9
ENDMDL
MODEL 5
REMARK VINA RESULT: -6.621991389      1.218      2.308
REMARK  9 active torsions:
REMARK  status: ('A' for Active; 'I' for Inactive)
REMARK    1  A    between atoms: C2_2  and  C3_3 
REMARK    2  A    between atoms: N1_5  and  C5_6 
REMARK    3  A    between atoms: C5_6  and  C6_7 
REMARK    4  A    between atoms: C6_7  and  N2_8 
REMARK    5  A    between atoms: N2_8  and  C7_10 
REMARK    6  A    between atoms: C7_10  and  N3_12 
REMARK    7  A    between atoms: N3_12  and  C8_14 
REMARK    8  A    between atoms: C8_14  and  C9_15 
REMARK    9  A    between atoms: C9_15  and  S2_16 
ROOT
HETATM    1  S2  UNL     1      -1.829  24.009   7.166  1.00  0.00    -0.049 SA
HETATM    2  C10 UNL     1      -1.927  25.716   7.378  1.00  0.00     0.133 C 
HETATM    3  N4  UNL     1      -2.011  26.878   7.502  1.00  0.00    -0.184 NA
ENDROOT
BRANCH   1   4
HETATM    4  C9  UNL     1      -0.351  23.219   7.756  1.00  0.00     0.110 C 
BRANCH   4   5
HETATM    5  C8  UNL     1       0.365  22.460   6.680  1.00  0.00     0.133 C 
BRANCH   5   6
HETATM    6  N3  UNL     1       1.156  23.342   5.878  1.00  0.00    -0.367 N 
ATOM      7  H3  UNL     1       0.699  24.049   5.303  1.00  0.00     0.161 HD
BRANCH   6   8
HETATM    8  C7  UNL     1       2.571  23.241   5.876  1.00  0.00     0.167 C 
HETATM    9  S1  UNL     1       3.248  22.031   6.738  1.00  0.00    -0.041 SA
BRANCH   8  10
HETATM   10  N2  UNL     1       3.348  24.178   5.147  1.00  0.00    -0.366 N 
ATOM     11  H2  UNL     1       2.877  24.997   4.760  1.00  0.00     0.161 HD
BRANCH  10  12
HETATM   12  C6  UNL     1       4.762  24.037   4.923  1.00  0.00     0.141 C 
BRANCH  12  13
HETATM   13  C5  UNL     1       5.573  25.173   5.503  1.00  0.00     0.136 C 
BRANCH  13  14
HETATM   14  N1  UNL     1       6.267  25.813   4.444  1.00  0.00    -0.406 N 
HETATM   15  C4  UNL     1       6.008  25.304   3.144  1.00  0.00     0.149 C 
HETATM   16  C3  UNL     1       6.510  26.148   2.036  1.00  0.00     0.139 C 
HETATM   17  O1  UNL     1       6.590  27.486   2.253  1.00  0.00    -0.378 OA
HETATM   18  C12 UNL     1       7.258  27.755   3.420  1.00  0.00     0.135 C 
HETATM   19  C11 UNL     1       6.435  27.215   4.565  1.00  0.00     0.148 C 
HETATM   20  C13 UNL     1       7.456  29.258   3.537  1.00  0.00     0.041 C 
BRANCH  16  21
HETATM   21  C2  UNL     1       7.853  25.642   1.508  1.00  0.00     0.029 C 
HETATM   22  C1  UNL     1       8.199  26.238   0.171  1.00  0.00     0.007 C 
ENDBRANCH  16  21
ENDBRANCH  13  14
ENDBRANCH  12  13
ENDBRANCH  10  12
ENDBRANCH   8  10
ENDBRANCH   6   8
ENDBRANCH   5   6
ENDBRANCH   4   5
ENDBRANCH   1   4
TORSDOF 9
ENDMDL
