MODEL 1
REMARK VINA RESULT: -7.044990608      0.000      0.000
REMARK  7 active torsions:
REMARK  status: ('A' for Active; 'I' for Inactive)
REMARK       I    between atoms: N1_1  and  C1_5 
REMARK       I    between atoms: C1_5  and  N2_6 
REMARK       I    between atoms: C1_5  and  N3_10 
REMARK    1  A    between atoms: N3_10  and  C2_12 
REMARK    2  A    between atoms: C4_14  and  N4_15 
REMARK    3  A    between atoms: N5_17  and  N6_19 
REMARK    4  A    between atoms: N6_19  and  C5_21 
REMARK    5  A    between atoms: C7_25  and  O1_26 
REMARK    6  A    between atoms: C8_31  and  N9_32 
REMARK    7  A    between atoms: N9_32  and  C9_34 
ROOT
HETATM    1  C2  UNL     1      14.383  17.751  30.172  1.00  0.00     0.123 A 
HETATM    2  C3  UNL     1      14.549  19.121  29.946  1.00  0.00     0.099 A 
HETATM    3  C4  UNL     1      15.350  19.536  28.913  1.00  0.00     0.140 A 
HETATM    4  N8  UNL     1      15.968  18.648  28.128  1.00  0.00    -0.175 N 
ATOM      5  H8  UNL     1      16.559  18.977  27.364  1.00  0.00     0.186 HD
HETATM    6  C8  UNL     1      15.819  17.331  28.331  1.00  0.00     0.688 A 
HETATM    7  N12 UNL     1      15.036  16.920  29.342  1.00  0.00    -0.176 N 
ATOM      8  H12 UNL     1      14.931  15.917  29.488  1.00  0.00     0.186 HD
ENDROOT
BRANCH   3   9
HETATM    9  N4  UNL     1      15.500  20.951  28.706  1.00  0.00    -0.270 N 
HETATM   10  N5  UNL     1      16.142  21.582  29.596  1.00  0.00    -0.238 N 
ATOM     11  H5  UNL     1      16.513  21.071  30.397  1.00  0.00     0.208 HD
ATOM     12  H4  UNL     1      15.113  21.420  27.887  1.00  0.00     0.190 HD
BRANCH  10  13
HETATM   13  N6  UNL     1      16.355  22.947  29.512  1.00  0.00    -0.251 N 
ATOM     14  H6  UNL     1      17.293  23.299  29.318  1.00  0.00     0.192 HD
BRANCH  13  15
HETATM   15  C5  UNL     1      15.270  23.877  29.693  1.00  0.00     0.237 C 
HETATM   16  N7  UNL     1      15.327  25.147  29.618  1.00  0.00    -0.350 N 
HETATM   17  C6  UNL     1      14.015  25.700  29.866  1.00  0.00     0.184 C 
ATOM     18  H7  UNL     1      16.168  25.690  29.416  1.00  0.00     0.163 HD
HETATM   19  C7  UNL     1      13.099  24.539  29.631  1.00  0.00     0.284 C 
HETATM   20  O2  UNL     1      13.962  23.448  29.989  1.00  0.00    -0.288 OA
BRANCH  19  21
HETATM   21  O1  UNL     1      12.786  24.348  28.288  1.00  0.00    -0.369 OA
ATOM     22  H1  UNL     1      13.264  23.630  27.890  1.00  0.00     0.212 HD
ENDBRANCH  19  21
ENDBRANCH  13  15
ENDBRANCH  10  13
ENDBRANCH   3   9
BRANCH   1  23
HETATM   23  N3  UNL     1      13.629  17.365  31.144  1.00  0.00    -0.327 N 
HETATM   24  C1  UNL     1      12.494  16.519  30.891  1.00  0.00     0.481 C 
HETATM   25  N1  UNL     1      11.438  17.333  30.314  1.00  0.00    -0.033 N 
HETATM   26  N2  UNL     1      11.996  15.957  32.136  1.00  0.00    -0.033 N 
ATOM     27  H13 UNL     1      10.565  16.821  30.195  1.00  0.00     0.278 HD
ATOM     28  H12 UNL     1      11.092  18.044  30.959  1.00  0.00     0.278 HD
ATOM     29  H11 UNL     1      11.787  17.727  29.441  1.00  0.00     0.278 HD
ATOM     30  H23 UNL     1      11.650  16.668  32.781  1.00  0.00     0.278 HD
ATOM     31  H22 UNL     1      11.123  15.445  32.017  1.00  0.00     0.278 HD
ATOM     32  H21 UNL     1      12.738  15.385  32.542  1.00  0.00     0.278 HD
ATOM     33  H3  UNL     1      13.839  17.660  32.097  1.00  0.00     0.164 HD
ENDBRANCH   1  23
BRANCH   6  34
HETATM   34  N9  UNL     1      16.436  16.520  27.548  1.00  0.00    -0.161 N 
ATOM     35  H9  UNL     1      16.977  16.894  26.768  1.00  0.00     0.187 HD
BRANCH  34  36
HETATM   36  C9  UNL     1      16.381  15.118  27.745  1.00  0.00     0.190 C 
HETATM   37  N10 UNL     1      15.452  14.315  27.317  1.00  0.00    -0.360 N 
HETATM   38  C10 UNL     1      15.731  12.953  27.707  1.00  0.00     0.142 C 
ATOM     39  H10 UNL     1      14.636  14.608  26.779  1.00  0.00     0.162 HD
HETATM   40  C11 UNL     1      17.195  12.992  28.039  1.00  0.00     0.142 C 
HETATM   41  N11 UNL     1      17.372  14.376  28.461  1.00  0.00    -0.360 N 
ATOM     42  H11 UNL     1      18.056  14.738  29.124  1.00  0.00     0.162 HD
ENDBRANCH  34  36
ENDBRANCH   6  34
TORSDOF 7
ENDMDL
MODEL 2
REMARK VINA RESULT: -7.007998730      3.913      7.953
REMARK  7 active torsions:
REMARK  status: ('A' for Active; 'I' for Inactive)
REMARK       I    between atoms: N1_1  and  C1_5 
REMARK       I    between atoms: C1_5  and  N2_6 
REMARK       I    between atoms: C1_5  and  N3_10 
REMARK    1  A    between atoms: N3_10  and  C2_12 
REMARK    2  A    between atoms: C4_14  and  N4_15 
REMARK    3  A    between atoms: N5_17  and  N6_19 
REMARK    4  A    between atoms: N6_19  and  C5_21 
REMARK    5  A    between atoms: C7_25  and  O1_26 
REMARK    6  A    between atoms: C8_31  and  N9_32 
REMARK    7  A    between atoms: N9_32  and  C9_34 
ROOT
HETATM    1  C2  UNL     1      15.191  20.057  28.935  1.00  0.00     0.123 A 
HETATM    2  C3  UNL     1      16.100  19.083  28.511  1.00  0.00     0.099 A 
HETATM    3  C4  UNL     1      15.802  17.759  28.710  1.00  0.00     0.140 A 
HETATM    4  N8  UNL     1      14.659  17.397  29.300  1.00  0.00    -0.175 N 
ATOM      5  H8  UNL     1      14.455  16.407  29.439  1.00  0.00     0.186 HD
HETATM    6  C8  UNL     1      13.777  18.319  29.713  1.00  0.00     0.688 A 
HETATM    7  N12 UNL     1      14.065  19.617  29.521  1.00  0.00    -0.176 N 
ATOM      8  H12 UNL     1      13.388  20.310  29.840  1.00  0.00     0.186 HD
ENDROOT
BRANCH   3   9
HETATM    9  N4  UNL     1      16.756  16.781  28.263  1.00  0.00    -0.270 N 
HETATM   10  N5  UNL     1      16.458  15.569  28.477  1.00  0.00    -0.238 N 
ATOM     11  H5  UNL     1      15.578  15.349  28.944  1.00  0.00     0.208 HD
ATOM     12  H4  UNL     1      17.624  17.047  27.798  1.00  0.00     0.190 HD
BRANCH  10  13
HETATM   13  N6  UNL     1      17.294  14.535  28.095  1.00  0.00    -0.251 N 
ATOM     14  H6  UNL     1      18.294  14.709  27.987  1.00  0.00     0.192 HD
BRANCH  13  15
HETATM   15  C5  UNL     1      16.772  13.216  27.847  1.00  0.00     0.237 C 
HETATM   16  N7  UNL     1      15.597  12.794  28.103  1.00  0.00    -0.350 N 
HETATM   17  C6  UNL     1      15.487  11.411  27.697  1.00  0.00     0.184 C 
ATOM     18  H7  UNL     1      14.852  13.345  28.529  1.00  0.00     0.163 HD
HETATM   19  C7  UNL     1      16.626  11.238  26.740  1.00  0.00     0.284 C 
HETATM   20  O2  UNL     1      17.554  12.203  27.261  1.00  0.00    -0.288 OA
BRANCH  19  21
HETATM   21  O1  UNL     1      16.327  11.662  25.448  1.00  0.00    -0.369 OA
ATOM     22  H1  UNL     1      15.737  12.406  25.424  1.00  0.00     0.212 HD
ENDBRANCH  19  21
ENDBRANCH  13  15
ENDBRANCH  10  13
ENDBRANCH   3   9
BRANCH   1  23
HETATM   23  N3  UNL     1      15.475  21.301  28.747  1.00  0.00    -0.327 N 
HETATM   24  C1  UNL     1      16.091  22.072  29.793  1.00  0.00     0.481 C 
HETATM   25  N1  UNL     1      15.077  22.389  30.784  1.00  0.00    -0.033 N 
HETATM   26  N2  UNL     1      16.604  23.324  29.261  1.00  0.00    -0.033 N 
ATOM     27  H13 UNL     1      15.418  23.017  31.511  1.00  0.00     0.278 HD
ATOM     28  H12 UNL     1      14.342  22.993  30.417  1.00  0.00     0.278 HD
ATOM     29  H11 UNL     1      14.717  21.511  31.157  1.00  0.00     0.278 HD
ATOM     30  H23 UNL     1      15.869  23.928  28.894  1.00  0.00     0.278 HD
ATOM     31  H22 UNL     1      16.945  23.952  29.988  1.00  0.00     0.278 HD
ATOM     32  H21 UNL     1      17.316  23.102  28.565  1.00  0.00     0.278 HD
ATOM     33  H3  UNL     1      15.261  21.740  27.852  1.00  0.00     0.164 HD
ENDBRANCH   1  23
BRANCH   6  34
HETATM   34  N9  UNL     1      12.694  17.918  30.276  1.00  0.00    -0.161 N 
ATOM     35  H9  UNL     1      11.827  18.432  30.113  1.00  0.00     0.187 HD
BRANCH  34  36
HETATM   36  C9  UNL     1      12.676  16.778  31.116  1.00  0.00     0.190 C 
HETATM   37  N10 UNL     1      13.504  16.521  32.084  1.00  0.00    -0.360 N 
HETATM   38  C10 UNL     1      13.176  15.267  32.721  1.00  0.00     0.142 C 
ATOM     39  H10 UNL     1      14.281  17.123  32.357  1.00  0.00     0.162 HD
HETATM   40  C11 UNL     1      11.757  15.031  32.289  1.00  0.00     0.142 C 
HETATM   41  N11 UNL     1      11.713  15.725  31.008  1.00  0.00    -0.360 N 
ATOM     42  H11 UNL     1      11.122  15.507  30.207  1.00  0.00     0.162 HD
ENDBRANCH  34  36
ENDBRANCH   6  34
TORSDOF 7
ENDMDL
MODEL 3
REMARK VINA RESULT: -6.944060264      4.507      8.919
REMARK  7 active torsions:
REMARK  status: ('A' for Active; 'I' for Inactive)
REMARK       I    between atoms: N1_1  and  C1_5 
REMARK       I    between atoms: C1_5  and  N2_6 
REMARK       I    between atoms: C1_5  and  N3_10 
REMARK    1  A    between atoms: N3_10  and  C2_12 
REMARK    2  A    between atoms: C4_14  and  N4_15 
REMARK    3  A    between atoms: N5_17  and  N6_19 
REMARK    4  A    between atoms: N6_19  and  C5_21 
REMARK    5  A    between atoms: C7_25  and  O1_26 
REMARK    6  A    between atoms: C8_31  and  N9_32 
REMARK    7  A    between atoms: N9_32  and  C9_34 
ROOT
HETATM    1  C2  UNL     1      14.165  16.053  26.980  1.00  0.00     0.123 A 
HETATM    2  C3  UNL     1      14.875  14.962  27.491  1.00  0.00     0.099 A 
HETATM    3  C4  UNL     1      16.082  15.179  28.104  1.00  0.00     0.140 A 
HETATM    4  N8  UNL     1      16.581  16.414  28.216  1.00  0.00    -0.175 N 
ATOM      5  H8  UNL     1      17.481  16.554  28.676  1.00  0.00     0.186 HD
HETATM    6  C8  UNL     1      15.913  17.470  27.730  1.00  0.00     0.688 A 
HETATM    7  N12 UNL     1      14.731  17.263  27.128  1.00  0.00    -0.176 N 
ATOM      8  H12 UNL     1      14.232  18.074  26.762  1.00  0.00     0.186 HD
ENDROOT
BRANCH   3   9
HETATM    9  N4  UNL     1      16.788  14.037  28.620  1.00  0.00    -0.270 N 
HETATM   10  N5  UNL     1      17.618  13.490  27.835  1.00  0.00    -0.238 N 
ATOM     11  H5  UNL     1      17.743  13.874  26.899  1.00  0.00     0.208 HD
ATOM     12  H4  UNL     1      16.631  13.688  29.565  1.00  0.00     0.190 HD
BRANCH  10  13
HETATM   13  N6  UNL     1      18.358  12.384  28.214  1.00  0.00    -0.251 N 
ATOM     14  H6  UNL     1      19.360  12.484  28.383  1.00  0.00     0.192 HD
BRANCH  13  15
HETATM   15  C5  UNL     1      17.736  11.096  28.371  1.00  0.00     0.237 C 
HETATM   16  N7  UNL     1      18.205   9.967  28.012  1.00  0.00    -0.350 N 
HETATM   17  C6  UNL     1      17.262   8.927  28.356  1.00  0.00     0.184 C 
ATOM     18  H7  UNL     1      19.105   9.820  27.553  1.00  0.00     0.163 HD
HETATM   19  C7  UNL     1      16.391   9.573  29.388  1.00  0.00     0.284 C 
HETATM   20  O2  UNL     1      16.472  10.947  28.975  1.00  0.00    -0.288 OA
BRANCH  19  21
HETATM   21  O1  UNL     1      16.933   9.532  30.669  1.00  0.00    -0.369 OA
ATOM     22  H1  UNL     1      16.711  10.292  31.196  1.00  0.00     0.212 HD
ENDBRANCH  19  21
ENDBRANCH  13  15
ENDBRANCH  10  13
ENDBRANCH   3   9
BRANCH   1  23
HETATM   23  N3  UNL     1      13.031  15.846  26.403  1.00  0.00    -0.327 N 
HETATM   24  C1  UNL     1      11.873  16.610  26.783  1.00  0.00     0.481 C 
HETATM   25  N1  UNL     1      11.389  16.103  28.055  1.00  0.00    -0.033 N 
HETATM   26  N2  UNL     1      10.813  16.441  25.802  1.00  0.00    -0.033 N 
ATOM     27  H13 UNL     1      10.512  16.533  28.344  1.00  0.00     0.278 HD
ATOM     28  H12 UNL     1      11.056  15.141  27.995  1.00  0.00     0.278 HD
ATOM     29  H11 UNL     1      12.132  16.221  28.744  1.00  0.00     0.278 HD
ATOM     30  H23 UNL     1      10.479  15.479  25.742  1.00  0.00     0.278 HD
ATOM     31  H22 UNL     1       9.935  16.872  26.091  1.00  0.00     0.278 HD
ATOM     32  H21 UNL     1      11.152  16.797  24.908  1.00  0.00     0.278 HD
ATOM     33  H3  UNL     1      12.954  15.137  25.675  1.00  0.00     0.164 HD
ENDBRANCH   1  23
BRANCH   6  34
HETATM   34  N9  UNL     1      16.437  18.636  27.863  1.00  0.00    -0.161 N 
ATOM     35  H9  UNL     1      17.247  18.887  27.295  1.00  0.00     0.187 HD
BRANCH  34  36
HETATM   36  C9  UNL     1      15.915  19.581  28.780  1.00  0.00     0.190 C 
HETATM   37  N10 UNL     1      15.823  20.865  28.596  1.00  0.00    -0.360 N 
HETATM   38  C10 UNL     1      15.237  21.507  29.749  1.00  0.00     0.142 C 
ATOM     39  H10 UNL     1      16.124  21.352  27.752  1.00  0.00     0.162 HD
HETATM   40  C11 UNL     1      14.573  20.368  30.468  1.00  0.00     0.142 C 
HETATM   41  N11 UNL     1      15.401  19.237  30.070  1.00  0.00    -0.360 N 
ATOM     42  H11 UNL     1      15.576  18.383  30.598  1.00  0.00     0.162 HD
ENDBRANCH  34  36
ENDBRANCH   6  34
TORSDOF 7
ENDMDL
MODEL 4
REMARK VINA RESULT: -6.877332714      2.077      3.810
REMARK  7 active torsions:
REMARK  status: ('A' for Active; 'I' for Inactive)
REMARK       I    between atoms: N1_1  and  C1_5 
REMARK       I    between atoms: C1_5  and  N2_6 
REMARK       I    between atoms: C1_5  and  N3_10 
REMARK    1  A    between atoms: N3_10  and  C2_12 
REMARK    2  A    between atoms: C4_14  and  N4_15 
REMARK    3  A    between atoms: N5_17  and  N6_19 
REMARK    4  A    between atoms: N6_19  and  C5_21 
REMARK    5  A    between atoms: C7_25  and  O1_26 
REMARK    6  A    between atoms: C8_31  and  N9_32 
REMARK    7  A    between atoms: N9_32  and  C9_34 
ROOT
HETATM    1  C2  UNL     1      13.980  16.770  27.945  1.00  0.00     0.123 A 
HETATM    2  C3  UNL     1      14.323  18.124  27.887  1.00  0.00     0.099 A 
HETATM    3  C4  UNL     1      14.747  18.756  29.027  1.00  0.00     0.140 A 
HETATM    4  N8  UNL     1      14.835  18.093  30.184  1.00  0.00    -0.175 N 
ATOM      5  H8  UNL     1      15.153  18.581  31.021  1.00  0.00     0.186 HD
HETATM    6  C8  UNL     1      14.510  16.794  30.257  1.00  0.00     0.688 A 
HETATM    7  N12 UNL     1      14.093  16.171  29.143  1.00  0.00    -0.176 N 
ATOM      8  H12 UNL     1      13.847  15.183  29.210  1.00  0.00     0.186 HD
ENDROOT
BRANCH   3   9
HETATM    9  N4  UNL     1      15.093  20.149  28.934  1.00  0.00    -0.270 N 
HETATM   10  N5  UNL     1      15.874  20.593  29.826  1.00  0.00    -0.238 N 
ATOM     11  H5  UNL     1      16.214  19.958  30.549  1.00  0.00     0.208 HD
ATOM     12  H4  UNL     1      14.729  20.746  28.192  1.00  0.00     0.190 HD
BRANCH  10  13
HETATM   13  N6  UNL     1      16.281  21.915  29.846  1.00  0.00    -0.251 N 
ATOM     14  H6  UNL     1      17.276  22.136  29.792  1.00  0.00     0.192 HD
BRANCH  13  15
HETATM   15  C5  UNL     1      15.320  22.982  29.944  1.00  0.00     0.237 C 
HETATM   16  N7  UNL     1      15.549  24.233  29.853  1.00  0.00    -0.350 N 
HETATM   17  C6  UNL     1      14.308  24.957  30.008  1.00  0.00     0.184 C 
ATOM     18  H7  UNL     1      16.464  24.655  29.696  1.00  0.00     0.163 HD
HETATM   19  C7  UNL     1      13.263  23.921  29.733  1.00  0.00     0.284 C 
HETATM   20  O2  UNL     1      13.951  22.735  30.162  1.00  0.00    -0.288 OA
BRANCH  19  21
HETATM   21  O1  UNL     1      13.010  23.741  28.376  1.00  0.00    -0.369 OA
ATOM     22  H1  UNL     1      12.086  23.773  28.159  1.00  0.00     0.212 HD
ENDBRANCH  19  21
ENDBRANCH  13  15
ENDBRANCH  10  13
ENDBRANCH   3   9
BRANCH   1  23
HETATM   23  N3  UNL     1      13.581  16.178  26.871  1.00  0.00    -0.327 N 
HETATM   24  C1  UNL     1      12.200  16.243  26.476  1.00  0.00     0.481 C 
HETATM   25  N1  UNL     1      11.439  15.346  27.327  1.00  0.00    -0.033 N 
HETATM   26  N2  UNL     1      12.047  15.795  25.101  1.00  0.00    -0.033 N 
ATOM     27  H13 UNL     1      10.462  15.266  27.044  1.00  0.00     0.278 HD
ATOM     28  H12 UNL     1      11.697  14.368  27.199  1.00  0.00     0.278 HD
ATOM     29  H11 UNL     1      11.546  15.660  28.291  1.00  0.00     0.278 HD
ATOM     30  H23 UNL     1      12.306  14.816  24.974  1.00  0.00     0.278 HD
ATOM     31  H22 UNL     1      11.071  15.715  24.818  1.00  0.00     0.278 HD
ATOM     32  H21 UNL     1      12.581  16.425  24.503  1.00  0.00     0.278 HD
ATOM     33  H3  UNL     1      14.248  15.661  26.299  1.00  0.00     0.164 HD
ENDBRANCH   1  23
BRANCH   6  34
HETATM   34  N9  UNL     1      14.611  16.203  31.394  1.00  0.00    -0.161 N 
ATOM     35  H9  UNL     1      15.538  16.008  31.774  1.00  0.00     0.187 HD
BRANCH  34  36
HETATM   36  C9  UNL     1      13.465  15.818  32.131  1.00  0.00     0.190 C 
HETATM   37  N10 UNL     1      12.226  16.035  31.800  1.00  0.00    -0.360 N 
HETATM   38  C10 UNL     1      11.328  15.497  32.794  1.00  0.00     0.142 C 
ATOM     39  H10 UNL     1      11.929  16.519  30.953  1.00  0.00     0.162 HD
HETATM   40  C11 UNL     1      12.195  14.526  33.543  1.00  0.00     0.142 C 
HETATM   41  N11 UNL     1      13.518  15.115  33.375  1.00  0.00    -0.360 N 
ATOM     42  H11 UNL     1      14.313  15.041  34.010  1.00  0.00     0.162 HD
ENDBRANCH  34  36
ENDBRANCH   6  34
TORSDOF 7
ENDMDL
MODEL 5
REMARK VINA RESULT: -6.832285977      4.527      8.751
REMARK  7 active torsions:
REMARK  status: ('A' for Active; 'I' for Inactive)
REMARK       I    between atoms: N1_1  and  C1_5 
REMARK       I    between atoms: C1_5  and  N2_6 
REMARK       I    between atoms: C1_5  and  N3_10 
REMARK    1  A    between atoms: N3_10  and  C2_12 
REMARK    2  A    between atoms: C4_14  and  N4_15 
REMARK    3  A    between atoms: N5_17  and  N6_19 
REMARK    4  A    between atoms: N6_19  and  C5_21 
REMARK    5  A    between atoms: C7_25  and  O1_26 
REMARK    6  A    between atoms: C8_31  and  N9_32 
REMARK    7  A    between atoms: N9_32  and  C9_34 
ROOT
HETATM    1  C2  UNL     1      13.532  16.995  27.531  1.00  0.00     0.123 A 
HETATM    2  C3  UNL     1      14.665  16.186  27.397  1.00  0.00     0.099 A 
HETATM    3  C4  UNL     1      15.729  16.382  28.239  1.00  0.00     0.140 A 
HETATM    4  N8  UNL     1      15.692  17.331  29.178  1.00  0.00    -0.175 N 
ATOM      5  H8  UNL     1      16.494  17.461  29.795  1.00  0.00     0.186 HD
HETATM    6  C8  UNL     1      14.613  18.115  29.320  1.00  0.00     0.688 A 
HETATM    7  N12 UNL     1      13.569  17.928  28.498  1.00  0.00    -0.176 N 
ATOM      8  H12 UNL     1      12.754  18.530  28.613  1.00  0.00     0.186 HD
ENDROOT
BRANCH   3   9
HETATM    9  N4  UNL     1      16.880  15.534  28.076  1.00  0.00    -0.270 N 
HETATM   10  N5  UNL     1      16.788  14.366  28.555  1.00  0.00    -0.238 N 
ATOM     11  H5  UNL     1      15.924  14.088  29.021  1.00  0.00     0.208 HD
ATOM     12  H4  UNL     1      17.723  15.856  27.601  1.00  0.00     0.190 HD
BRANCH  10  13
HETATM   13  N6  UNL     1      17.826  13.457  28.463  1.00  0.00    -0.251 N 
ATOM     14  H6  UNL     1      18.780  13.762  28.656  1.00  0.00     0.192 HD
BRANCH  13  15
HETATM   15  C5  UNL     1      17.578  12.086  28.099  1.00  0.00     0.237 C 
HETATM   16  N7  UNL     1      16.856  11.666  27.137  1.00  0.00    -0.350 N 
HETATM   17  C6  UNL     1      16.876  10.221  27.121  1.00  0.00     0.184 C 
ATOM     18  H7  UNL     1      16.344  12.256  26.481  1.00  0.00     0.163 HD
HETATM   19  C7  UNL     1      18.091   9.880  27.927  1.00  0.00     0.284 C 
HETATM   20  O2  UNL     1      18.144  11.011  28.811  1.00  0.00    -0.288 OA
BRANCH  19  21
HETATM   21  O1  UNL     1      19.270   9.923  27.189  1.00  0.00    -0.369 OA
ATOM     22  H1  UNL     1      20.003   9.507  27.628  1.00  0.00     0.212 HD
ENDBRANCH  19  21
ENDBRANCH  13  15
ENDBRANCH  10  13
ENDBRANCH   3   9
BRANCH   1  23
HETATM   23  N3  UNL     1      12.533  16.808  26.738  1.00  0.00    -0.327 N 
HETATM   24  C1  UNL     1      11.197  16.708  27.262  1.00  0.00     0.481 C 
HETATM   25  N1  UNL     1      11.042  15.397  27.867  1.00  0.00    -0.033 N 
HETATM   26  N2  UNL     1      10.224  16.824  26.188  1.00  0.00    -0.033 N 
ATOM     27  H13 UNL     1      10.088  15.216  28.177  1.00  0.00     0.278 HD
ATOM     28  H12 UNL     1      11.110  14.639  27.188  1.00  0.00     0.278 HD
ATOM     29  H11 UNL     1      11.724  15.315  28.620  1.00  0.00     0.278 HD
ATOM     30  H23 UNL     1      10.292  16.066  25.509  1.00  0.00     0.278 HD
ATOM     31  H22 UNL     1       9.270  16.643  26.498  1.00  0.00     0.278 HD
ATOM     32  H21 UNL     1      10.333  17.745  25.763  1.00  0.00     0.278 HD
ATOM     33  H3  UNL     1      12.691  16.730  25.733  1.00  0.00     0.164 HD
ENDBRANCH   1  23
BRANCH   6  34
HETATM   34  N9  UNL     1      14.629  19.014  30.239  1.00  0.00    -0.161 N 
ATOM     35  H9  UNL     1      14.510  18.733  31.213  1.00  0.00     0.187 HD
BRANCH  34  36
HETATM   36  C9  UNL     1      14.808  20.384  29.929  1.00  0.00     0.190 C 
HETATM   37  N10 UNL     1      13.872  21.281  29.831  1.00  0.00    -0.360 N 
HETATM   38  C10 UNL     1      14.430  22.571  29.501  1.00  0.00     0.142 C 
ATOM     39  H10 UNL     1      12.878  21.098  29.968  1.00  0.00     0.162 HD
HETATM   40  C11 UNL     1      15.879  22.414  29.864  1.00  0.00     0.142 C 
HETATM   41  N11 UNL     1      16.082  20.983  29.677  1.00  0.00    -0.360 N 
ATOM     42  H11 UNL     1      16.948  20.509  29.420  1.00  0.00     0.162 HD
ENDBRANCH  34  36
ENDBRANCH   6  34
TORSDOF 7
ENDMDL
