MODEL 1
REMARK VINA RESULT: -6.082633180      0.000      0.000
REMARK  6 active torsions:
REMARK  status: ('A' for Active; 'I' for Inactive)
REMARK    1  A    between atoms: C2_2  and  N1_4 
REMARK    2  A    between atoms: N1_4  and  C4_5 
REMARK    3  A    between atoms: N1_4  and  C12_17 
REMARK    4  A    between atoms: C4_5  and  C6_7 
REMARK       I    between atoms: C6_7  and  N2_9 
REMARK    5  A    between atoms: N2_9  and  C7_11 
REMARK    6  A    between atoms: C7_11  and  C8_12 
ROOT
HETATM    1  C4  UNL     1      36.150  69.965  20.495  1.00  0.00     0.168 C 
HETATM    2  C5  UNL     1      37.617  70.266  20.579  1.00  0.00     0.042 C 
ENDROOT
BRANCH   1   3
HETATM    3  N1  UNL     1      35.655  68.983  19.679  1.00  0.00    -0.389 N 
BRANCH   3   4
HETATM    4  C2  UNL     1      35.044  69.480  18.454  1.00  0.00     0.072 C 
HETATM    5  C1  UNL     1      33.648  70.031  18.664  1.00  0.00     0.031 C 
HETATM    6  C3  UNL     1      35.831  70.637  17.844  1.00  0.00     0.031 C 
ENDBRANCH   3   4
BRANCH   3   7
HETATM    7  C12 UNL     1      35.886  67.619  19.659  1.00  0.00     0.018 C 
HETATM    8  C13 UNL     1      34.625  66.922  20.263  1.00  0.00     0.037 C 
HETATM    9  C14 UNL     1      35.851  67.019  18.224  1.00  0.00     0.037 C 
HETATM   10  C15 UNL     1      37.112  67.040  20.279  1.00  0.00     0.037 C 
ENDBRANCH   3   7
ENDBRANCH   1   3
BRANCH   1  11
HETATM   11  C6  UNL     1      35.701  69.931  21.903  1.00  0.00     0.240 C 
HETATM   12  O1  UNL     1      36.535  69.666  22.795  1.00  0.00    -0.271 OA
HETATM   13  N2  UNL     1      34.378  70.184  22.263  1.00  0.00    -0.353 N 
ATOM     14  H2  UNL     1      33.720  70.369  21.506  1.00  0.00     0.162 HD
BRANCH  13  15
HETATM   15  C7  UNL     1      33.858  70.208  23.598  1.00  0.00     0.187 C 
BRANCH  15  16
HETATM   16  C8  UNL     1      33.396  71.540  24.059  1.00  0.00     0.070 A 
HETATM   17  C9  UNL     1      32.274  72.216  23.554  1.00  0.00     0.036 A 
HETATM   18  C10 UNL     1      32.166  73.410  24.223  1.00  0.00     0.027 A 
HETATM   19  C11 UNL     1      33.214  73.426  25.106  1.00  0.00     0.142 A 
HETATM   20  O2  UNL     1      33.912  72.306  24.976  1.00  0.00    -0.325 OA
ENDBRANCH  15  16
ENDBRANCH  13  15
ENDBRANCH   1  11
TORSDOF 6
ENDMDL
MODEL 2
REMARK VINA RESULT: -5.952539951      1.076      1.838
REMARK  6 active torsions:
REMARK  status: ('A' for Active; 'I' for Inactive)
REMARK    1  A    between atoms: C2_2  and  N1_4 
REMARK    2  A    between atoms: N1_4  and  C4_5 
REMARK    3  A    between atoms: N1_4  and  C12_17 
REMARK    4  A    between atoms: C4_5  and  C6_7 
REMARK       I    between atoms: C6_7  and  N2_9 
REMARK    5  A    between atoms: N2_9  and  C7_11 
REMARK    6  A    between atoms: C7_11  and  C8_12 
ROOT
HETATM    1  C4  UNL     1      36.731  69.593  20.817  1.00  0.00     0.168 C 
HETATM    2  C5  UNL     1      37.476  68.291  20.812  1.00  0.00     0.042 C 
ENDROOT
BRANCH   1   3
HETATM    3  N1  UNL     1      36.043  70.041  19.721  1.00  0.00    -0.389 N 
BRANCH   3   4
HETATM    4  C2  UNL     1      36.314  71.430  19.377  1.00  0.00     0.072 C 
HETATM    5  C1  UNL     1      35.478  72.415  20.170  1.00  0.00     0.031 C 
HETATM    6  C3  UNL     1      37.759  71.826  19.667  1.00  0.00     0.031 C 
ENDBRANCH   3   4
BRANCH   3   7
HETATM    7  C12 UNL     1      35.381  69.351  18.721  1.00  0.00     0.018 C 
HETATM    8  C13 UNL     1      33.848  69.536  18.964  1.00  0.00     0.037 C 
HETATM    9  C14 UNL     1      35.507  70.032  17.328  1.00  0.00     0.037 C 
HETATM   10  C15 UNL     1      35.667  67.911  18.464  1.00  0.00     0.037 C 
ENDBRANCH   3   7
ENDBRANCH   1   3
BRANCH   1  11
HETATM   11  C6  UNL     1      35.987  69.586  22.095  1.00  0.00     0.240 C 
HETATM   12  O1  UNL     1      36.631  69.551  23.166  1.00  0.00    -0.271 OA
HETATM   13  N2  UNL     1      34.594  69.616  22.140  1.00  0.00    -0.353 N 
ATOM     14  H2  UNL     1      34.103  69.616  21.246  1.00  0.00     0.162 HD
BRANCH  13  15
HETATM   15  C7  UNL     1      33.790  69.648  23.325  1.00  0.00     0.187 C 
BRANCH  15  16
HETATM   16  C8  UNL     1      33.473  71.010  23.822  1.00  0.00     0.070 A 
HETATM   17  C9  UNL     1      32.415  71.805  23.354  1.00  0.00     0.036 A 
HETATM   18  C10 UNL     1      32.441  72.989  24.050  1.00  0.00     0.027 A 
HETATM   19  C11 UNL     1      33.501  72.880  24.911  1.00  0.00     0.142 A 
HETATM   20  O2  UNL     1      34.080  71.700  24.743  1.00  0.00    -0.325 OA
ENDBRANCH  15  16
ENDBRANCH  13  15
ENDBRANCH   1  11
TORSDOF 6
ENDMDL
MODEL 3
REMARK VINA RESULT: -5.907279446      1.435      3.014
REMARK  6 active torsions:
REMARK  status: ('A' for Active; 'I' for Inactive)
REMARK    1  A    between atoms: C2_2  and  N1_4 
REMARK    2  A    between atoms: N1_4  and  C4_5 
REMARK    3  A    between atoms: N1_4  and  C12_17 
REMARK    4  A    between atoms: C4_5  and  C6_7 
REMARK       I    between atoms: C6_7  and  N2_9 
REMARK    5  A    between atoms: N2_9  and  C7_11 
REMARK    6  A    between atoms: C7_11  and  C8_12 
ROOT
HETATM    1  C4  UNL     1      35.066  69.533  20.825  1.00  0.00     0.168 C 
HETATM    2  C5  UNL     1      33.799  69.796  20.067  1.00  0.00     0.042 C 
ENDROOT
BRANCH   1   3
HETATM    3  N1  UNL     1      36.301  69.777  20.284  1.00  0.00    -0.389 N 
BRANCH   3   4
HETATM    4  C2  UNL     1      37.052  68.575  19.952  1.00  0.00     0.072 C 
HETATM    5  C1  UNL     1      37.413  67.742  21.166  1.00  0.00     0.031 C 
HETATM    6  C3  UNL     1      36.260  67.628  19.053  1.00  0.00     0.031 C 
ENDBRANCH   3   4
BRANCH   3   7
HETATM    7  C12 UNL     1      36.837  70.926  19.728  1.00  0.00     0.018 C 
HETATM    8  C13 UNL     1      38.385  70.863  19.931  1.00  0.00     0.037 C 
HETATM    9  C14 UNL     1      36.778  70.932  18.174  1.00  0.00     0.037 C 
HETATM   10  C15 UNL     1      36.344  72.274  20.130  1.00  0.00     0.037 C 
ENDBRANCH   3   7
ENDBRANCH   1   3
BRANCH   1  11
HETATM   11  C6  UNL     1      34.818  70.105  22.165  1.00  0.00     0.240 C 
HETATM   12  O1  UNL     1      35.707  70.001  23.038  1.00  0.00    -0.271 OA
HETATM   13  N2  UNL     1      33.626  70.753  22.484  1.00  0.00    -0.353 N 
ATOM     14  H2  UNL     1      32.913  70.794  21.756  1.00  0.00     0.162 HD
BRANCH  13  15
HETATM   15  C7  UNL     1      33.310  71.367  23.739  1.00  0.00     0.187 C 
BRANCH  15  16
HETATM   16  C8  UNL     1      33.040  72.824  23.666  1.00  0.00     0.070 A 
HETATM   17  C9  UNL     1      33.756  73.729  22.865  1.00  0.00     0.036 A 
HETATM   18  C10 UNL     1      33.220  74.978  23.062  1.00  0.00     0.027 A 
HETATM   19  C11 UNL     1      32.205  74.798  23.966  1.00  0.00     0.142 A 
HETATM   20  O2  UNL     1      32.135  73.516  24.294  1.00  0.00    -0.325 OA
ENDBRANCH  15  16
ENDBRANCH  13  15
ENDBRANCH   1  11
TORSDOF 6
ENDMDL
MODEL 4
REMARK VINA RESULT: -5.823303493      3.634      5.551
REMARK  6 active torsions:
REMARK  status: ('A' for Active; 'I' for Inactive)
REMARK    1  A    between atoms: C2_2  and  N1_4 
REMARK    2  A    between atoms: N1_4  and  C4_5 
REMARK    3  A    between atoms: N1_4  and  C12_17 
REMARK    4  A    between atoms: C4_5  and  C6_7 
REMARK       I    between atoms: C6_7  and  N2_9 
REMARK    5  A    between atoms: N2_9  and  C7_11 
REMARK    6  A    between atoms: C7_11  and  C8_12 
ROOT
HETATM    1  C4  UNL     1      33.130  72.332  22.188  1.00  0.00     0.168 C 
HETATM    2  C5  UNL     1      32.068  71.621  22.974  1.00  0.00     0.042 C 
ENDROOT
BRANCH   1   3
HETATM    3  N1  UNL     1      33.135  72.344  20.819  1.00  0.00    -0.389 N 
BRANCH   3   4
HETATM    4  C2  UNL     1      34.207  71.561  20.221  1.00  0.00     0.072 C 
HETATM    5  C1  UNL     1      35.548  72.267  20.246  1.00  0.00     0.031 C 
HETATM    6  C3  UNL     1      34.445  70.248  20.963  1.00  0.00     0.031 C 
ENDBRANCH   3   4
BRANCH   3   7
HETATM    7  C12 UNL     1      32.156  72.709  19.911  1.00  0.00     0.018 C 
HETATM    8  C13 UNL     1      32.636  74.022  19.210  1.00  0.00     0.037 C 
HETATM    9  C14 UNL     1      32.090  71.765  18.677  1.00  0.00     0.037 C 
HETATM   10  C15 UNL     1      30.737  72.872  20.338  1.00  0.00     0.037 C 
ENDBRANCH   3   7
ENDBRANCH   1   3
BRANCH   1  11
HETATM   11  C6  UNL     1      33.260  73.646  22.852  1.00  0.00     0.240 C 
HETATM   12  O1  UNL     1      34.404  74.081  23.108  1.00  0.00    -0.271 OA
HETATM   13  N2  UNL     1      32.148  74.413  23.199  1.00  0.00    -0.353 N 
ATOM     14  H2  UNL     1      31.231  74.014  22.999  1.00  0.00     0.162 HD
BRANCH  13  15
HETATM   15  C7  UNL     1      32.175  75.708  23.810  1.00  0.00     0.187 C 
BRANCH  15  16
HETATM   16  C8  UNL     1      31.954  76.839  22.874  1.00  0.00     0.070 A 
HETATM   17  C9  UNL     1      32.019  76.742  21.475  1.00  0.00     0.036 A 
HETATM   18  C10 UNL     1      31.759  77.987  20.956  1.00  0.00     0.027 A 
HETATM   19  C11 UNL     1      31.546  78.795  22.042  1.00  0.00     0.142 A 
HETATM   20  O2  UNL     1      31.671  78.079  23.151  1.00  0.00    -0.325 OA
ENDBRANCH  15  16
ENDBRANCH  13  15
ENDBRANCH   1  11
TORSDOF 6
ENDMDL
MODEL 5
REMARK VINA RESULT: -5.778488803      1.242      2.815
REMARK  6 active torsions:
REMARK  status: ('A' for Active; 'I' for Inactive)
REMARK    1  A    between atoms: C2_2  and  N1_4 
REMARK    2  A    between atoms: N1_4  and  C4_5 
REMARK    3  A    between atoms: N1_4  and  C12_17 
REMARK    4  A    between atoms: C4_5  and  C6_7 
REMARK       I    between atoms: C6_7  and  N2_9 
REMARK    5  A    between atoms: N2_9  and  C7_11 
REMARK    6  A    between atoms: C7_11  and  C8_12 
ROOT
HETATM    1  C4  UNL     1      35.133  68.666  21.321  1.00  0.00     0.168 C 
HETATM    2  C5  UNL     1      33.856  67.880  21.308  1.00  0.00     0.042 C 
ENDROOT
BRANCH   1   3
HETATM    3  N1  UNL     1      35.631  69.264  20.194  1.00  0.00    -0.389 N 
BRANCH   3   4
HETATM    4  C2  UNL     1      36.700  68.514  19.547  1.00  0.00     0.072 C 
HETATM    5  C1  UNL     1      37.832  68.156  20.489  1.00  0.00     0.031 C 
HETATM    6  C3  UNL     1      36.215  67.176  18.995  1.00  0.00     0.031 C 
ENDBRANCH   3   4
BRANCH   3   7
HETATM    7  C12 UNL     1      35.119  70.276  19.402  1.00  0.00     0.018 C 
HETATM    8  C13 UNL     1      35.603  71.633  20.008  1.00  0.00     0.037 C 
HETATM    9  C14 UNL     1      35.800  70.358  18.006  1.00  0.00     0.037 C 
HETATM   10  C15 UNL     1      33.659  70.360  19.115  1.00  0.00     0.037 C 
ENDBRANCH   3   7
ENDBRANCH   1   3
BRANCH   1  11
HETATM   11  C6  UNL     1      35.023  69.526  22.519  1.00  0.00     0.240 C 
HETATM   12  O1  UNL     1      36.066  69.854  23.123  1.00  0.00    -0.271 OA
HETATM   13  N2  UNL     1      33.792  69.980  22.992  1.00  0.00    -0.353 N 
ATOM     14  H2  UNL     1      32.961  69.669  22.490  1.00  0.00     0.162 HD
BRANCH  13  15
HETATM   15  C7  UNL     1      33.588  70.841  24.118  1.00  0.00     0.187 C 
BRANCH  15  16
HETATM   16  C8  UNL     1      33.464  72.281  23.782  1.00  0.00     0.070 A 
HETATM   17  C9  UNL     1      32.550  73.164  24.378  1.00  0.00     0.036 A 
HETATM   18  C10 UNL     1      32.733  74.403  23.812  1.00  0.00     0.027 A 
HETATM   19  C11 UNL     1      33.743  74.238  22.900  1.00  0.00     0.142 A 
HETATM   20  O2  UNL     1      34.143  72.975  22.915  1.00  0.00    -0.325 OA
ENDBRANCH  15  16
ENDBRANCH  13  15
ENDBRANCH   1  11
TORSDOF 6
ENDMDL
