MODEL 1
REMARK VINA RESULT: -7.265358947      0.000      0.000
REMARK  5 active torsions:
REMARK  status: ('A' for Active; 'I' for Inactive)
REMARK       I    between atoms: C2_2  and  N1_4 
REMARK    1  A    between atoms: N1_4  and  C3_6 
REMARK    2  A    between atoms: C3_6  and  O2_7 
REMARK    3  A    between atoms: C3_6  and  C4_9 
REMARK       I    between atoms: C4_9  and  N2_11 
REMARK    4  A    between atoms: N2_11  and  N3_13 
REMARK       I    between atoms: N3_13  and  C5_15 
REMARK       I    between atoms: C5_15  and  N4_17 
REMARK    5  A    between atoms: N4_17  and  C6_19 
ROOT
HETATM    1  N3  UNL     1       3.053  17.664  27.125  1.00  0.00    -0.249 N 
ATOM      2  H3  UNL     1       3.852  17.084  27.379  1.00  0.00     0.192 HD
HETATM    3  C5  UNL     1       3.149  18.250  25.860  1.00  0.00     0.335 C 
HETATM    4  O4  UNL     1       2.307  18.994  25.369  1.00  0.00    -0.246 OA
HETATM    5  N4  UNL     1       4.304  17.969  25.079  1.00  0.00    -0.336 N 
ATOM      6  H4  UNL     1       5.028  17.355  25.453  1.00  0.00     0.164 HD
ENDROOT
BRANCH   1   7
HETATM    7  N2  UNL     1       2.081  17.728  28.082  1.00  0.00    -0.259 N 
HETATM    8  C4  UNL     1       1.016  16.844  28.407  1.00  0.00     0.311 C 
HETATM    9  O3  UNL     1       0.802  15.789  27.795  1.00  0.00    -0.262 OA
ATOM     10  H2  UNL     1       2.128  18.560  28.670  1.00  0.00     0.190 HD
BRANCH   8  11
HETATM   11  C3  UNL     1       0.161  17.227  29.511  1.00  0.00     0.214 C 
BRANCH  11  12
HETATM   12  N1  UNL     1      -1.154  16.921  29.767  1.00  0.00    -0.303 N 
HETATM   13  C2  UNL     1      -2.059  17.461  30.676  1.00  0.00     0.219 C 
HETATM   14  C1  UNL     1      -3.470  16.892  30.673  1.00  0.00     0.117 C 
HETATM   15  O1  UNL     1      -1.830  18.360  31.491  1.00  0.00    -0.274 OA
ATOM     16  H1  UNL     1      -1.532  16.169  29.191  1.00  0.00     0.171 HD
ENDBRANCH  11  12
BRANCH  11  17
HETATM   17  O2  UNL     1       0.773  17.993  30.398  1.00  0.00    -0.342 OA
ATOM     18  H2  UNL     1       1.673  18.230  30.206  1.00  0.00     0.219 HD
ENDBRANCH  11  17
ENDBRANCH   8  11
ENDBRANCH   1   7
BRANCH   5  19
HETATM   19  C6  UNL     1       4.462  18.533  23.782  1.00  0.00     0.112 C 
HETATM   20  C7  UNL     1       5.795  19.157  23.559  1.00  0.00     0.028 C 
HETATM   21  C8  UNL     1       6.176  18.929  22.117  1.00  0.00     0.029 C 
HETATM   22  C9  UNL     1       4.977  19.007  21.197  1.00  0.00     0.232 C 
HETATM   23  N5  UNL     1       3.955  18.050  21.500  1.00  0.00    -0.073 N 
HETATM   24  C10 UNL     1       4.226  17.398  22.773  1.00  0.00     0.257 C 
ATOM     25  H52 UNL     1       3.026  18.469  21.479  1.00  0.00     0.277 HD
ATOM     26  H51 UNL     1       3.834  17.373  20.746  1.00  0.00     0.277 HD
ENDBRANCH   5  19
TORSDOF 5
ENDMDL
MODEL 2
REMARK VINA RESULT: -7.044184245      3.524      9.271
REMARK  5 active torsions:
REMARK  status: ('A' for Active; 'I' for Inactive)
REMARK       I    between atoms: C2_2  and  N1_4 
REMARK    1  A    between atoms: N1_4  and  C3_6 
REMARK    2  A    between atoms: C3_6  and  O2_7 
REMARK    3  A    between atoms: C3_6  and  C4_9 
REMARK       I    between atoms: C4_9  and  N2_11 
REMARK    4  A    between atoms: N2_11  and  N3_13 
REMARK       I    between atoms: N3_13  and  C5_15 
REMARK       I    between atoms: C5_15  and  N4_17 
REMARK    5  A    between atoms: N4_17  and  C6_19 
ROOT
HETATM    1  N3  UNL     1       4.790  17.508  23.616  1.00  0.00    -0.249 N 
ATOM      2  H3  UNL     1       4.926  16.498  23.658  1.00  0.00     0.192 HD
HETATM    3  C5  UNL     1       3.860  17.999  24.537  1.00  0.00     0.335 C 
HETATM    4  O4  UNL     1       3.539  19.177  24.644  1.00  0.00    -0.246 OA
HETATM    5  N4  UNL     1       3.239  17.072  25.418  1.00  0.00    -0.336 N 
ATOM      6  H4  UNL     1       3.479  16.082  25.360  1.00  0.00     0.164 HD
ENDROOT
BRANCH   1   7
HETATM    7  N2  UNL     1       5.548  18.137  22.671  1.00  0.00    -0.259 N 
HETATM    8  C4  UNL     1       6.856  18.693  22.726  1.00  0.00     0.311 C 
HETATM    9  O3  UNL     1       7.552  18.684  23.751  1.00  0.00    -0.262 OA
ATOM     10  H2  UNL     1       5.096  18.223  21.761  1.00  0.00     0.190 HD
BRANCH   8  11
HETATM   11  C3  UNL     1       7.367  19.288  21.509  1.00  0.00     0.214 C 
BRANCH  11  12
HETATM   12  N1  UNL     1       6.709  19.936  20.491  1.00  0.00    -0.303 N 
HETATM   13  C2  UNL     1       7.185  20.741  19.461  1.00  0.00     0.219 C 
HETATM   14  C1  UNL     1       6.164  21.284  18.473  1.00  0.00     0.117 C 
HETATM   15  O1  UNL     1       8.362  21.064  19.267  1.00  0.00    -0.274 OA
ATOM     16  H1  UNL     1       5.698  19.803  20.489  1.00  0.00     0.171 HD
ENDBRANCH  11  12
BRANCH  11  17
HETATM   17  O2  UNL     1       8.678  19.172  21.387  1.00  0.00    -0.342 OA
ATOM     18  H2  UNL     1       9.122  19.857  20.901  1.00  0.00     0.219 HD
ENDBRANCH  11  17
ENDBRANCH   8  11
ENDBRANCH   1   7
BRANCH   5  19
HETATM   19  C6  UNL     1       2.285  17.508  26.380  1.00  0.00     0.112 C 
HETATM   20  C7  UNL     1       1.499  16.399  26.989  1.00  0.00     0.028 C 
HETATM   21  C8  UNL     1       1.227  16.763  28.428  1.00  0.00     0.029 C 
HETATM   22  C9  UNL     1       0.979  18.246  28.599  1.00  0.00     0.232 C 
HETATM   23  N5  UNL     1       2.075  19.065  28.177  1.00  0.00    -0.073 N 
HETATM   24  C10 UNL     1       3.064  18.270  27.463  1.00  0.00     0.257 C 
ATOM     25  H52 UNL     1       1.761  19.862  27.624  1.00  0.00     0.277 HD
ATOM     26  H51 UNL     1       2.490  19.575  28.958  1.00  0.00     0.277 HD
ENDBRANCH   5  19
TORSDOF 5
ENDMDL
MODEL 3
REMARK VINA RESULT: -7.037336532      3.441      8.716
REMARK  5 active torsions:
REMARK  status: ('A' for Active; 'I' for Inactive)
REMARK       I    between atoms: C2_2  and  N1_4 
REMARK    1  A    between atoms: N1_4  and  C3_6 
REMARK    2  A    between atoms: C3_6  and  O2_7 
REMARK    3  A    between atoms: C3_6  and  C4_9 
REMARK       I    between atoms: C4_9  and  N2_11 
REMARK    4  A    between atoms: N2_11  and  N3_13 
REMARK       I    between atoms: N3_13  and  C5_15 
REMARK       I    between atoms: C5_15  and  N4_17 
REMARK    5  A    between atoms: N4_17  and  C6_19 
ROOT
HETATM    1  N3  UNL     1       4.691  17.363  23.687  1.00  0.00    -0.249 N 
ATOM      2  H3  UNL     1       4.909  16.376  23.824  1.00  0.00     0.192 HD
HETATM    3  C5  UNL     1       3.735  17.867  24.572  1.00  0.00     0.335 C 
HETATM    4  O4  UNL     1       3.320  19.021  24.568  1.00  0.00    -0.246 OA
HETATM    5  N4  UNL     1       3.199  16.986  25.550  1.00  0.00    -0.336 N 
ATOM      6  H4  UNL     1       3.518  16.018  25.584  1.00  0.00     0.164 HD
ENDROOT
BRANCH   1   7
HETATM    7  N2  UNL     1       5.387  17.953  22.671  1.00  0.00    -0.259 N 
HETATM    8  C4  UNL     1       6.500  18.838  22.678  1.00  0.00     0.311 C 
HETATM    9  O3  UNL     1       7.039  19.238  23.719  1.00  0.00    -0.262 OA
ATOM     10  H2  UNL     1       5.048  17.716  21.738  1.00  0.00     0.190 HD
BRANCH   8  11
HETATM   11  C3  UNL     1       7.001  19.271  21.390  1.00  0.00     0.214 C 
BRANCH  11  12
HETATM   12  N1  UNL     1       6.470  20.153  20.479  1.00  0.00    -0.303 N 
HETATM   13  C2  UNL     1       5.164  20.331  20.033  1.00  0.00     0.219 C 
HETATM   14  C1  UNL     1       4.921  21.440  19.020  1.00  0.00     0.117 C 
HETATM   15  O1  UNL     1       4.175  19.677  20.379  1.00  0.00    -0.274 OA
ATOM     16  H1  UNL     1       7.150  20.785  20.057  1.00  0.00     0.171 HD
ENDBRANCH  11  12
BRANCH  11  17
HETATM   17  O2  UNL     1       8.154  18.711  21.069  1.00  0.00    -0.342 OA
ATOM     18  H2  UNL     1       8.691  18.400  21.789  1.00  0.00     0.219 HD
ENDBRANCH  11  17
ENDBRANCH   8  11
ENDBRANCH   1   7
BRANCH   5  19
HETATM   19  C6  UNL     1       2.223  17.438  26.482  1.00  0.00     0.112 C 
HETATM   20  C7  UNL     1       1.461  16.336  27.132  1.00  0.00     0.028 C 
HETATM   21  C8  UNL     1       1.163  16.757  28.551  1.00  0.00     0.029 C 
HETATM   22  C9  UNL     1       0.873  18.239  28.652  1.00  0.00     0.232 C 
HETATM   23  N5  UNL     1       1.950  19.068  28.204  1.00  0.00    -0.073 N 
HETATM   24  C10 UNL     1       2.968  18.269  27.537  1.00  0.00     0.257 C 
ATOM     25  H52 UNL     1       1.621  19.831  27.613  1.00  0.00     0.277 HD
ATOM     26  H51 UNL     1       2.343  19.624  28.965  1.00  0.00     0.277 HD
ENDBRANCH   5  19
TORSDOF 5
ENDMDL
MODEL 4
REMARK VINA RESULT: -7.031360439      3.861      9.489
REMARK  5 active torsions:
REMARK  status: ('A' for Active; 'I' for Inactive)
REMARK       I    between atoms: C2_2  and  N1_4 
REMARK    1  A    between atoms: N1_4  and  C3_6 
REMARK    2  A    between atoms: C3_6  and  O2_7 
REMARK    3  A    between atoms: C3_6  and  C4_9 
REMARK       I    between atoms: C4_9  and  N2_11 
REMARK    4  A    between atoms: N2_11  and  N3_13 
REMARK       I    between atoms: N3_13  and  C5_15 
REMARK       I    between atoms: C5_15  and  N4_17 
REMARK    5  A    between atoms: N4_17  and  C6_19 
ROOT
HETATM    1  N3  UNL     1       4.929  19.971  23.307  1.00  0.00    -0.249 N 
ATOM      2  H3  UNL     1       5.808  19.885  23.818  1.00  0.00     0.192 HD
HETATM    3  C5  UNL     1       3.797  19.632  24.052  1.00  0.00     0.335 C 
HETATM    4  O4  UNL     1       2.648  19.651  23.624  1.00  0.00    -0.246 OA
HETATM    5  N4  UNL     1       3.980  19.235  25.405  1.00  0.00    -0.336 N 
ATOM      6  H4  UNL     1       4.922  19.206  25.797  1.00  0.00     0.164 HD
ENDROOT
BRANCH   1   7
HETATM    7  N2  UNL     1       5.072  20.396  22.017  1.00  0.00    -0.259 N 
HETATM    8  C4  UNL     1       4.865  19.734  20.776  1.00  0.00     0.311 C 
HETATM    9  O3  UNL     1       4.493  18.555  20.692  1.00  0.00    -0.262 OA
ATOM     10  H2  UNL     1       5.383  21.363  21.927  1.00  0.00     0.190 HD
BRANCH   8  11
HETATM   11  C3  UNL     1       5.109  20.504  19.574  1.00  0.00     0.214 C 
BRANCH  11  12
HETATM   12  N1  UNL     1       6.280  21.008  19.062  1.00  0.00    -0.303 N 
HETATM   13  C2  UNL     1       7.608  20.731  19.372  1.00  0.00     0.219 C 
HETATM   14  C1  UNL     1       8.675  21.466  18.575  1.00  0.00     0.117 C 
HETATM   15  O1  UNL     1       8.010  19.944  20.234  1.00  0.00    -0.274 OA
ATOM     16  H1  UNL     1       6.154  21.706  18.329  1.00  0.00     0.171 HD
ENDBRANCH  11  12
BRANCH  11  17
HETATM   17  O2  UNL     1       4.009  20.743  18.881  1.00  0.00    -0.342 OA
ATOM     18  H2  UNL     1       3.700  21.641  18.869  1.00  0.00     0.219 HD
ENDBRANCH  11  17
ENDBRANCH   8  11
ENDBRANCH   1   7
BRANCH   5  19
HETATM   19  C6  UNL     1       2.868  18.879  26.218  1.00  0.00     0.112 C 
HETATM   20  C7  UNL     1       2.749  17.415  26.461  1.00  0.00     0.028 C 
HETATM   21  C8  UNL     1       2.212  17.222  27.858  1.00  0.00     0.029 C 
HETATM   22  C9  UNL     1       1.199  18.284  28.226  1.00  0.00     0.232 C 
HETATM   23  N5  UNL     1       1.719  19.617  28.176  1.00  0.00    -0.073 N 
HETATM   24  C10 UNL     1       3.033  19.631  27.548  1.00  0.00     0.257 C 
ATOM     25  H52 UNL     1       1.074  20.259  27.716  1.00  0.00     0.277 HD
ATOM     26  H51 UNL     1       1.736  20.053  29.099  1.00  0.00     0.277 HD
ENDBRANCH   5  19
TORSDOF 5
ENDMDL
MODEL 5
REMARK VINA RESULT: -7.008346540      4.129      9.719
REMARK  5 active torsions:
REMARK  status: ('A' for Active; 'I' for Inactive)
REMARK       I    between atoms: C2_2  and  N1_4 
REMARK    1  A    between atoms: N1_4  and  C3_6 
REMARK    2  A    between atoms: C3_6  and  O2_7 
REMARK    3  A    between atoms: C3_6  and  C4_9 
REMARK       I    between atoms: C4_9  and  N2_11 
REMARK    4  A    between atoms: N2_11  and  N3_13 
REMARK       I    between atoms: N3_13  and  C5_15 
REMARK       I    between atoms: C5_15  and  N4_17 
REMARK    5  A    between atoms: N4_17  and  C6_19 
ROOT
HETATM    1  N3  UNL     1       4.132  20.835  22.838  1.00  0.00    -0.249 N 
ATOM      2  H3  UNL     1       5.002  21.124  23.285  1.00  0.00     0.192 HD
HETATM    3  C5  UNL     1       3.236  20.187  23.692  1.00  0.00     0.335 C 
HETATM    4  O4  UNL     1       2.143  19.747  23.354  1.00  0.00    -0.246 OA
HETATM    5  N4  UNL     1       3.612  20.021  25.053  1.00  0.00    -0.336 N 
ATOM      6  H4  UNL     1       4.515  20.372  25.373  1.00  0.00     0.164 HD
ENDROOT
BRANCH   1   7
HETATM    7  N2  UNL     1       4.052  21.153  21.512  1.00  0.00    -0.259 N 
HETATM    8  C4  UNL     1       4.436  20.437  20.344  1.00  0.00     0.311 C 
HETATM    9  O3  UNL     1       4.954  19.312  20.381  1.00  0.00    -0.262 OA
ATOM     10  H2  UNL     1       3.644  22.068  21.324  1.00  0.00     0.190 HD
BRANCH   8  11
HETATM   11  C3  UNL     1       4.194  21.082  19.071  1.00  0.00     0.214 C 
BRANCH  11  12
HETATM   12  N1  UNL     1       3.761  20.559  17.876  1.00  0.00    -0.303 N 
HETATM   13  C2  UNL     1       4.301  20.633  16.596  1.00  0.00     0.219 C 
HETATM   14  C1  UNL     1       3.562  19.900  15.487  1.00  0.00     0.117 C 
HETATM   15  O1  UNL     1       5.327  21.236  16.268  1.00  0.00    -0.274 OA
ATOM     16  H1  UNL     1       2.894  20.026  17.938  1.00  0.00     0.171 HD
ENDBRANCH  11  12
BRANCH  11  17
HETATM   17  O2  UNL     1       4.438  22.381  19.095  1.00  0.00    -0.342 OA
ATOM     18  H2  UNL     1       4.591  22.769  19.949  1.00  0.00     0.219 HD
ENDBRANCH  11  17
ENDBRANCH   8  11
ENDBRANCH   1   7
BRANCH   5  19
HETATM   19  C6  UNL     1       2.745  19.370  25.975  1.00  0.00     0.112 C 
HETATM   20  C7  UNL     1       2.786  17.884  25.888  1.00  0.00     0.028 C 
HETATM   21  C8  UNL     1       2.600  17.337  27.283  1.00  0.00     0.029 C 
HETATM   22  C9  UNL     1       1.629  18.168  28.092  1.00  0.00     0.232 C 
HETATM   23  N5  UNL     1       2.031  19.534  28.246  1.00  0.00    -0.073 N 
HETATM   24  C10 UNL     1       3.160  19.837  27.379  1.00  0.00     0.257 C 
ATOM     25  H52 UNL     1       1.254  20.177  28.095  1.00  0.00     0.277 HD
ATOM     26  H51 UNL     1       2.229  19.763  29.221  1.00  0.00     0.277 HD
ENDBRANCH   5  19
TORSDOF 5
ENDMDL
