MODEL 1
REMARK VINA RESULT: -5.750584926      0.000      0.000
REMARK  14 active torsions:
REMARK  status: ('A' for Active; 'I' for Inactive)
REMARK    1  A    between atoms: C2_2  and  C4_4 
REMARK    2  A    between atoms: C5_5  and  C6_6 
REMARK    3  A    between atoms: C6_6  and  O1_8 
REMARK    4  A    between atoms: C6_6  and  C8_10 
REMARK    5  A    between atoms: C9_11  and  O2_12 
REMARK    6  A    between atoms: C10_15  and  C11_16 
REMARK    7  A    between atoms: C13_18  and  O4_19 
REMARK    8  A    between atoms: C15_22  and  O6_23 
REMARK    9  A    between atoms: O6_23  and  C16_24 
REMARK   10  A    between atoms: C16_24  and  C17_26 
REMARK   11  A    between atoms: C21_31  and  C22_32 
REMARK   12  A    between atoms: C22_32  and  C24_34 
REMARK   13  A    between atoms: C24_34  and  O9_35 
REMARK   14  A    between atoms: C26_37  and  O10_38 
ROOT
HETATM    1  C11 UNL     1      49.301  42.247  61.870  1.00  0.00     0.067 C 
HETATM    2  C12 UNL     1      50.096  42.295  60.635  1.00  0.00     0.028 C 
HETATM    3  C13 UNL     1      50.451  42.420  62.952  1.00  0.00     0.277 C 
HETATM    4  O5  UNL     1      50.961  41.123  63.049  1.00  0.00    -0.329 OA
HETATM    5  C15 UNL     1      50.038  40.214  62.578  1.00  0.00     0.278 C 
HETATM    6  C21 UNL     1      48.728  41.033  62.425  1.00  0.00     0.067 C 
ENDROOT
BRANCH   1   7
HETATM    7  C10 UNL     1      48.510  43.503  62.104  1.00  0.00     0.103 A 
HETATM    8  O3  UNL     1      48.500  44.110  63.276  1.00  0.00    -0.288 OA
HETATM    9  C9  UNL     1      47.724  45.168  63.234  1.00  0.00     0.196 A 
HETATM   10  C8  UNL     1      47.197  45.265  61.975  1.00  0.00     0.082 A 
HETATM   11  C26 UNL     1      47.696  44.207  61.251  1.00  0.00     0.111 A 
BRANCH   9  12
HETATM   12  O2  UNL     1      47.535  45.991  64.343  1.00  0.00    -0.340 OA
ATOM     13  H2  UNL     1      48.159  46.537  64.806  1.00  0.00     0.220 HD
ENDBRANCH   9  12
BRANCH  10  14
HETATM   14  C6  UNL     1      46.263  46.326  61.509  1.00  0.00     0.152 C 
HETATM   15  C7  UNL     1      46.632  46.849  60.141  1.00  0.00     0.066 C 
BRANCH  14  16
HETATM   16  C5  UNL     1      44.930  45.697  61.408  1.00  0.00    -0.058 C 
HETATM   17  C4  UNL     1      43.838  45.187  61.344  1.00  0.00    -0.069 C 
BRANCH  17  18
HETATM   18  C2  UNL     1      42.528  44.597  61.277  1.00  0.00    -0.018 C 
HETATM   19  C1  UNL     1      42.321  43.629  60.399  1.00  0.00     0.028 C 
HETATM   20  C3  UNL     1      41.446  45.071  62.177  1.00  0.00     0.057 C 
ENDBRANCH  17  18
ENDBRANCH  14  16
BRANCH  14  21
HETATM   21  O1  UNL     1      46.197  47.369  62.408  1.00  0.00    -0.373 OA
ATOM     22  H1  UNL     1      46.508  48.161  61.984  1.00  0.00     0.212 HD
ENDBRANCH  14  21
ENDBRANCH  10  14
BRANCH  11  23
HETATM   23  O10 UNL     1      47.423  43.946  59.947  1.00  0.00    -0.357 OA
ATOM     24  H10 UNL     1      48.069  43.793  59.268  1.00  0.00     0.217 HD
ENDBRANCH  11  23
ENDBRANCH   1   7
BRANCH   3  25
HETATM   25  O4  UNL     1      51.386  43.244  62.404  1.00  0.00    -0.365 OA
HETATM   26  C14 UNL     1      52.317  43.860  63.144  1.00  0.00     0.204 C 
ENDBRANCH   3  25
BRANCH   6  27
HETATM   27  C22 UNL     1      47.748  40.174  61.776  1.00  0.00     0.015 C 
HETATM   28  C23 UNL     1      46.329  40.727  61.643  1.00  0.00     0.012 C 
BRANCH  27  29
HETATM   29  C24 UNL     1      47.462  38.987  62.739  1.00  0.00     0.171 C 
BRANCH  29  30
HETATM   30  O9  UNL     1      46.352  39.012  63.459  1.00  0.00    -0.396 OA
HETATM   31  C25 UNL     1      45.768  37.748  63.447  1.00  0.00     0.201 C 
ENDBRANCH  29  30
ENDBRANCH  27  29
ENDBRANCH   6  27
BRANCH   5  32
HETATM   32  O6  UNL     1      50.412  39.842  61.271  1.00  0.00    -0.285 OA
BRANCH  32  33
HETATM   33  C16 UNL     1      51.379  38.966  60.894  1.00  0.00     0.297 C 
HETATM   34  O7  UNL     1      52.447  39.423  60.396  1.00  0.00    -0.259 OA
BRANCH  33  35
HETATM   35  C17 UNL     1      51.256  37.506  61.031  1.00  0.00     0.063 A 
HETATM   36  C18 UNL     1      52.262  36.592  61.243  1.00  0.00     0.044 A 
HETATM   37  C19 UNL     1      51.685  35.334  61.304  1.00  0.00     0.142 A 
HETATM   38  O8  UNL     1      50.391  35.495  61.135  1.00  0.00    -0.334 OA
HETATM   39  C20 UNL     1      50.100  36.763  60.970  1.00  0.00     0.159 A 
ENDBRANCH  33  35
ENDBRANCH  32  33
ENDBRANCH   5  32
TORSDOF 14
ENDMDL
MODEL 2
REMARK VINA RESULT: -5.629186844     10.177     13.688
REMARK  14 active torsions:
REMARK  status: ('A' for Active; 'I' for Inactive)
REMARK    1  A    between atoms: C2_2  and  C4_4 
REMARK    2  A    between atoms: C5_5  and  C6_6 
REMARK    3  A    between atoms: C6_6  and  O1_8 
REMARK    4  A    between atoms: C6_6  and  C8_10 
REMARK    5  A    between atoms: C9_11  and  O2_12 
REMARK    6  A    between atoms: C10_15  and  C11_16 
REMARK    7  A    between atoms: C13_18  and  O4_19 
REMARK    8  A    between atoms: C15_22  and  O6_23 
REMARK    9  A    between atoms: O6_23  and  C16_24 
REMARK   10  A    between atoms: C16_24  and  C17_26 
REMARK   11  A    between atoms: C21_31  and  C22_32 
REMARK   12  A    between atoms: C22_32  and  C24_34 
REMARK   13  A    between atoms: C24_34  and  O9_35 
REMARK   14  A    between atoms: C26_37  and  O10_38 
ROOT
HETATM    1  C11 UNL     1      51.208  44.560  72.268  1.00  0.00     0.067 C 
HETATM    2  C12 UNL     1      51.814  45.373  73.332  1.00  0.00     0.028 C 
HETATM    3  C13 UNL     1      51.494  45.487  71.010  1.00  0.00     0.277 C 
HETATM    4  O5  UNL     1      50.460  46.422  71.093  1.00  0.00    -0.329 OA
HETATM    5  C15 UNL     1      49.435  45.929  71.870  1.00  0.00     0.278 C 
HETATM    6  C21 UNL     1      49.778  44.426  72.059  1.00  0.00     0.067 C 
ENDROOT
BRANCH   1   7
HETATM    7  C10 UNL     1      52.032  43.353  71.915  1.00  0.00     0.103 A 
HETATM    8  O3  UNL     1      52.480  43.152  70.691  1.00  0.00    -0.288 OA
HETATM    9  C9  UNL     1      53.152  42.026  70.631  1.00  0.00     0.196 A 
HETATM   10  C8  UNL     1      53.147  41.456  71.875  1.00  0.00     0.082 A 
HETATM   11  C26 UNL     1      52.436  42.299  72.697  1.00  0.00     0.111 A 
BRANCH   9  12
HETATM   12  O2  UNL     1      53.734  41.573  69.448  1.00  0.00    -0.340 OA
ATOM     13  H2  UNL     1      54.545  41.838  69.032  1.00  0.00     0.220 HD
ENDBRANCH   9  12
BRANCH  10  14
HETATM   14  C6  UNL     1      53.797  40.168  72.237  1.00  0.00     0.152 C 
HETATM   15  C7  UNL     1      54.559  40.260  73.539  1.00  0.00     0.066 C 
BRANCH  14  16
HETATM   16  C5  UNL     1      52.710  39.185  72.419  1.00  0.00    -0.058 C 
HETATM   17  C4  UNL     1      51.809  38.397  72.570  1.00  0.00    -0.069 C 
BRANCH  17  18
HETATM   18  C2  UNL     1      50.723  37.467  72.736  1.00  0.00    -0.018 C 
HETATM   19  C1  UNL     1      50.805  36.293  72.131  1.00  0.00     0.028 C 
HETATM   20  C3  UNL     1      49.548  37.829  73.569  1.00  0.00     0.057 C 
ENDBRANCH  17  18
ENDBRANCH  14  16
BRANCH  14  21
HETATM   21  O1  UNL     1      54.635  39.726  71.234  1.00  0.00    -0.373 OA
ATOM     22  H1  UNL     1      54.679  40.390  70.556  1.00  0.00     0.212 HD
ENDBRANCH  14  21
ENDBRANCH  10  14
BRANCH  11  23
HETATM   23  O10 UNL     1      52.206  42.101  74.020  1.00  0.00    -0.357 OA
ATOM     24  H10 UNL     1      51.776  41.343  74.399  1.00  0.00     0.217 HD
ENDBRANCH  11  23
ENDBRANCH   1   7
BRANCH   3  25
HETATM   25  O4  UNL     1      52.690  46.098  71.234  1.00  0.00    -0.365 OA
HETATM   26  C14 UNL     1      53.587  46.293  70.258  1.00  0.00     0.204 C 
ENDBRANCH   3  25
BRANCH   6  27
HETATM   27  C22 UNL     1      48.821  43.874  73.007  1.00  0.00     0.015 C 
HETATM   28  C23 UNL     1      48.853  42.359  73.214  1.00  0.00     0.012 C 
BRANCH  27  29
HETATM   29  C24 UNL     1      47.408  44.008  72.372  1.00  0.00     0.171 C 
BRANCH  29  30
HETATM   30  O9  UNL     1      46.523  44.794  72.964  1.00  0.00    -0.396 OA
HETATM   31  C25 UNL     1      45.928  44.104  74.017  1.00  0.00     0.201 C 
ENDBRANCH  29  30
ENDBRANCH  27  29
ENDBRANCH   6  27
BRANCH   5  32
HETATM   32  O6  UNL     1      49.534  46.507  73.152  1.00  0.00    -0.285 OA
BRANCH  32  33
HETATM   33  C16 UNL     1      48.714  47.428  73.721  1.00  0.00     0.297 C 
HETATM   34  O7  UNL     1      48.635  48.574  73.194  1.00  0.00    -0.259 OA
BRANCH  33  35
HETATM   35  C17 UNL     1      47.906  47.170  74.924  1.00  0.00     0.063 A 
HETATM   36  C18 UNL     1      48.229  46.377  76.000  1.00  0.00     0.044 A 
HETATM   37  C19 UNL     1      47.172  46.427  76.895  1.00  0.00     0.142 A 
HETATM   38  O8  UNL     1      46.261  47.216  76.371  1.00  0.00    -0.334 OA
HETATM   39  C20 UNL     1      46.658  47.674  75.208  1.00  0.00     0.159 A 
ENDBRANCH  33  35
ENDBRANCH  32  33
ENDBRANCH   5  32
TORSDOF 14
ENDMDL
MODEL 3
REMARK VINA RESULT: -5.613536709      1.501      2.108
REMARK  14 active torsions:
REMARK  status: ('A' for Active; 'I' for Inactive)
REMARK    1  A    between atoms: C2_2  and  C4_4 
REMARK    2  A    between atoms: C5_5  and  C6_6 
REMARK    3  A    between atoms: C6_6  and  O1_8 
REMARK    4  A    between atoms: C6_6  and  C8_10 
REMARK    5  A    between atoms: C9_11  and  O2_12 
REMARK    6  A    between atoms: C10_15  and  C11_16 
REMARK    7  A    between atoms: C13_18  and  O4_19 
REMARK    8  A    between atoms: C15_22  and  O6_23 
REMARK    9  A    between atoms: O6_23  and  C16_24 
REMARK   10  A    between atoms: C16_24  and  C17_26 
REMARK   11  A    between atoms: C21_31  and  C22_32 
REMARK   12  A    between atoms: C22_32  and  C24_34 
REMARK   13  A    between atoms: C24_34  and  O9_35 
REMARK   14  A    between atoms: C26_37  and  O10_38 
ROOT
HETATM    1  C11 UNL     1      49.899  42.555  61.953  1.00  0.00     0.067 C 
HETATM    2  C12 UNL     1      50.825  42.379  60.825  1.00  0.00     0.028 C 
HETATM    3  C13 UNL     1      50.923  42.509  63.167  1.00  0.00     0.277 C 
HETATM    4  O5  UNL     1      51.113  41.136  63.339  1.00  0.00    -0.329 OA
HETATM    5  C15 UNL     1      50.072  40.437  62.767  1.00  0.00     0.278 C 
HETATM    6  C21 UNL     1      49.007  41.520  62.444  1.00  0.00     0.067 C 
ENDROOT
BRANCH   1   7
HETATM    7  C10 UNL     1      49.390  43.963  62.076  1.00  0.00     0.103 A 
HETATM    8  O3  UNL     1      49.977  44.971  61.460  1.00  0.00    -0.288 OA
HETATM    9  C9  UNL     1      49.361  46.096  61.738  1.00  0.00     0.196 A 
HETATM   10  C8  UNL     1      48.317  45.819  62.578  1.00  0.00     0.082 A 
HETATM   11  C26 UNL     1      48.330  44.461  62.794  1.00  0.00     0.111 A 
BRANCH   9  12
HETATM   12  O2  UNL     1      49.781  47.319  61.215  1.00  0.00    -0.340 OA
ATOM     13  H2  UNL     1      50.654  47.689  61.166  1.00  0.00     0.220 HD
ENDBRANCH   9  12
BRANCH  10  14
HETATM   14  C6  UNL     1      47.366  46.819  63.134  1.00  0.00     0.152 C 
HETATM   15  C7  UNL     1      47.996  48.185  63.281  1.00  0.00     0.066 C 
BRANCH  14  16
HETATM   16  C5  UNL     1      46.261  46.934  62.160  1.00  0.00    -0.058 C 
HETATM   17  C4  UNL     1      45.352  47.010  61.371  1.00  0.00    -0.069 C 
BRANCH  17  18
HETATM   18  C2  UNL     1      44.255  47.095  60.444  1.00  0.00    -0.018 C 
HETATM   19  C1  UNL     1      44.528  47.135  59.150  1.00  0.00     0.028 C 
HETATM   20  C3  UNL     1      42.855  47.135  60.942  1.00  0.00     0.057 C 
ENDBRANCH  17  18
ENDBRANCH  14  16
BRANCH  14  21
HETATM   21  O1  UNL     1      46.853  46.407  64.345  1.00  0.00    -0.373 OA
ATOM     22  H1  UNL     1      46.787  45.459  64.345  1.00  0.00     0.212 HD
ENDBRANCH  14  21
ENDBRANCH  10  14
BRANCH  11  23
HETATM   23  O10 UNL     1      47.448  43.777  63.566  1.00  0.00    -0.357 OA
ATOM     24  H10 UNL     1      47.572  42.896  63.899  1.00  0.00     0.217 HD
ENDBRANCH  11  23
ENDBRANCH   1   7
BRANCH   3  25
HETATM   25  O4  UNL     1      52.078  43.083  62.731  1.00  0.00    -0.365 OA
HETATM   26  C14 UNL     1      53.071  43.415  63.566  1.00  0.00     0.204 C 
ENDBRANCH   3  25
BRANCH   6  27
HETATM   27  C22 UNL     1      47.943  40.876  61.688  1.00  0.00     0.015 C 
HETATM   28  C23 UNL     1      47.292  41.702  60.577  1.00  0.00     0.012 C 
BRANCH  27  29
HETATM   29  C24 UNL     1      46.720  40.731  62.637  1.00  0.00     0.171 C 
BRANCH  29  30
HETATM   30  O9  UNL     1      46.751  39.789  63.567  1.00  0.00    -0.396 OA
HETATM   31  C25 UNL     1      46.323  38.585  63.013  1.00  0.00     0.201 C 
ENDBRANCH  29  30
ENDBRANCH  27  29
ENDBRANCH   6  27
BRANCH   5  32
HETATM   32  O6  UNL     1      50.505  39.943  61.519  1.00  0.00    -0.285 OA
BRANCH  32  33
HETATM   33  C16 UNL     1      50.979  38.704  61.228  1.00  0.00     0.297 C 
HETATM   34  O7  UNL     1      52.228  38.514  61.255  1.00  0.00    -0.259 OA
BRANCH  33  35
HETATM   35  C17 UNL     1      50.118  37.562  60.880  1.00  0.00     0.063 A 
HETATM   36  C18 UNL     1      48.820  37.593  60.427  1.00  0.00     0.044 A 
HETATM   37  C19 UNL     1      48.408  36.285  60.231  1.00  0.00     0.142 A 
HETATM   38  O8  UNL     1      49.420  35.510  60.554  1.00  0.00    -0.334 OA
HETATM   39  C20 UNL     1      50.447  36.227  60.942  1.00  0.00     0.159 A 
ENDBRANCH  33  35
ENDBRANCH  32  33
ENDBRANCH   5  32
TORSDOF 14
ENDMDL
MODEL 4
REMARK VINA RESULT: -5.578282126      2.259      8.593
REMARK  14 active torsions:
REMARK  status: ('A' for Active; 'I' for Inactive)
REMARK    1  A    between atoms: C2_2  and  C4_4 
REMARK    2  A    between atoms: C5_5  and  C6_6 
REMARK    3  A    between atoms: C6_6  and  O1_8 
REMARK    4  A    between atoms: C6_6  and  C8_10 
REMARK    5  A    between atoms: C9_11  and  O2_12 
REMARK    6  A    between atoms: C10_15  and  C11_16 
REMARK    7  A    between atoms: C13_18  and  O4_19 
REMARK    8  A    between atoms: C15_22  and  O6_23 
REMARK    9  A    between atoms: O6_23  and  C16_24 
REMARK   10  A    between atoms: C16_24  and  C17_26 
REMARK   11  A    between atoms: C21_31  and  C22_32 
REMARK   12  A    between atoms: C22_32  and  C24_34 
REMARK   13  A    between atoms: C24_34  and  O9_35 
REMARK   14  A    between atoms: C26_37  and  O10_38 
ROOT
HETATM    1  C11 UNL     1      50.538  43.231  61.821  1.00  0.00     0.067 C 
HETATM    2  C12 UNL     1      51.382  43.439  63.006  1.00  0.00     0.028 C 
HETATM    3  C13 UNL     1      51.537  43.702  60.679  1.00  0.00     0.277 C 
HETATM    4  O5  UNL     1      51.398  45.092  60.722  1.00  0.00    -0.329 OA
HETATM    5  C15 UNL     1      50.214  45.431  61.340  1.00  0.00     0.278 C 
HETATM    6  C21 UNL     1      49.432  44.093  61.445  1.00  0.00     0.067 C 
ENDROOT
BRANCH   1   7
HETATM    7  C10 UNL     1      50.379  41.779  61.466  1.00  0.00     0.103 A 
HETATM    8  O3  UNL     1      50.588  41.337  60.241  1.00  0.00    -0.288 OA
HETATM    9  C9  UNL     1      50.366  40.044  60.180  1.00  0.00     0.196 A 
HETATM   10  C8  UNL     1      49.993  39.612  61.423  1.00  0.00     0.082 A 
HETATM   11  C26 UNL     1      50.001  40.714  62.247  1.00  0.00     0.111 A 
BRANCH   9  12
HETATM   12  O2  UNL     1      50.513  39.323  58.995  1.00  0.00    -0.340 OA
ATOM     13  H2  UNL     1      50.796  38.427  58.863  1.00  0.00     0.220 HD
ENDBRANCH   9  12
BRANCH  10  14
HETATM   14  C6  UNL     1      49.649  38.210  61.784  1.00  0.00     0.152 C 
HETATM   15  C7  UNL     1      48.535  37.658  60.927  1.00  0.00     0.066 C 
BRANCH  14  16
HETATM   16  C5  UNL     1      50.859  37.402  61.529  1.00  0.00    -0.058 C 
HETATM   17  C4  UNL     1      51.854  36.748  61.337  1.00  0.00    -0.069 C 
BRANCH  17  18
HETATM   18  C2  UNL     1      53.038  35.958  61.127  1.00  0.00    -0.018 C 
HETATM   19  C1  UNL     1      53.154  34.815  61.783  1.00  0.00     0.028 C 
HETATM   20  C3  UNL     1      54.095  36.426  60.194  1.00  0.00     0.057 C 
ENDBRANCH  17  18
ENDBRANCH  14  16
BRANCH  14  21
HETATM   21  O1  UNL     1      49.314  38.102  63.118  1.00  0.00    -0.373 OA
ATOM     22  H1  UNL     1      48.556  38.649  63.289  1.00  0.00     0.212 HD
ENDBRANCH  14  21
ENDBRANCH  10  14
BRANCH  11  23
HETATM   23  O10 UNL     1      49.699  40.712  63.570  1.00  0.00    -0.357 OA
ATOM     24  H10 UNL     1      49.300  41.431  64.046  1.00  0.00     0.217 HD
ENDBRANCH  11  23
ENDBRANCH   1   7
BRANCH   3  25
HETATM   25  O4  UNL     1      52.790  43.351  61.081  1.00  0.00    -0.365 OA
HETATM   26  C14 UNL     1      53.759  43.040  60.211  1.00  0.00     0.204 C 
ENDBRANCH   3  25
BRANCH   6  27
HETATM   27  C22 UNL     1      48.236  44.346  62.235  1.00  0.00     0.015 C 
HETATM   28  C23 UNL     1      47.272  43.173  62.418  1.00  0.00     0.012 C 
BRANCH  27  29
HETATM   29  C24 UNL     1      47.322  45.291  61.405  1.00  0.00     0.171 C 
BRANCH  29  30
HETATM   30  O9  UNL     1      46.146  45.632  61.908  1.00  0.00    -0.396 OA
HETATM   31  C25 UNL     1      45.681  46.770  61.253  1.00  0.00     0.201 C 
ENDBRANCH  29  30
ENDBRANCH  27  29
ENDBRANCH   6  27
BRANCH   5  32
HETATM   32  O6  UNL     1      50.501  45.811  62.667  1.00  0.00    -0.285 OA
BRANCH  32  33
HETATM   33  C16 UNL     1      50.446  47.054  63.212  1.00  0.00     0.297 C 
HETATM   34  O7  UNL     1      51.531  47.646  63.475  1.00  0.00    -0.259 OA
BRANCH  33  35
HETATM   35  C17 UNL     1      49.190  47.757  63.516  1.00  0.00     0.063 A 
HETATM   36  C18 UNL     1      48.146  47.316  64.296  1.00  0.00     0.044 A 
HETATM   37  C19 UNL     1      47.174  48.304  64.300  1.00  0.00     0.142 A 
HETATM   38  O8  UNL     1      47.624  49.289  63.555  1.00  0.00    -0.334 OA
HETATM   39  C20 UNL     1      48.810  49.004  63.075  1.00  0.00     0.159 A 
ENDBRANCH  33  35
ENDBRANCH  32  33
ENDBRANCH   5  32
TORSDOF 14
ENDMDL
MODEL 5
REMARK VINA RESULT: -5.488918307      1.297      2.265
REMARK  14 active torsions:
REMARK  status: ('A' for Active; 'I' for Inactive)
REMARK    1  A    between atoms: C2_2  and  C4_4 
REMARK    2  A    between atoms: C5_5  and  C6_6 
REMARK    3  A    between atoms: C6_6  and  O1_8 
REMARK    4  A    between atoms: C6_6  and  C8_10 
REMARK    5  A    between atoms: C9_11  and  O2_12 
REMARK    6  A    between atoms: C10_15  and  C11_16 
REMARK    7  A    between atoms: C13_18  and  O4_19 
REMARK    8  A    between atoms: C15_22  and  O6_23 
REMARK    9  A    between atoms: O6_23  and  C16_24 
REMARK   10  A    between atoms: C16_24  and  C17_26 
REMARK   11  A    between atoms: C21_31  and  C22_32 
REMARK   12  A    between atoms: C22_32  and  C24_34 
REMARK   13  A    between atoms: C24_34  and  O9_35 
REMARK   14  A    between atoms: C26_37  and  O10_38 
ROOT
HETATM    1  C11 UNL     1      48.625  41.856  61.526  1.00  0.00     0.067 C 
HETATM    2  C12 UNL     1      49.512  41.648  60.372  1.00  0.00     0.028 C 
HETATM    3  C13 UNL     1      49.671  42.401  62.590  1.00  0.00     0.277 C 
HETATM    4  O5  UNL     1      50.255  41.221  63.059  1.00  0.00    -0.329 OA
HETATM    5  C15 UNL     1      49.434  40.147  62.791  1.00  0.00     0.278 C 
HETATM    6  C21 UNL     1      48.090  40.785  62.347  1.00  0.00     0.067 C 
ENDROOT
BRANCH   1   7
HETATM    7  C10 UNL     1      47.738  43.060  61.370  1.00  0.00     0.103 A 
HETATM    8  O3  UNL     1      47.190  43.374  60.213  1.00  0.00    -0.288 OA
HETATM    9  C9  UNL     1      46.480  44.472  60.328  1.00  0.00     0.196 A 
HETATM   10  C8  UNL     1      46.563  44.904  61.624  1.00  0.00     0.082 A 
HETATM   11  C26 UNL     1      47.363  44.006  62.292  1.00  0.00     0.111 A 
BRANCH   9  12
HETATM   12  O2  UNL     1      45.794  45.027  59.249  1.00  0.00    -0.340 OA
ATOM     13  H2  UNL     1      45.915  44.886  58.317  1.00  0.00     0.220 HD
ENDBRANCH   9  12
BRANCH  10  14
HETATM   14  C6  UNL     1      45.902  46.118  62.174  1.00  0.00     0.152 C 
HETATM   15  C7  UNL     1      46.330  47.376  61.454  1.00  0.00     0.066 C 
BRANCH  14  16
HETATM   16  C5  UNL     1      44.452  45.943  61.956  1.00  0.00    -0.058 C 
HETATM   17  C4  UNL     1      43.264  45.807  61.795  1.00  0.00    -0.069 C 
BRANCH  17  18
HETATM   18  C2  UNL     1      41.845  45.664  61.609  1.00  0.00    -0.018 C 
HETATM   19  C1  UNL     1      41.188  44.839  62.408  1.00  0.00     0.028 C 
HETATM   20  C3  UNL     1      41.148  46.430  60.544  1.00  0.00     0.057 C 
ENDBRANCH  17  18
ENDBRANCH  14  16
BRANCH  14  21
HETATM   21  O1  UNL     1      46.137  46.250  63.527  1.00  0.00    -0.373 OA
ATOM     22  H1  UNL     1      45.614  46.969  63.861  1.00  0.00     0.212 HD
ENDBRANCH  14  21
ENDBRANCH  10  14
BRANCH  11  23
HETATM   23  O10 UNL     1      47.689  44.068  63.609  1.00  0.00    -0.357 OA
ATOM     24  H10 UNL     1      47.914  43.326  64.158  1.00  0.00     0.217 HD
ENDBRANCH  11  23
ENDBRANCH   1   7
BRANCH   3  25
HETATM   25  O4  UNL     1      50.592  43.129  61.900  1.00  0.00    -0.365 OA
HETATM   26  C14 UNL     1      51.251  44.156  62.453  1.00  0.00     0.204 C 
ENDBRANCH   3  25
BRANCH   6  27
HETATM   27  C22 UNL     1      47.223  39.708  61.892  1.00  0.00     0.015 C 
HETATM   28  C23 UNL     1      46.116  40.085  60.907  1.00  0.00     0.012 C 
BRANCH  27  29
HETATM   29  C24 UNL     1      46.343  39.278  63.100  1.00  0.00     0.171 C 
BRANCH  29  30
HETATM   30  O9  UNL     1      46.504  38.061  63.596  1.00  0.00    -0.396 OA
HETATM   31  C25 UNL     1      45.310  37.355  63.475  1.00  0.00     0.201 C 
ENDBRANCH  29  30
ENDBRANCH  27  29
ENDBRANCH   6  27
BRANCH   5  32
HETATM   32  O6  UNL     1      49.935  39.481  61.654  1.00  0.00    -0.285 OA
BRANCH  32  33
HETATM   33  C16 UNL     1      50.858  38.486  61.606  1.00  0.00     0.297 C 
HETATM   34  O7  UNL     1      50.487  37.305  61.861  1.00  0.00    -0.259 OA
BRANCH  33  35
HETATM   35  C17 UNL     1      52.275  38.703  61.273  1.00  0.00     0.063 A 
HETATM   36  C18 UNL     1      52.976  39.886  61.302  1.00  0.00     0.044 A 
HETATM   37  C19 UNL     1      54.277  39.618  60.910  1.00  0.00     0.142 A 
HETATM   38  O8  UNL     1      54.346  38.329  60.660  1.00  0.00    -0.334 OA
HETATM   39  C20 UNL     1      53.184  37.755  60.863  1.00  0.00     0.159 A 
ENDBRANCH  33  35
ENDBRANCH  32  33
ENDBRANCH   5  32
TORSDOF 14
ENDMDL
