MODEL 1
REMARK VINA RESULT: -3.525786522      0.000      0.000
REMARK  1 active torsions:
REMARK  status: ('A' for Active; 'I' for Inactive)
REMARK    1  A    between atoms: N1_2  and  C2_3 
ROOT
HETATM    1  C1  UNL     1      -6.145  29.550  35.855  1.00  0.00     0.277 C 
HETATM    2  N1  UNL     1      -7.573  29.479  36.203  1.00  0.00    -0.019 N 
HETATM    3  C5  UNL     1      -7.790  30.123  37.472  1.00  0.00     0.471 C 
HETATM    4  N2  UNL     1      -7.120  28.936  38.036  1.00  0.00    -0.026 N 
ATOM      5  H21 UNL     1      -7.229  28.656  39.011  1.00  0.00     0.281 HD
ATOM      6  H22 UNL     1      -6.113  28.897  38.194  1.00  0.00     0.281 HD
HETATM    7  C6  UNL     1      -7.780  28.223  36.926  1.00  0.00     0.471 C 
ENDROOT
BRANCH   2   8
HETATM    8  C2  UNL     1      -8.453  29.753  35.141  1.00  0.00     0.194 A 
HETATM    9  C3  UNL     1      -9.452  30.842  35.220  1.00  0.00     0.036 A 
HETATM   10  C4  UNL     1      -8.301  30.934  34.240  1.00  0.00     0.036 A 
ENDBRANCH   2   8
TORSDOF 1
ENDMDL
MODEL 2
REMARK VINA RESULT: -3.497196446      1.224      2.495
REMARK  1 active torsions:
REMARK  status: ('A' for Active; 'I' for Inactive)
REMARK    1  A    between atoms: N1_2  and  C2_3 
ROOT
HETATM    1  C1  UNL     1      -8.962  30.071  34.836  1.00  0.00     0.277 C 
HETATM    2  N1  UNL     1      -7.955  29.924  35.900  1.00  0.00    -0.019 N 
HETATM    3  C5  UNL     1      -8.192  28.700  36.618  1.00  0.00     0.471 C 
HETATM    4  N2  UNL     1      -9.354  29.413  37.181  1.00  0.00    -0.026 N 
ATOM      5  H21 UNL     1      -9.805  29.128  38.051  1.00  0.00     0.281 HD
ATOM      6  H22 UNL     1     -10.280  29.377  36.754  1.00  0.00     0.281 HD
HETATM    7  C6  UNL     1      -8.481  30.598  37.089  1.00  0.00     0.471 C 
ENDROOT
BRANCH   2   8
HETATM    8  C2  UNL     1      -6.640  30.245  35.517  1.00  0.00     0.194 A 
HETATM    9  C3  UNL     1      -5.714  29.222  34.984  1.00  0.00     0.036 A 
HETATM   10  C4  UNL     1      -6.207  30.342  34.092  1.00  0.00     0.036 A 
ENDBRANCH   2   8
TORSDOF 1
ENDMDL
MODEL 3
REMARK VINA RESULT: -3.415528226      1.642      3.148
REMARK  1 active torsions:
REMARK  status: ('A' for Active; 'I' for Inactive)
REMARK    1  A    between atoms: N1_2  and  C2_3 
ROOT
HETATM    1  C1  UNL     1      -8.316  30.537  36.721  1.00  0.00     0.277 C 
HETATM    2  N1  UNL     1      -8.088  30.260  35.293  1.00  0.00    -0.019 N 
HETATM    3  C5  UNL     1      -8.265  31.470  34.535  1.00  0.00     0.471 C 
HETATM    4  N2  UNL     1      -9.700  31.276  34.816  1.00  0.00    -0.026 N 
ATOM      5  H21 UNL     1     -10.433  31.709  34.254  1.00  0.00     0.281 HD
ATOM      6  H22 UNL     1     -10.160  31.683  35.631  1.00  0.00     0.281 HD
HETATM    7  C6  UNL     1      -9.369  29.841  34.722  1.00  0.00     0.471 C 
ENDROOT
BRANCH   2   8
HETATM    8  C2  UNL     1      -6.975  29.444  35.022  1.00  0.00     0.194 A 
HETATM    9  C3  UNL     1      -5.850  29.916  34.185  1.00  0.00     0.036 A 
HETATM   10  C4  UNL     1      -5.641  29.645  35.661  1.00  0.00     0.036 A 
ENDBRANCH   2   8
TORSDOF 1
ENDMDL
MODEL 4
REMARK VINA RESULT: -3.308924324      0.738      1.529
REMARK  1 active torsions:
REMARK  status: ('A' for Active; 'I' for Inactive)
REMARK    1  A    between atoms: N1_2  and  C2_3 
ROOT
HETATM    1  C1  UNL     1      -8.673  30.672  37.664  1.00  0.00     0.277 C 
HETATM    2  N1  UNL     1      -8.289  29.648  36.678  1.00  0.00    -0.019 N 
HETATM    3  C5  UNL     1      -8.274  28.355  37.309  1.00  0.00     0.471 C 
HETATM    4  N2  UNL     1      -7.047  28.841  37.968  1.00  0.00    -0.026 N 
ATOM      5  H21 UNL     1      -6.353  28.211  38.370  1.00  0.00     0.281 HD
ATOM      6  H22 UNL     1      -7.059  29.316  38.871  1.00  0.00     0.281 HD
HETATM    7  C6  UNL     1      -6.828  29.556  36.696  1.00  0.00     0.471 C 
ENDROOT
BRANCH   2   8
HETATM    8  C2  UNL     1      -8.902  29.784  35.419  1.00  0.00     0.194 A 
HETATM    9  C3  UNL     1     -10.029  30.717  35.199  1.00  0.00     0.036 A 
HETATM   10  C4  UNL     1      -8.692  30.966  34.532  1.00  0.00     0.036 A 
ENDBRANCH   2   8
TORSDOF 1
ENDMDL
MODEL 5
REMARK VINA RESULT: -3.271167576      1.183      2.453
REMARK  1 active torsions:
REMARK  status: ('A' for Active; 'I' for Inactive)
REMARK    1  A    between atoms: N1_2  and  C2_3 
ROOT
HETATM    1  C1  UNL     1      -8.572  29.929  34.874  1.00  0.00     0.277 C 
HETATM    2  N1  UNL     1      -8.003  29.879  36.231  1.00  0.00    -0.019 N 
HETATM    3  C5  UNL     1      -6.567  29.851  36.148  1.00  0.00     0.471 C 
HETATM    4  N2  UNL     1      -6.756  28.465  35.679  1.00  0.00    -0.026 N 
ATOM      5  H21 UNL     1      -6.016  27.765  35.722  1.00  0.00     0.281 HD
ATOM      6  H22 UNL     1      -6.848  28.227  34.691  1.00  0.00     0.281 HD
HETATM    7  C6  UNL     1      -7.903  28.468  36.607  1.00  0.00     0.471 C 
ENDROOT
BRANCH   2   8
HETATM    8  C2  UNL     1      -8.615  30.742  37.158  1.00  0.00     0.194 A 
HETATM    9  C3  UNL     1      -9.944  30.446  37.737  1.00  0.00     0.036 A 
HETATM   10  C4  UNL     1      -8.711  30.437  38.616  1.00  0.00     0.036 A 
ENDBRANCH   2   8
TORSDOF 1
ENDMDL
