MODEL 1
REMARK VINA RESULT: -7.585551772      0.000      0.000
REMARK  5 active torsions:
REMARK  status: ('A' for Active; 'I' for Inactive)
REMARK    1  A    between atoms: N1_2  and  C3_4 
REMARK    2  A    between atoms: C6_7  and  C7_8 
REMARK    3  A    between atoms: C8_9  and  N2_10 
REMARK       I    between atoms: N2_10  and  C9_12 
REMARK    4  A    between atoms: C9_12  and  C10_14 
REMARK    5  A    between atoms: C10_14  and  C11_15 
ROOT
HETATM    1  C7  UNL     1      49.620  52.159  34.955  1.00  0.00     0.045 A 
HETATM    2  C8  UNL     1      48.813  51.866  36.012  1.00  0.00     0.093 A 
HETATM    3  S1  UNL     1      47.248  52.392  35.488  1.00  0.00    -0.044 SA
HETATM    4  C13 UNL     1      47.696  52.963  33.939  1.00  0.00     0.140 A 
HETATM    5  C14 UNL     1      49.041  52.729  33.871  1.00  0.00     0.090 A 
HETATM    6  N3  UNL     1      49.600  53.096  32.609  1.00  0.00    -0.322 N 
ATOM      7  H3  UNL     1      50.597  52.961  32.444  1.00  0.00     0.169 HD
HETATM    8  C15 UNL     1      48.789  53.646  31.579  1.00  0.00     0.246 C 
HETATM    9  O2  UNL     1      49.322  54.282  30.610  1.00  0.00    -0.271 OA
HETATM   10  C16 UNL     1      47.338  53.512  31.577  1.00  0.00     0.279 C 
HETATM   11  O3  UNL     1      46.925  53.541  32.930  1.00  0.00    -0.332 OA
ENDROOT
BRANCH   2  12
HETATM   12  N2  UNL     1      49.051  51.306  37.307  1.00  0.00    -0.320 N 
HETATM   13  C9  UNL     1      48.623  49.949  37.559  1.00  0.00     0.228 C 
HETATM   14  O1  UNL     1      48.056  49.261  36.679  1.00  0.00    -0.273 OA
ATOM     15  H2  UNL     1      49.511  51.852  38.035  1.00  0.00     0.169 HD
BRANCH  13  16
HETATM   16  C10 UNL     1      48.863  49.374  38.878  1.00  0.00     0.181 C 
BRANCH  16  17
HETATM   17  C11 UNL     1      47.926  49.958  39.912  1.00  0.00     0.248 C 
HETATM   18  C12 UNL     1      48.766  50.900  40.772  1.00  0.00     0.090 C 
HETATM   19  F1  UNL     1      47.408  48.930  40.660  1.00  0.00    -0.206 F 
HETATM   20  F2  UNL     1      46.899  50.662  39.313  1.00  0.00    -0.206 F 
ENDBRANCH  16  17
ENDBRANCH  13  16
ENDBRANCH   2  12
BRANCH   1  21
HETATM   21  C6  UNL     1      51.057  51.772  35.029  1.00  0.00     0.022 A 
HETATM   22  C5  UNL     1      51.738  50.795  34.364  1.00  0.00     0.023 A 
HETATM   23  C4  UNL     1      53.063  50.703  34.560  1.00  0.00     0.038 A 
HETATM   24  C3  UNL     1      53.643  51.594  35.410  1.00  0.00     0.072 A 
HETATM   25  S2  UNL     1      52.317  52.535  35.912  1.00  0.00    -0.072 SA
BRANCH  24  26
HETATM   26  N1  UNL     1      55.037  51.700  35.783  1.00  0.00    -0.384 N 
HETATM   27  C1  UNL     1      55.898  50.558  35.769  1.00  0.00     0.149 C 
HETATM   28  C2  UNL     1      55.515  53.005  36.172  1.00  0.00     0.149 C 
ENDBRANCH  24  26
ENDBRANCH   1  21
TORSDOF 5
ENDMDL
MODEL 2
REMARK VINA RESULT: -7.503298974      1.181      1.212
REMARK  5 active torsions:
REMARK  status: ('A' for Active; 'I' for Inactive)
REMARK    1  A    between atoms: N1_2  and  C3_4 
REMARK    2  A    between atoms: C6_7  and  C7_8 
REMARK    3  A    between atoms: C8_9  and  N2_10 
REMARK       I    between atoms: N2_10  and  C9_12 
REMARK    4  A    between atoms: C9_12  and  C10_14 
REMARK    5  A    between atoms: C10_14  and  C11_15 
ROOT
HETATM    1  C7  UNL     1      48.907  51.686  34.486  1.00  0.00     0.045 A 
HETATM    2  C8  UNL     1      48.100  50.964  35.310  1.00  0.00     0.093 A 
HETATM    3  S1  UNL     1      46.502  51.410  34.810  1.00  0.00    -0.044 SA
HETATM    4  C13 UNL     1      46.939  52.503  33.568  1.00  0.00     0.140 A 
HETATM    5  C14 UNL     1      48.306  52.489  33.575  1.00  0.00     0.090 A 
HETATM    6  N3  UNL     1      48.868  53.313  32.554  1.00  0.00    -0.322 N 
ATOM      7  H3  UNL     1      49.882  53.376  32.461  1.00  0.00     0.169 HD
HETATM    8  C15 UNL     1      48.040  54.048  31.663  1.00  0.00     0.246 C 
HETATM    9  O2  UNL     1      48.516  55.027  30.999  1.00  0.00    -0.271 OA
HETATM   10  C16 UNL     1      46.632  53.725  31.467  1.00  0.00     0.279 C 
HETATM   11  O3  UNL     1      46.144  53.262  32.711  1.00  0.00    -0.332 OA
ENDROOT
BRANCH   2  12
HETATM   12  N2  UNL     1      48.351  50.056  36.387  1.00  0.00    -0.320 N 
HETATM   13  C9  UNL     1      48.484  50.591  37.722  1.00  0.00     0.228 C 
HETATM   14  O1  UNL     1      48.384  51.818  37.955  1.00  0.00    -0.273 OA
ATOM     15  H2  UNL     1      48.435  49.054  36.216  1.00  0.00     0.169 HD
BRANCH  13  16
HETATM   16  C10 UNL     1      48.741  49.669  38.823  1.00  0.00     0.181 C 
BRANCH  16  17
HETATM   17  C11 UNL     1      48.218  50.215  40.133  1.00  0.00     0.248 C 
HETATM   18  C12 UNL     1      48.673  49.242  41.219  1.00  0.00     0.090 C 
HETATM   19  F1  UNL     1      46.848  50.277  40.062  1.00  0.00    -0.206 F 
HETATM   20  F2  UNL     1      48.729  51.473  40.389  1.00  0.00    -0.206 F 
ENDBRANCH  16  17
ENDBRANCH  13  16
ENDBRANCH   2  12
BRANCH   1  21
HETATM   21  C6  UNL     1      50.382  51.497  34.589  1.00  0.00     0.022 A 
HETATM   22  C5  UNL     1      51.246  50.864  33.745  1.00  0.00     0.023 A 
HETATM   23  C4  UNL     1      52.556  50.901  34.037  1.00  0.00     0.038 A 
HETATM   24  C3  UNL     1      52.938  51.571  35.158  1.00  0.00     0.072 A 
HETATM   25  S2  UNL     1      51.453  52.130  35.773  1.00  0.00    -0.072 SA
BRANCH  24  26
HETATM   26  N1  UNL     1      54.274  51.752  35.683  1.00  0.00    -0.384 N 
HETATM   27  C1  UNL     1      55.131  50.635  35.933  1.00  0.00     0.149 C 
HETATM   28  C2  UNL     1      54.699  53.107  35.944  1.00  0.00     0.149 C 
ENDBRANCH  24  26
ENDBRANCH   1  21
TORSDOF 5
ENDMDL
MODEL 3
REMARK VINA RESULT: -7.474868506      1.470      1.605
REMARK  5 active torsions:
REMARK  status: ('A' for Active; 'I' for Inactive)
REMARK    1  A    between atoms: N1_2  and  C3_4 
REMARK    2  A    between atoms: C6_7  and  C7_8 
REMARK    3  A    between atoms: C8_9  and  N2_10 
REMARK       I    between atoms: N2_10  and  C9_12 
REMARK    4  A    between atoms: C9_12  and  C10_14 
REMARK    5  A    between atoms: C10_14  and  C11_15 
ROOT
HETATM    1  C7  UNL     1      48.778  51.828  34.580  1.00  0.00     0.045 A 
HETATM    2  C8  UNL     1      48.028  50.972  35.327  1.00  0.00     0.093 A 
HETATM    3  S1  UNL     1      46.418  51.219  34.736  1.00  0.00    -0.044 SA
HETATM    4  C13 UNL     1      46.777  52.407  33.559  1.00  0.00     0.140 A 
HETATM    5  C14 UNL     1      48.130  52.577  33.656  1.00  0.00     0.090 A 
HETATM    6  N3  UNL     1      48.637  53.508  32.698  1.00  0.00    -0.322 N 
ATOM      7  H3  UNL     1      49.636  53.710  32.675  1.00  0.00     0.169 HD
HETATM    8  C15 UNL     1      47.772  54.158  31.777  1.00  0.00     0.246 C 
HETATM    9  O2  UNL     1      48.150  55.217  31.176  1.00  0.00    -0.271 OA
HETATM   10  C16 UNL     1      46.436  53.657  31.479  1.00  0.00     0.279 C 
HETATM   11  O3  UNL     1      45.940  53.086  32.674  1.00  0.00    -0.332 OA
ENDROOT
BRANCH   2  12
HETATM   12  N2  UNL     1      48.334  50.066  36.390  1.00  0.00    -0.320 N 
HETATM   13  C9  UNL     1      48.384  50.579  37.740  1.00  0.00     0.228 C 
HETATM   14  O1  UNL     1      48.168  51.786  37.996  1.00  0.00    -0.273 OA
ATOM     15  H2  UNL     1      48.513  49.079  36.200  1.00  0.00     0.169 HD
BRANCH  13  16
HETATM   16  C10 UNL     1      48.697  49.658  38.828  1.00  0.00     0.181 C 
BRANCH  16  17
HETATM   17  C11 UNL     1      48.208  50.189  40.157  1.00  0.00     0.248 C 
HETATM   18  C12 UNL     1      48.715  49.218  41.222  1.00  0.00     0.090 C 
HETATM   19  F1  UNL     1      46.836  50.228  40.131  1.00  0.00    -0.206 F 
HETATM   20  F2  UNL     1      48.707  51.454  40.402  1.00  0.00    -0.206 F 
ENDBRANCH  16  17
ENDBRANCH  13  16
ENDBRANCH   2  12
BRANCH   1  21
HETATM   21  C6  UNL     1      50.256  51.834  34.774  1.00  0.00     0.022 A 
HETATM   22  C5  UNL     1      51.003  52.327  35.802  1.00  0.00     0.023 A 
HETATM   23  C4  UNL     1      52.332  52.134  35.768  1.00  0.00     0.038 A 
HETATM   24  C3  UNL     1      52.847  51.456  34.708  1.00  0.00     0.072 A 
HETATM   25  S2  UNL     1      51.459  51.107  33.788  1.00  0.00    -0.072 SA
BRANCH  24  26
HETATM   26  N1  UNL     1      54.230  51.124  34.442  1.00  0.00    -0.384 N 
HETATM   27  C1  UNL     1      54.746  49.818  34.716  1.00  0.00     0.149 C 
HETATM   28  C2  UNL     1      55.063  52.168  33.894  1.00  0.00     0.149 C 
ENDBRANCH  24  26
ENDBRANCH   1  21
TORSDOF 5
ENDMDL
MODEL 4
REMARK VINA RESULT: -7.435771814      3.254      3.798
REMARK  5 active torsions:
REMARK  status: ('A' for Active; 'I' for Inactive)
REMARK    1  A    between atoms: N1_2  and  C3_4 
REMARK    2  A    between atoms: C6_7  and  C7_8 
REMARK    3  A    between atoms: C8_9  and  N2_10 
REMARK       I    between atoms: N2_10  and  C9_12 
REMARK    4  A    between atoms: C9_12  and  C10_14 
REMARK    5  A    between atoms: C10_14  and  C11_15 
ROOT
HETATM    1  C7  UNL     1      48.425  51.230  33.618  1.00  0.00     0.045 A 
HETATM    2  C8  UNL     1      47.949  51.385  34.884  1.00  0.00     0.093 A 
HETATM    3  S1  UNL     1      47.469  53.048  34.940  1.00  0.00    -0.044 SA
HETATM    4  C13 UNL     1      47.899  53.472  33.339  1.00  0.00     0.140 A 
HETATM    5  C14 UNL     1      48.399  52.316  32.809  1.00  0.00     0.090 A 
HETATM    6  N3  UNL     1      48.769  52.457  31.436  1.00  0.00    -0.322 N 
ATOM      7  H3  UNL     1      49.151  51.655  30.935  1.00  0.00     0.169 HD
HETATM    8  C15 UNL     1      48.614  53.696  30.757  1.00  0.00     0.246 C 
HETATM    9  O2  UNL     1      49.247  53.920  29.673  1.00  0.00    -0.271 OA
HETATM   10  C16 UNL     1      47.741  54.750  31.254  1.00  0.00     0.279 C 
HETATM   11  O3  UNL     1      47.793  54.690  32.666  1.00  0.00    -0.332 OA
ENDROOT
BRANCH   2  12
HETATM   12  N2  UNL     1      47.842  50.507  36.009  1.00  0.00    -0.320 N 
HETATM   13  C9  UNL     1      48.876  50.551  37.017  1.00  0.00     0.228 C 
HETATM   14  O1  UNL     1      49.852  51.331  36.929  1.00  0.00    -0.273 OA
ATOM     15  H2  UNL     1      47.054  49.866  36.097  1.00  0.00     0.169 HD
BRANCH  13  16
HETATM   16  C10 UNL     1      48.771  49.657  38.166  1.00  0.00     0.181 C 
BRANCH  16  17
HETATM   17  C11 UNL     1      48.121  50.349  39.345  1.00  0.00     0.248 C 
HETATM   18  C12 UNL     1      48.017  49.304  40.454  1.00  0.00     0.090 C 
HETATM   19  F1  UNL     1      46.881  50.792  38.960  1.00  0.00    -0.206 F 
HETATM   20  F2  UNL     1      48.884  51.416  39.778  1.00  0.00    -0.206 F 
ENDBRANCH  16  17
ENDBRANCH  13  16
ENDBRANCH   2  12
BRANCH   1  21
HETATM   21  C6  UNL     1      48.872  49.876  33.186  1.00  0.00     0.022 A 
HETATM   22  C5  UNL     1      48.169  48.712  33.080  1.00  0.00     0.023 A 
HETATM   23  C4  UNL     1      48.800  47.634  32.587  1.00  0.00     0.038 A 
HETATM   24  C3  UNL     1      50.103  47.774  32.222  1.00  0.00     0.072 A 
HETATM   25  S2  UNL     1      50.409  49.409  32.579  1.00  0.00    -0.072 SA
BRANCH  24  26
HETATM   26  N1  UNL     1      50.991  46.773  31.671  1.00  0.00    -0.384 N 
HETATM   27  C1  UNL     1      52.399  46.813  31.922  1.00  0.00     0.149 C 
HETATM   28  C2  UNL     1      50.395  45.740  30.859  1.00  0.00     0.149 C 
ENDBRANCH  24  26
ENDBRANCH   1  21
TORSDOF 5
ENDMDL
MODEL 5
REMARK VINA RESULT: -7.364086246      1.010      1.264
REMARK  5 active torsions:
REMARK  status: ('A' for Active; 'I' for Inactive)
REMARK    1  A    between atoms: N1_2  and  C3_4 
REMARK    2  A    between atoms: C6_7  and  C7_8 
REMARK    3  A    between atoms: C8_9  and  N2_10 
REMARK       I    between atoms: N2_10  and  C9_12 
REMARK    4  A    between atoms: C9_12  and  C10_14 
REMARK    5  A    between atoms: C10_14  and  C11_15 
ROOT
HETATM    1  C7  UNL     1      49.285  52.253  34.905  1.00  0.00     0.045 A 
HETATM    2  C8  UNL     1      48.527  51.946  35.994  1.00  0.00     0.093 A 
HETATM    3  S1  UNL     1      46.932  52.443  35.533  1.00  0.00    -0.044 SA
HETATM    4  C13 UNL     1      47.306  53.022  33.967  1.00  0.00     0.140 A 
HETATM    5  C14 UNL     1      48.652  52.812  33.846  1.00  0.00     0.090 A 
HETATM    6  N3  UNL     1      49.152  53.189  32.562  1.00  0.00    -0.322 N 
ATOM      7  H3  UNL     1      50.144  53.073  32.356  1.00  0.00     0.169 HD
HETATM    8  C15 UNL     1      48.291  53.724  31.566  1.00  0.00     0.246 C 
HETATM    9  O2  UNL     1      48.772  54.369  30.577  1.00  0.00    -0.271 OA
HETATM   10  C16 UNL     1      46.844  53.564  31.623  1.00  0.00     0.279 C 
HETATM   11  O3  UNL     1      46.485  53.585  32.991  1.00  0.00    -0.332 OA
ENDROOT
BRANCH   2  12
HETATM   12  N2  UNL     1      48.827  51.390  37.277  1.00  0.00    -0.320 N 
HETATM   13  C9  UNL     1      48.550  49.991  37.503  1.00  0.00     0.228 C 
HETATM   14  O1  UNL     1      48.059  49.262  36.610  1.00  0.00    -0.273 OA
ATOM     15  H2  UNL     1      49.227  51.969  38.015  1.00  0.00     0.169 HD
BRANCH  13  16
HETATM   16  C10 UNL     1      48.854  49.420  38.811  1.00  0.00     0.181 C 
BRANCH  16  17
HETATM   17  C11 UNL     1      47.908  49.939  39.872  1.00  0.00     0.248 C 
HETATM   18  C12 UNL     1      48.737  50.844  40.782  1.00  0.00     0.090 C 
HETATM   19  F1  UNL     1      47.401  48.868  40.564  1.00  0.00    -0.206 F 
HETATM   20  F2  UNL     1      46.875  50.663  39.307  1.00  0.00    -0.206 F 
ENDBRANCH  16  17
ENDBRANCH  13  16
ENDBRANCH   2  12
BRANCH   1  21
HETATM   21  C6  UNL     1      50.730  51.893  34.920  1.00  0.00     0.022 A 
HETATM   22  C5  UNL     1      51.727  52.297  35.759  1.00  0.00     0.023 A 
HETATM   23  C4  UNL     1      52.946  51.757  35.600  1.00  0.00     0.038 A 
HETATM   24  C3  UNL     1      53.109  50.838  34.611  1.00  0.00     0.072 A 
HETATM   25  S2  UNL     1      51.551  50.755  33.930  1.00  0.00    -0.072 SA
BRANCH  24  26
HETATM   26  N1  UNL     1      54.310  50.121  34.241  1.00  0.00    -0.384 N 
HETATM   27  C1  UNL     1      54.253  48.951  33.421  1.00  0.00     0.149 C 
HETATM   28  C2  UNL     1      55.562  50.637  34.740  1.00  0.00     0.149 C 
ENDBRANCH  24  26
ENDBRANCH   1  21
TORSDOF 5
ENDMDL
