MODEL 1
REMARK VINA RESULT: -7.658911436      0.000      0.000
REMARK  9 active torsions:
REMARK  status: ('A' for Active; 'I' for Inactive)
REMARK    1  A    between atoms: C4_7  and  S1_8 
REMARK    2  A    between atoms: S1_8  and  C5_9 
REMARK    3  A    between atoms: C5_9  and  N4_18 
REMARK    4  A    between atoms: N3_10  and  C6_12 
REMARK    5  A    between atoms: C6_12  and  C7_13 
REMARK    6  A    between atoms: C7_13  and  C8_14 
REMARK    7  A    between atoms: N4_18  and  C9_20 
REMARK    8  A    between atoms: C13_24  and  N5_25 
REMARK       I    between atoms: N5_25  and  C14_27 
REMARK    9  A    between atoms: C14_27  and  C15_29 
ROOT
HETATM    1  C1  UNL     1      52.247  51.437  35.325  1.00  0.00     0.072 C 
HETATM    2  C2  UNL     1      50.985  51.901  34.649  1.00  0.00     0.051 A 
HETATM    3  N1  UNL     1      50.893  52.545  33.476  1.00  0.00    -0.300 N 
ATOM      4  H1  UNL     1      51.686  52.803  32.888  1.00  0.00     0.187 HD
HETATM    5  N2  UNL     1      49.629  52.797  33.191  1.00  0.00    -0.287 N 
HETATM    6  C3  UNL     1      49.228  53.485  31.977  1.00  0.00     0.178 C 
HETATM    7  C4  UNL     1      48.860  52.322  34.176  1.00  0.00     0.123 A 
HETATM    8  C13 UNL     1      49.683  51.750  35.113  1.00  0.00     0.094 A 
ENDROOT
BRANCH   7   9
HETATM    9  S1  UNL     1      47.091  52.403  34.280  1.00  0.00    -0.033 SA
BRANCH   9  10
HETATM   10  C5  UNL     1      46.315  51.385  33.034  1.00  0.00     0.143 C 
HETATM   11  N3  UNL     1      46.308  50.108  33.220  1.00  0.00    -0.370 N 
ATOM     12  H3  UNL     1      45.867  49.520  32.514  1.00  0.00     0.161 HD
BRANCH  11  13
HETATM   13  C6  UNL     1      46.891  49.468  34.373  1.00  0.00     0.130 C 
BRANCH  13  14
HETATM   14  C7  UNL     1      47.860  48.380  34.008  1.00  0.00     0.137 C 
BRANCH  14  15
HETATM   15  C8  UNL     1      47.428  47.098  34.664  1.00  0.00     0.389 C 
HETATM   16  F1  UNL     1      47.806  46.018  33.856  1.00  0.00    -0.171 F 
HETATM   17  F2  UNL     1      46.060  47.120  34.830  1.00  0.00    -0.171 F 
HETATM   18  F3  UNL     1      48.016  46.970  35.911  1.00  0.00    -0.171 F 
ENDBRANCH  14  15
ENDBRANCH  13  14
ENDBRANCH  11  13
BRANCH  10  19
HETATM   19  N4  UNL     1      45.710  51.913  31.861  1.00  0.00    -0.363 N 
ATOM     20  H4  UNL     1      44.900  52.522  31.980  1.00  0.00     0.162 HD
BRANCH  19  21
HETATM   21  C9  UNL     1      46.150  51.656  30.535  1.00  0.00     0.021 C 
HETATM   22  C10 UNL     1      45.076  50.903  29.785  1.00  0.00     0.037 C 
HETATM   23  C11 UNL     1      47.420  50.844  30.464  1.00  0.00     0.037 C 
HETATM   24  C12 UNL     1      46.339  52.982  29.802  1.00  0.00     0.037 C 
ENDBRANCH  19  21
ENDBRANCH  10  19
ENDBRANCH   9  10
ENDBRANCH   7   9
BRANCH   8  25
HETATM   25  N5  UNL     1      49.353  51.113  36.338  1.00  0.00    -0.317 N 
HETATM   26  C14 UNL     1      49.054  51.866  37.505  1.00  0.00     0.280 C 
HETATM   27  O1  UNL     1      49.086  53.102  37.438  1.00  0.00    -0.265 OA
ATOM     28  H5  UNL     1      49.331  50.094  36.380  1.00  0.00     0.169 HD
BRANCH  26  29
HETATM   29  C15 UNL     1      48.713  51.196  38.770  1.00  0.00     0.142 A 
HETATM   30  C16 UNL     1      47.917  50.099  38.903  1.00  0.00     0.045 A 
HETATM   31  C17 UNL     1      47.851  49.784  40.252  1.00  0.00     0.027 A 
HETATM   32  C18 UNL     1      48.635  50.737  40.882  1.00  0.00     0.143 A 
HETATM   33  O2  UNL     1      49.118  51.543  39.964  1.00  0.00    -0.317 OA
ENDBRANCH  26  29
ENDBRANCH   8  25
TORSDOF 9
ENDMDL
MODEL 2
REMARK VINA RESULT: -7.487440221      1.430      2.006
REMARK  9 active torsions:
REMARK  status: ('A' for Active; 'I' for Inactive)
REMARK    1  A    between atoms: C4_7  and  S1_8 
REMARK    2  A    between atoms: S1_8  and  C5_9 
REMARK    3  A    between atoms: C5_9  and  N4_18 
REMARK    4  A    between atoms: N3_10  and  C6_12 
REMARK    5  A    between atoms: C6_12  and  C7_13 
REMARK    6  A    between atoms: C7_13  and  C8_14 
REMARK    7  A    between atoms: N4_18  and  C9_20 
REMARK    8  A    between atoms: C13_24  and  N5_25 
REMARK       I    between atoms: N5_25  and  C14_27 
REMARK    9  A    between atoms: C14_27  and  C15_29 
ROOT
HETATM    1  C1  UNL     1      52.674  52.236  35.942  1.00  0.00     0.072 C 
HETATM    2  C2  UNL     1      51.502  52.160  35.002  1.00  0.00     0.051 A 
HETATM    3  N1  UNL     1      51.460  52.596  33.733  1.00  0.00    -0.300 N 
ATOM      4  H1  UNL     1      52.236  53.041  33.243  1.00  0.00     0.187 HD
HETATM    5  N2  UNL     1      50.269  52.366  33.211  1.00  0.00    -0.287 N 
HETATM    6  C3  UNL     1      49.936  52.733  31.846  1.00  0.00     0.178 C 
HETATM    7  C4  UNL     1      49.500  51.772  34.128  1.00  0.00     0.123 A 
HETATM    8  C13 UNL     1      50.246  51.627  35.271  1.00  0.00     0.094 A 
ENDROOT
BRANCH   7   9
HETATM    9  S1  UNL     1      47.815  51.254  33.934  1.00  0.00    -0.033 SA
BRANCH   9  10
HETATM   10  C5  UNL     1      47.496  50.673  32.275  1.00  0.00     0.143 C 
HETATM   11  N3  UNL     1      47.787  49.447  32.001  1.00  0.00    -0.370 N 
ATOM     12  H3  UNL     1      47.608  49.108  31.056  1.00  0.00     0.161 HD
BRANCH  11  13
HETATM   13  C6  UNL     1      48.352  48.529  32.959  1.00  0.00     0.130 C 
BRANCH  13  14
HETATM   14  C7  UNL     1      49.559  47.806  32.433  1.00  0.00     0.137 C 
BRANCH  14  15
HETATM   15  C8  UNL     1      49.161  46.412  32.038  1.00  0.00     0.389 C 
HETATM   16  F1  UNL     1      48.312  45.881  33.018  1.00  0.00    -0.171 F 
HETATM   17  F2  UNL     1      50.297  45.640  31.915  1.00  0.00    -0.171 F 
HETATM   18  F3  UNL     1      48.507  46.422  30.817  1.00  0.00    -0.171 F 
ENDBRANCH  14  15
ENDBRANCH  13  14
ENDBRANCH  11  13
BRANCH  10  19
HETATM   19  N4  UNL     1      46.941  51.494  31.255  1.00  0.00    -0.363 N 
ATOM     20  H4  UNL     1      47.587  51.940  30.603  1.00  0.00     0.162 HD
BRANCH  19  21
HETATM   21  C9  UNL     1      45.553  51.739  31.075  1.00  0.00     0.021 C 
HETATM   22  C10 UNL     1      45.332  53.209  30.808  1.00  0.00     0.037 C 
HETATM   23  C11 UNL     1      44.710  51.353  32.265  1.00  0.00     0.037 C 
HETATM   24  C12 UNL     1      45.068  50.997  29.832  1.00  0.00     0.037 C 
ENDBRANCH  19  21
ENDBRANCH  10  19
ENDBRANCH   9  10
ENDBRANCH   7   9
BRANCH   8  25
HETATM   25  N5  UNL     1      49.884  51.059  36.521  1.00  0.00    -0.317 N 
HETATM   26  C14 UNL     1      49.119  51.789  37.471  1.00  0.00     0.280 C 
HETATM   27  O1  UNL     1      48.768  52.943  37.189  1.00  0.00    -0.265 OA
ATOM     28  H5  UNL     1      50.180  50.108  36.742  1.00  0.00     0.169 HD
BRANCH  26  29
HETATM   29  C15 UNL     1      48.750  51.192  38.764  1.00  0.00     0.142 A 
HETATM   30  C16 UNL     1      47.909  50.135  38.943  1.00  0.00     0.045 A 
HETATM   31  C17 UNL     1      47.828  49.884  40.305  1.00  0.00     0.027 A 
HETATM   32  C18 UNL     1      48.649  50.832  40.894  1.00  0.00     0.143 A 
HETATM   33  O2  UNL     1      49.167  51.575  39.942  1.00  0.00    -0.317 OA
ENDBRANCH  26  29
ENDBRANCH   8  25
TORSDOF 9
ENDMDL
MODEL 3
REMARK VINA RESULT: -7.321314937      2.689      3.799
REMARK  9 active torsions:
REMARK  status: ('A' for Active; 'I' for Inactive)
REMARK    1  A    between atoms: C4_7  and  S1_8 
REMARK    2  A    between atoms: S1_8  and  C5_9 
REMARK    3  A    between atoms: C5_9  and  N4_18 
REMARK    4  A    between atoms: N3_10  and  C6_12 
REMARK    5  A    between atoms: C6_12  and  C7_13 
REMARK    6  A    between atoms: C7_13  and  C8_14 
REMARK    7  A    between atoms: N4_18  and  C9_20 
REMARK    8  A    between atoms: C13_24  and  N5_25 
REMARK       I    between atoms: N5_25  and  C14_27 
REMARK    9  A    between atoms: C14_27  and  C15_29 
ROOT
HETATM    1  C1  UNL     1      53.115  51.791  35.673  1.00  0.00     0.072 C 
HETATM    2  C2  UNL     1      51.974  52.032  34.723  1.00  0.00     0.051 A 
HETATM    3  N1  UNL     1      52.054  52.546  33.486  1.00  0.00    -0.300 N 
ATOM      4  H1  UNL     1      52.918  52.841  33.032  1.00  0.00     0.187 HD
HETATM    5  N2  UNL     1      50.852  52.613  32.942  1.00  0.00    -0.287 N 
HETATM    6  C3  UNL     1      50.635  53.130  31.602  1.00  0.00     0.178 C 
HETATM    7  C4  UNL     1      49.954  52.144  33.813  1.00  0.00     0.123 A 
HETATM    8  C13 UNL     1      50.627  51.768  34.948  1.00  0.00     0.094 A 
ENDROOT
BRANCH   7   9
HETATM    9  S1  UNL     1      48.201  52.017  33.573  1.00  0.00    -0.033 SA
BRANCH   9  10
HETATM   10  C5  UNL     1      47.701  50.328  33.281  1.00  0.00     0.143 C 
HETATM   11  N3  UNL     1      46.473  50.114  32.951  1.00  0.00    -0.370 N 
ATOM     12  H3  UNL     1      46.179  49.152  32.782  1.00  0.00     0.161 HD
BRANCH  11  13
HETATM   13  C6  UNL     1      45.492  51.161  32.807  1.00  0.00     0.130 C 
BRANCH  13  14
HETATM   14  C7  UNL     1      44.952  51.267  31.409  1.00  0.00     0.137 C 
BRANCH  14  15
HETATM   15  C8  UNL     1      45.598  52.436  30.721  1.00  0.00     0.389 C 
HETATM   16  F1  UNL     1      45.637  53.525  31.603  1.00  0.00    -0.171 F 
HETATM   17  F2  UNL     1      44.868  52.754  29.596  1.00  0.00    -0.171 F 
HETATM   18  F3  UNL     1      46.887  52.115  30.328  1.00  0.00    -0.171 F 
ENDBRANCH  14  15
ENDBRANCH  13  14
ENDBRANCH  11  13
BRANCH  10  19
HETATM   19  N4  UNL     1      48.587  49.221  33.394  1.00  0.00    -0.363 N 
ATOM     20  H4  UNL     1      48.745  48.836  34.326  1.00  0.00     0.162 HD
BRANCH  19  21
HETATM   21  C9  UNL     1      49.267  48.612  32.306  1.00  0.00     0.021 C 
HETATM   22  C10 UNL     1      50.755  48.826  32.461  1.00  0.00     0.037 C 
HETATM   23  C11 UNL     1      48.860  49.150  30.957  1.00  0.00     0.037 C 
HETATM   24  C12 UNL     1      49.041  47.103  32.354  1.00  0.00     0.037 C 
ENDBRANCH  19  21
ENDBRANCH  10  19
ENDBRANCH   9  10
ENDBRANCH   7   9
BRANCH   8  25
HETATM   25  N5  UNL     1      50.125  51.214  36.155  1.00  0.00    -0.317 N 
HETATM   26  C14 UNL     1      49.474  52.023  37.125  1.00  0.00     0.280 C 
HETATM   27  O1  UNL     1      49.348  53.235  36.899  1.00  0.00    -0.265 OA
ATOM     28  H5  UNL     1      50.235  50.215  36.330  1.00  0.00     0.169 HD
BRANCH  26  29
HETATM   29  C15 UNL     1      48.957  51.440  38.373  1.00  0.00     0.142 A 
HETATM   30  C16 UNL     1      48.106  50.380  38.466  1.00  0.00     0.045 A 
HETATM   31  C17 UNL     1      47.866  50.146  39.811  1.00  0.00     0.027 A 
HETATM   32  C18 UNL     1      48.609  51.106  40.481  1.00  0.00     0.143 A 
HETATM   33  O2  UNL     1      49.231  51.840  39.587  1.00  0.00    -0.317 OA
ENDBRANCH  26  29
ENDBRANCH   8  25
TORSDOF 9
ENDMDL
MODEL 4
REMARK VINA RESULT: -7.291955682      2.548      3.610
REMARK  9 active torsions:
REMARK  status: ('A' for Active; 'I' for Inactive)
REMARK    1  A    between atoms: C4_7  and  S1_8 
REMARK    2  A    between atoms: S1_8  and  C5_9 
REMARK    3  A    between atoms: C5_9  and  N4_18 
REMARK    4  A    between atoms: N3_10  and  C6_12 
REMARK    5  A    between atoms: C6_12  and  C7_13 
REMARK    6  A    between atoms: C7_13  and  C8_14 
REMARK    7  A    between atoms: N4_18  and  C9_20 
REMARK    8  A    between atoms: C13_24  and  N5_25 
REMARK       I    between atoms: N5_25  and  C14_27 
REMARK    9  A    between atoms: C14_27  and  C15_29 
ROOT
HETATM    1  C1  UNL     1      53.642  52.356  35.994  1.00  0.00     0.072 C 
HETATM    2  C2  UNL     1      52.740  52.290  34.791  1.00  0.00     0.051 A 
HETATM    3  N1  UNL     1      53.025  52.713  33.550  1.00  0.00    -0.300 N 
ATOM      4  H1  UNL     1      53.907  53.139  33.267  1.00  0.00     0.187 HD
HETATM    5  N2  UNL     1      51.998  52.498  32.749  1.00  0.00    -0.287 N 
HETATM    6  C3  UNL     1      52.023  52.857  31.341  1.00  0.00     0.178 C 
HETATM    7  C4  UNL     1      51.013  51.928  33.448  1.00  0.00     0.123 A 
HETATM    8  C13 UNL     1      51.447  51.781  34.742  1.00  0.00     0.094 A 
ENDROOT
BRANCH   7   9
HETATM    9  S1  UNL     1      49.420  51.436  32.841  1.00  0.00    -0.033 SA
BRANCH   9  10
HETATM   10  C5  UNL     1      49.022  49.764  33.326  1.00  0.00     0.143 C 
HETATM   11  N3  UNL     1      47.953  49.580  34.025  1.00  0.00    -0.370 N 
ATOM     12  H3  UNL     1      47.719  48.628  34.306  1.00  0.00     0.161 HD
BRANCH  11  13
HETATM   13  C6  UNL     1      47.072  50.646  34.430  1.00  0.00     0.130 C 
BRANCH  13  14
HETATM   14  C7  UNL     1      45.664  50.459  33.941  1.00  0.00     0.137 C 
BRANCH  14  15
HETATM   15  C8  UNL     1      45.518  51.124  32.601  1.00  0.00     0.389 C 
HETATM   16  F1  UNL     1      46.186  52.355  32.624  1.00  0.00    -0.171 F 
HETATM   17  F2  UNL     1      44.178  51.308  32.338  1.00  0.00    -0.171 F 
HETATM   18  F3  UNL     1      46.053  50.327  31.604  1.00  0.00    -0.171 F 
ENDBRANCH  14  15
ENDBRANCH  13  14
ENDBRANCH  11  13
BRANCH  10  19
HETATM   19  N4  UNL     1      49.821  48.640  32.980  1.00  0.00    -0.363 N 
ATOM     20  H4  UNL     1      50.660  48.468  33.535  1.00  0.00     0.162 HD
BRANCH  19  21
HETATM   21  C9  UNL     1      49.538  47.739  31.919  1.00  0.00     0.021 C 
HETATM   22  C10 UNL     1      50.834  47.247  31.318  1.00  0.00     0.037 C 
HETATM   23  C11 UNL     1      48.714  48.347  30.810  1.00  0.00     0.037 C 
HETATM   24  C12 UNL     1      48.828  46.509  32.480  1.00  0.00     0.037 C 
ENDBRANCH  19  21
ENDBRANCH  10  19
ENDBRANCH   9  10
ENDBRANCH   7   9
BRANCH   8  25
HETATM   25  N5  UNL     1      50.774  51.233  35.865  1.00  0.00    -0.317 N 
HETATM   26  C14 UNL     1      49.858  52.007  36.628  1.00  0.00     0.280 C 
HETATM   27  O1  UNL     1      49.652  53.182  36.295  1.00  0.00    -0.265 OA
ATOM     28  H5  UNL     1      50.952  50.264  36.130  1.00  0.00     0.169 HD
BRANCH  26  29
HETATM   29  C15 UNL     1      49.165  51.429  37.790  1.00  0.00     0.142 A 
HETATM   30  C16 UNL     1      48.370  50.324  37.778  1.00  0.00     0.045 A 
HETATM   31  C17 UNL     1      47.914  50.114  39.070  1.00  0.00     0.027 A 
HETATM   32  C18 UNL     1      48.475  51.136  39.819  1.00  0.00     0.143 A 
HETATM   33  O2  UNL     1      49.202  51.880  39.017  1.00  0.00    -0.317 OA
ENDBRANCH  26  29
ENDBRANCH   8  25
TORSDOF 9
ENDMDL
MODEL 5
REMARK VINA RESULT: -7.244712392      3.246      5.079
REMARK  9 active torsions:
REMARK  status: ('A' for Active; 'I' for Inactive)
REMARK    1  A    between atoms: C4_7  and  S1_8 
REMARK    2  A    between atoms: S1_8  and  C5_9 
REMARK    3  A    between atoms: C5_9  and  N4_18 
REMARK    4  A    between atoms: N3_10  and  C6_12 
REMARK    5  A    between atoms: C6_12  and  C7_13 
REMARK    6  A    between atoms: C7_13  and  C8_14 
REMARK    7  A    between atoms: N4_18  and  C9_20 
REMARK    8  A    between atoms: C13_24  and  N5_25 
REMARK       I    between atoms: N5_25  and  C14_27 
REMARK    9  A    between atoms: C14_27  and  C15_29 
ROOT
HETATM    1  C1  UNL     1      44.638  51.179  33.609  1.00  0.00     0.072 C 
HETATM    2  C2  UNL     1      45.921  51.139  32.824  1.00  0.00     0.051 A 
HETATM    3  N1  UNL     1      46.043  51.080  31.489  1.00  0.00    -0.300 N 
ATOM      4  H1  UNL     1      45.263  51.055  30.832  1.00  0.00     0.187 HD
HETATM    5  N2  UNL     1      47.319  51.059  31.148  1.00  0.00    -0.287 N 
HETATM    6  C3  UNL     1      47.752  50.998  29.763  1.00  0.00     0.178 C 
HETATM    7  C4  UNL     1      48.065  51.103  32.256  1.00  0.00     0.123 A 
HETATM    8  C13 UNL     1      47.215  51.154  33.332  1.00  0.00     0.094 A 
ENDROOT
BRANCH   7   9
HETATM    9  S1  UNL     1      49.836  51.098  32.350  1.00  0.00    -0.033 SA
BRANCH   9  10
HETATM   10  C5  UNL     1      50.462  49.497  32.835  1.00  0.00     0.143 C 
HETATM   11  N3  UNL     1      51.676  49.432  33.264  1.00  0.00    -0.370 N 
ATOM     12  H3  UNL     1      52.041  48.521  33.543  1.00  0.00     0.161 HD
BRANCH  11  13
HETATM   13  C6  UNL     1      52.546  50.576  33.371  1.00  0.00     0.130 C 
BRANCH  13  14
HETATM   14  C7  UNL     1      53.033  50.811  34.772  1.00  0.00     0.137 C 
BRANCH  14  15
HETATM   15  C8  UNL     1      52.202  51.891  35.405  1.00  0.00     0.389 C 
HETATM   16  F1  UNL     1      51.011  51.331  35.888  1.00  0.00    -0.171 F 
HETATM   17  F2  UNL     1      51.930  52.858  34.461  1.00  0.00    -0.171 F 
HETATM   18  F3  UNL     1      52.891  52.483  36.450  1.00  0.00    -0.171 F 
ENDBRANCH  14  15
ENDBRANCH  13  14
ENDBRANCH  11  13
BRANCH  10  19
HETATM   19  N4  UNL     1      49.688  48.305  32.770  1.00  0.00    -0.363 N 
ATOM     20  H4  UNL     1      48.964  48.173  33.476  1.00  0.00     0.162 HD
BRANCH  19  21
HETATM   21  C9  UNL     1      49.850  47.285  31.794  1.00  0.00     0.021 C 
HETATM   22  C10 UNL     1      48.875  46.165  32.072  1.00  0.00     0.037 C 
HETATM   23  C11 UNL     1      51.237  46.694  31.758  1.00  0.00     0.037 C 
HETATM   24  C12 UNL     1      49.487  47.843  30.420  1.00  0.00     0.037 C 
ENDBRANCH  19  21
ENDBRANCH  10  19
ENDBRANCH   9  10
ENDBRANCH   7   9
BRANCH   8  25
HETATM   25  N5  UNL     1      47.515  51.211  34.719  1.00  0.00    -0.317 N 
HETATM   26  C14 UNL     1      47.723  50.029  35.479  1.00  0.00     0.280 C 
HETATM   27  O1  UNL     1      47.638  48.933  34.908  1.00  0.00    -0.265 OA
ATOM     28  H5  UNL     1      47.581  52.119  35.178  1.00  0.00     0.169 HD
BRANCH  26  29
HETATM   29  C15 UNL     1      48.032  50.098  36.916  1.00  0.00     0.142 A 
HETATM   30  C16 UNL     1      47.946  51.210  37.698  1.00  0.00     0.045 A 
HETATM   31  C17 UNL     1      48.321  50.855  38.984  1.00  0.00     0.027 A 
HETATM   32  C18 UNL     1      48.624  49.505  38.909  1.00  0.00     0.143 A 
HETATM   33  O2  UNL     1      48.437  49.110  37.671  1.00  0.00    -0.317 OA
ENDBRANCH  26  29
ENDBRANCH   8  25
TORSDOF 9
ENDMDL
