MODEL 1
REMARK VINA RESULT: -4.616975984      0.000      0.000
REMARK  2 active torsions:
REMARK  status: ('A' for Active; 'I' for Inactive)
REMARK    1  A    between atoms: C6_7  and  O2_8 
REMARK    2  A    between atoms: C8_11  and  O3_12 
ROOT
HETATM    1  C1  UNL     1      15.804  16.454  18.711  1.00  0.00     0.042 C 
HETATM    2  C2  UNL     1      14.790  15.931  17.735  1.00  0.00     0.147 C 
HETATM    3  O1  UNL     1      14.364  16.967  16.928  1.00  0.00    -0.371 OA
HETATM    4  C3  UNL     1      13.639  16.546  15.832  1.00  0.00     0.080 C 
HETATM    5  C4  UNL     1      13.071  17.820  15.190  1.00  0.00     0.048 C 
HETATM    6  C5  UNL     1      14.644  16.003  14.819  1.00  0.00     0.048 C 
HETATM    7  C6  UNL     1      12.542  15.598  16.126  1.00  0.00     0.154 C 
HETATM    8  C7  UNL     1      12.589  14.879  17.407  1.00  0.00     0.069 C 
HETATM    9  C8  UNL     1      13.566  15.375  18.417  1.00  0.00     0.149 C 
ENDROOT
BRANCH   7  10
HETATM   10  O2  UNL     1      12.473  14.653  15.075  1.00  0.00    -0.392 OA
ATOM     11  H2  UNL     1      12.533  13.782  15.449  1.00  0.00     0.210 HD
ENDBRANCH   7  10
BRANCH   9  12
HETATM   12  O3  UNL     1      13.915  14.316  19.271  1.00  0.00    -0.393 OA
ATOM     13  H3  UNL     1      13.529  13.503  18.969  1.00  0.00     0.210 HD
ENDBRANCH   9  12
TORSDOF 2
ENDMDL
MODEL 2
REMARK VINA RESULT: -4.506350959      1.837      2.050
REMARK  2 active torsions:
REMARK  status: ('A' for Active; 'I' for Inactive)
REMARK    1  A    between atoms: C6_7  and  O2_8 
REMARK    2  A    between atoms: C8_11  and  O3_12 
ROOT
HETATM    1  C1  UNL     1      12.166  17.309  19.031  1.00  0.00     0.042 C 
HETATM    2  C2  UNL     1      12.445  16.544  17.769  1.00  0.00     0.147 C 
HETATM    3  O1  UNL     1      11.648  17.039  16.756  1.00  0.00    -0.371 OA
HETATM    4  C3  UNL     1      12.013  16.591  15.503  1.00  0.00     0.080 C 
HETATM    5  C4  UNL     1      10.901  17.055  14.551  1.00  0.00     0.048 C 
HETATM    6  C5  UNL     1      13.249  17.389  15.092  1.00  0.00     0.048 C 
HETATM    7  C6  UNL     1      12.200  15.129  15.383  1.00  0.00     0.154 C 
HETATM    8  C7  UNL     1      12.408  14.366  16.623  1.00  0.00     0.069 C 
HETATM    9  C8  UNL     1      12.125  15.077  17.901  1.00  0.00     0.149 C 
ENDROOT
BRANCH   7  10
HETATM   10  O2  UNL     1      13.287  14.887  14.510  1.00  0.00    -0.392 OA
ATOM     11  H2  UNL     1      13.246  15.514  13.798  1.00  0.00     0.210 HD
ENDBRANCH   7  10
BRANCH   9  12
HETATM   12  O3  UNL     1      12.890  14.495  18.925  1.00  0.00    -0.393 OA
ATOM     13  H3  UNL     1      13.078  15.132  19.603  1.00  0.00     0.210 HD
ENDBRANCH   9  12
TORSDOF 2
ENDMDL
MODEL 3
REMARK VINA RESULT: -4.490613225      1.838      3.440
REMARK  2 active torsions:
REMARK  status: ('A' for Active; 'I' for Inactive)
REMARK    1  A    between atoms: C6_7  and  O2_8 
REMARK    2  A    between atoms: C8_11  and  O3_12 
ROOT
HETATM    1  C1  UNL     1      15.872  17.692  16.341  1.00  0.00     0.042 C 
HETATM    2  C2  UNL     1      14.398  17.407  16.293  1.00  0.00     0.147 C 
HETATM    3  O1  UNL     1      14.134  16.274  17.036  1.00  0.00    -0.371 OA
HETATM    4  C3  UNL     1      12.789  16.078  17.276  1.00  0.00     0.080 C 
HETATM    5  C4  UNL     1      12.674  14.683  17.908  1.00  0.00     0.048 C 
HETATM    6  C5  UNL     1      12.391  17.051  18.384  1.00  0.00     0.048 C 
HETATM    7  C6  UNL     1      11.915  16.165  16.086  1.00  0.00     0.154 C 
HETATM    8  C7  UNL     1      12.448  16.849  14.899  1.00  0.00     0.069 C 
HETATM    9  C8  UNL     1      13.909  17.136  14.893  1.00  0.00     0.149 C 
ENDROOT
BRANCH   7  10
HETATM   10  O2  UNL     1      10.702  16.788  16.467  1.00  0.00    -0.392 OA
ATOM     11  H2  UNL     1      10.907  17.627  16.861  1.00  0.00     0.210 HD
ENDBRANCH   7  10
BRANCH   9  12
HETATM   12  O3  UNL     1      14.152  18.243  14.062  1.00  0.00    -0.393 OA
ATOM     13  H3  UNL     1      14.529  17.963  13.237  1.00  0.00     0.210 HD
ENDBRANCH   9  12
TORSDOF 2
ENDMDL
MODEL 4
REMARK VINA RESULT: -4.456786520      1.574      3.656
REMARK  2 active torsions:
REMARK  status: ('A' for Active; 'I' for Inactive)
REMARK    1  A    between atoms: C6_7  and  O2_8 
REMARK    2  A    between atoms: C8_11  and  O3_12 
ROOT
HETATM    1  C1  UNL     1      12.803  18.253  14.258  1.00  0.00     0.042 C 
HETATM    2  C2  UNL     1      13.306  17.312  15.315  1.00  0.00     0.147 C 
HETATM    3  O1  UNL     1      12.357  17.203  16.312  1.00  0.00    -0.371 OA
HETATM    4  C3  UNL     1      12.602  16.167  17.190  1.00  0.00     0.080 C 
HETATM    5  C4  UNL     1      11.590  16.339  18.332  1.00  0.00     0.048 C 
HETATM    6  C5  UNL     1      12.187  14.880  16.481  1.00  0.00     0.048 C 
HETATM    7  C6  UNL     1      13.974  16.112  17.737  1.00  0.00     0.154 C 
HETATM    8  C7  UNL     1      15.025  16.841  17.012  1.00  0.00     0.069 C 
HETATM    9  C8  UNL     1      14.573  17.802  15.968  1.00  0.00     0.149 C 
ENDROOT
BRANCH   7  10
HETATM   10  O2  UNL     1      14.356  14.754  17.850  1.00  0.00    -0.392 OA
ATOM     11  H2  UNL     1      14.362  14.519  18.771  1.00  0.00     0.210 HD
ENDBRANCH   7  10
BRANCH   9  12
HETATM   12  O3  UNL     1      15.594  17.952  15.014  1.00  0.00    -0.393 OA
ATOM     13  H3  UNL     1      16.447  17.883  15.425  1.00  0.00     0.210 HD
ENDBRANCH   9  12
TORSDOF 2
ENDMDL
MODEL 5
REMARK VINA RESULT: -4.442778049      1.585      2.078
REMARK  2 active torsions:
REMARK  status: ('A' for Active; 'I' for Inactive)
REMARK    1  A    between atoms: C6_7  and  O2_8 
REMARK    2  A    between atoms: C8_11  and  O3_12 
ROOT
HETATM    1  C1  UNL     1      16.167  16.409  19.168  1.00  0.00     0.042 C 
HETATM    2  C2  UNL     1      14.910  15.856  18.560  1.00  0.00     0.147 C 
HETATM    3  O1  UNL     1      13.868  16.729  18.807  1.00  0.00    -0.371 OA
HETATM    4  C3  UNL     1      12.735  16.451  18.070  1.00  0.00     0.080 C 
HETATM    5  C4  UNL     1      11.636  17.365  18.631  1.00  0.00     0.048 C 
HETATM    6  C5  UNL     1      12.994  16.962  16.654  1.00  0.00     0.048 C 
HETATM    7  C6  UNL     1      12.286  15.043  18.105  1.00  0.00     0.154 C 
HETATM    8  C7  UNL     1      13.263  14.028  18.526  1.00  0.00     0.069 C 
HETATM    9  C8  UNL     1      14.518  14.527  19.153  1.00  0.00     0.149 C 
ENDROOT
BRANCH   7  10
HETATM   10  O2  UNL     1      11.792  14.698  16.825  1.00  0.00    -0.392 OA
ATOM     11  H2  UNL     1      10.849  14.820  16.824  1.00  0.00     0.210 HD
ENDBRANCH   7  10
BRANCH   9  12
HETATM   12  O3  UNL     1      15.535  13.579  18.954  1.00  0.00    -0.393 OA
ATOM     13  H3  UNL     1      15.931  13.689  18.098  1.00  0.00     0.210 HD
ENDBRANCH   9  12
TORSDOF 2
ENDMDL
