MODEL 1
REMARK VINA RESULT: -4.826123747      0.000      0.000
REMARK  1 active torsions:
REMARK  status: ('A' for Active; 'I' for Inactive)
REMARK    1  A    between atoms: C4_4  and  O1_5 
ROOT
HETATM    1  C1  UNL     1      16.190  16.878  21.312  1.00  0.00     0.014 C 
HETATM    2  C2  UNL     1      15.231  16.487  20.200  1.00  0.00     0.038 A 
HETATM    3  C3  UNL     1      15.537  15.289  19.373  1.00  0.00     0.068 A 
HETATM    4  C4  UNL     1      14.462  14.510  18.686  1.00  0.00     0.128 C 
HETATM    5  C5  UNL     1      13.374  15.329  18.104  1.00  0.00     0.058 C 
HETATM    6  C6  UNL     1      13.695  16.780  17.927  1.00  0.00     0.172 C 
HETATM    7  O2  UNL     1      15.049  17.018  17.757  1.00  0.00    -0.368 OA
HETATM    8  C7  UNL     1      15.813  16.621  18.827  1.00  0.00     0.129 A 
HETATM    9  S1  UNL     1      17.576  17.091  18.672  1.00  0.00    -0.055 SA
ENDROOT
BRANCH   4  10
HETATM   10  O1  UNL     1      13.882  13.592  19.581  1.00  0.00    -0.395 OA
ATOM     11  H1  UNL     1      13.371  12.948  19.103  1.00  0.00     0.210 HD
ENDBRANCH   4  10
TORSDOF 1
ENDMDL
MODEL 2
REMARK VINA RESULT: -4.342564028      3.595      4.653
REMARK  1 active torsions:
REMARK  status: ('A' for Active; 'I' for Inactive)
REMARK    1  A    between atoms: C4_4  and  O1_5 
ROOT
HETATM    1  C1  UNL     1      15.100  16.310  13.708  1.00  0.00     0.014 C 
HETATM    2  C2  UNL     1      14.320  16.259  15.011  1.00  0.00     0.038 A 
HETATM    3  C3  UNL     1      12.849  16.043  14.961  1.00  0.00     0.068 A 
HETATM    4  C4  UNL     1      12.104  15.429  16.102  1.00  0.00     0.128 C 
HETATM    5  C5  UNL     1      12.562  15.851  17.446  1.00  0.00     0.058 C 
HETATM    6  C6  UNL     1      13.395  17.094  17.472  1.00  0.00     0.172 C 
HETATM    7  O2  UNL     1      13.120  17.951  16.418  1.00  0.00    -0.368 OA
HETATM    8  C7  UNL     1      13.362  17.397  15.186  1.00  0.00     0.129 A 
HETATM    9  S1  UNL     1      13.163  18.585  13.806  1.00  0.00    -0.055 SA
ENDROOT
BRANCH   4  10
HETATM   10  O1  UNL     1      12.189  14.026  16.036  1.00  0.00    -0.395 OA
ATOM     11  H1  UNL     1      11.496  13.682  15.484  1.00  0.00     0.210 HD
ENDBRANCH   4  10
TORSDOF 1
ENDMDL
MODEL 3
REMARK VINA RESULT: -4.197338683      4.281      5.169
REMARK  1 active torsions:
REMARK  status: ('A' for Active; 'I' for Inactive)
REMARK    1  A    between atoms: C4_4  and  O1_5 
ROOT
HETATM    1  C1  UNL     1      12.024  14.747  15.958  1.00  0.00     0.014 C 
HETATM    2  C2  UNL     1      12.585  15.942  15.205  1.00  0.00     0.038 A 
HETATM    3  C3  UNL     1      14.048  16.207  15.262  1.00  0.00     0.068 A 
HETATM    4  C4  UNL     1      14.758  16.944  14.173  1.00  0.00     0.128 C 
HETATM    5  C5  UNL     1      14.005  18.081  13.595  1.00  0.00     0.058 C 
HETATM    6  C6  UNL     1      12.862  18.574  14.426  1.00  0.00     0.172 C 
HETATM    7  O2  UNL     1      13.037  18.339  15.781  1.00  0.00    -0.368 OA
HETATM    8  C7  UNL     1      13.146  17.007  16.095  1.00  0.00     0.129 A 
HETATM    9  S1  UNL     1      13.205  16.691  17.898  1.00  0.00    -0.055 SA
ENDROOT
BRANCH   4  10
HETATM   10  O1  UNL     1      15.083  16.063  13.124  1.00  0.00    -0.395 OA
ATOM     11  H1  UNL     1      15.944  15.688  13.268  1.00  0.00     0.210 HD
ENDBRANCH   4  10
TORSDOF 1
ENDMDL
MODEL 4
REMARK VINA RESULT: -4.186415658      1.748      1.914
REMARK  1 active torsions:
REMARK  status: ('A' for Active; 'I' for Inactive)
REMARK    1  A    between atoms: C4_4  and  O1_5 
ROOT
HETATM    1  C1  UNL     1      16.648  16.933  18.740  1.00  0.00     0.014 C 
HETATM    2  C2  UNL     1      15.182  16.542  18.657  1.00  0.00     0.038 A 
HETATM    3  C3  UNL     1      14.767  15.509  17.671  1.00  0.00     0.068 A 
HETATM    4  C4  UNL     1      13.547  14.669  17.876  1.00  0.00     0.128 C 
HETATM    5  C5  UNL     1      12.388  15.384  18.457  1.00  0.00     0.058 C 
HETATM    6  C6  UNL     1      12.458  16.877  18.378  1.00  0.00     0.172 C 
HETATM    7  O2  UNL     1      13.219  17.328  17.312  1.00  0.00    -0.368 OA
HETATM    8  C7  UNL     1      14.529  16.922  17.364  1.00  0.00     0.129 A 
HETATM    9  S1  UNL     1      15.568  17.658  16.048  1.00  0.00    -0.055 SA
ENDROOT
BRANCH   4  10
HETATM   10  O1  UNL     1      13.846  13.577  18.711  1.00  0.00    -0.395 OA
ATOM     11  H1  UNL     1      14.011  12.801  18.187  1.00  0.00     0.210 HD
ENDBRANCH   4  10
TORSDOF 1
ENDMDL
MODEL 5
REMARK VINA RESULT: -4.150235117      2.995      3.919
REMARK  1 active torsions:
REMARK  status: ('A' for Active; 'I' for Inactive)
REMARK    1  A    between atoms: C4_4  and  O1_5 
ROOT
HETATM    1  C1  UNL     1      14.111  18.768  15.585  1.00  0.00     0.014 C 
HETATM    2  C2  UNL     1      13.454  17.480  16.052  1.00  0.00     0.038 A 
HETATM    3  C3  UNL     1      14.306  16.401  16.620  1.00  0.00     0.068 A 
HETATM    4  C4  UNL     1      13.766  15.397  17.587  1.00  0.00     0.128 C 
HETATM    5  C5  UNL     1      12.391  14.929  17.297  1.00  0.00     0.058 C 
HETATM    6  C6  UNL     1      11.908  15.199  15.906  1.00  0.00     0.172 C 
HETATM    7  O2  UNL     1      12.937  15.273  14.981  1.00  0.00    -0.368 OA
HETATM    8  C7  UNL     1      13.833  16.280  15.239  1.00  0.00     0.129 A 
HETATM    9  S1  UNL     1      15.092  16.484  13.924  1.00  0.00    -0.055 SA
ENDROOT
BRANCH   4  10
HETATM   10  O1  UNL     1      13.777  15.926  18.891  1.00  0.00    -0.395 OA
ATOM     11  H1  UNL     1      13.015  15.625  19.372  1.00  0.00     0.210 HD
ENDBRANCH   4  10
TORSDOF 1
ENDMDL
