MODEL 1
REMARK VINA RESULT: -5.053225012      0.000      0.000
REMARK  3 active torsions:
REMARK  status: ('A' for Active; 'I' for Inactive)
REMARK    1  A    between atoms: C2_2  and  N1_4 
REMARK    2  A    between atoms: C7_8  and  O1_9 
REMARK    3  A    between atoms: C8_11  and  O2_12 
ROOT
HETATM    1  N1  UNL     1      13.760  15.515  18.002  1.00  0.00    -0.361 N 
HETATM    2  C4  UNL     1      14.619  15.881  16.949  1.00  0.00     0.061 C 
HETATM    3  C5  UNL     1      15.384  17.107  17.418  1.00  0.00     0.047 C 
HETATM    4  C6  UNL     1      16.245  16.683  18.554  1.00  0.00     0.041 C 
HETATM    5  C7  UNL     1      15.675  15.738  19.532  1.00  0.00     0.167 C 
HETATM    6  C8  UNL     1      14.431  15.020  19.135  1.00  0.00     0.248 C 
ENDROOT
BRANCH   1   7
HETATM    7  C2  UNL     1      12.438  15.195  17.778  1.00  0.00     0.078 C 
HETATM    8  C1  UNL     1      12.158  14.922  16.295  1.00  0.00     0.032 C 
HETATM    9  C3  UNL     1      11.415  16.201  18.224  1.00  0.00     0.032 C 
ENDBRANCH   1   7
BRANCH   6  10
HETATM   10  O2  UNL     1      14.731  13.661  18.874  1.00  0.00    -0.374 OA
ATOM     11  H2  UNL     1      15.215  13.336  19.625  1.00  0.00     0.212 HD
ENDBRANCH   6  10
BRANCH   5  12
HETATM   12  O1  UNL     1      15.495  16.420  20.755  1.00  0.00    -0.391 OA
ATOM     13  H1  UNL     1      16.323  16.417  21.222  1.00  0.00     0.210 HD
ENDBRANCH   5  12
TORSDOF 3
ENDMDL
MODEL 2
REMARK VINA RESULT: -5.028107425      2.115      3.968
REMARK  3 active torsions:
REMARK  status: ('A' for Active; 'I' for Inactive)
REMARK    1  A    between atoms: C2_2  and  N1_4 
REMARK    2  A    between atoms: C7_8  and  O1_9 
REMARK    3  A    between atoms: C8_11  and  O2_12 
ROOT
HETATM    1  N1  UNL     1      14.760  16.108  19.010  1.00  0.00    -0.361 N 
HETATM    2  C4  UNL     1      15.041  14.776  18.654  1.00  0.00     0.061 C 
HETATM    3  C5  UNL     1      13.851  13.946  19.103  1.00  0.00     0.047 C 
HETATM    4  C6  UNL     1      12.680  14.376  18.291  1.00  0.00     0.041 C 
HETATM    5  C7  UNL     1      12.528  15.816  18.018  1.00  0.00     0.167 C 
HETATM    6  C8  UNL     1      13.712  16.684  18.270  1.00  0.00     0.248 C 
ENDROOT
BRANCH   1   7
HETATM    7  C2  UNL     1      15.703  16.906  19.623  1.00  0.00     0.078 C 
HETATM    8  C1  UNL     1      17.065  16.824  18.923  1.00  0.00     0.032 C 
HETATM    9  C3  UNL     1      15.960  16.649  21.081  1.00  0.00     0.032 C 
ENDBRANCH   1   7
BRANCH   6  10
HETATM   10  O2  UNL     1      14.264  17.104  17.034  1.00  0.00    -0.374 OA
ATOM     11  H2  UNL     1      15.090  16.646  16.931  1.00  0.00     0.212 HD
ENDBRANCH   6  10
BRANCH   5  12
HETATM   12  O1  UNL     1      11.400  16.285  18.726  1.00  0.00    -0.391 OA
ATOM     13  H1  UNL     1      11.530  17.206  18.918  1.00  0.00     0.210 HD
ENDBRANCH   5  12
TORSDOF 3
ENDMDL
MODEL 3
REMARK VINA RESULT: -4.720496798      2.001      3.896
REMARK  3 active torsions:
REMARK  status: ('A' for Active; 'I' for Inactive)
REMARK    1  A    between atoms: C2_2  and  N1_4 
REMARK    2  A    between atoms: C7_8  and  O1_9 
REMARK    3  A    between atoms: C8_11  and  O2_12 
ROOT
HETATM    1  N1  UNL     1      13.685  16.037  17.827  1.00  0.00    -0.361 N 
HETATM    2  C4  UNL     1      13.480  17.308  17.259  1.00  0.00     0.061 C 
HETATM    3  C5  UNL     1      13.475  17.114  15.752  1.00  0.00     0.047 C 
HETATM    4  C6  UNL     1      12.284  16.289  15.416  1.00  0.00     0.041 C 
HETATM    5  C7  UNL     1      11.948  15.170  16.315  1.00  0.00     0.167 C 
HETATM    6  C8  UNL     1      12.602  15.156  17.654  1.00  0.00     0.248 C 
ENDROOT
BRANCH   1   7
HETATM    7  C2  UNL     1      14.586  15.841  18.852  1.00  0.00     0.078 C 
HETATM    8  C1  UNL     1      15.908  16.576  18.600  1.00  0.00     0.032 C 
HETATM    9  C3  UNL     1      14.948  14.417  19.168  1.00  0.00     0.032 C 
ENDBRANCH   1   7
BRANCH   6  10
HETATM   10  O2  UNL     1      11.647  15.476  18.651  1.00  0.00    -0.374 OA
ATOM     11  H2  UNL     1      12.126  15.857  19.378  1.00  0.00     0.212 HD
ENDBRANCH   6  10
BRANCH   5  12
HETATM   12  O1  UNL     1      12.185  13.961  15.626  1.00  0.00    -0.391 OA
ATOM     13  H1  UNL     1      11.804  13.251  16.129  1.00  0.00     0.210 HD
ENDBRANCH   5  12
TORSDOF 3
ENDMDL
MODEL 4
REMARK VINA RESULT: -4.695882224      2.215      3.967
REMARK  3 active torsions:
REMARK  status: ('A' for Active; 'I' for Inactive)
REMARK    1  A    between atoms: C2_2  and  N1_4 
REMARK    2  A    between atoms: C7_8  and  O1_9 
REMARK    3  A    between atoms: C8_11  and  O2_12 
ROOT
HETATM    1  N1  UNL     1      14.026  16.371  17.644  1.00  0.00    -0.361 N 
HETATM    2  C4  UNL     1      14.549  17.259  16.685  1.00  0.00     0.061 C 
HETATM    3  C5  UNL     1      14.256  16.650  15.325  1.00  0.00     0.047 C 
HETATM    4  C6  UNL     1      12.779  16.643  15.152  1.00  0.00     0.041 C 
HETATM    5  C7  UNL     1      11.953  16.292  16.321  1.00  0.00     0.167 C 
HETATM    6  C8  UNL     1      12.621  16.308  17.653  1.00  0.00     0.248 C 
ENDROOT
BRANCH   1   7
HETATM    7  C2  UNL     1      14.748  16.007  18.761  1.00  0.00     0.078 C 
HETATM    8  C1  UNL     1      16.171  16.577  18.734  1.00  0.00     0.032 C 
HETATM    9  C3  UNL     1      14.887  14.534  19.024  1.00  0.00     0.032 C 
ENDBRANCH   1   7
BRANCH   6  10
HETATM   10  O2  UNL     1      12.164  17.423  18.399  1.00  0.00    -0.374 OA
ATOM     11  H2  UNL     1      11.457  17.817  17.901  1.00  0.00     0.212 HD
ENDBRANCH   6  10
BRANCH   5  12
HETATM   12  O1  UNL     1      11.347  15.041  16.077  1.00  0.00    -0.391 OA
ATOM     13  H1  UNL     1      11.634  14.434  16.748  1.00  0.00     0.210 HD
ENDBRANCH   5  12
TORSDOF 3
ENDMDL
MODEL 5
REMARK VINA RESULT: -4.589522302      1.756      3.337
REMARK  3 active torsions:
REMARK  status: ('A' for Active; 'I' for Inactive)
REMARK    1  A    between atoms: C2_2  and  N1_4 
REMARK    2  A    between atoms: C7_8  and  O1_9 
REMARK    3  A    between atoms: C8_11  and  O2_12 
ROOT
HETATM    1  N1  UNL     1      14.055  15.999  16.476  1.00  0.00    -0.361 N 
HETATM    2  C4  UNL     1      12.677  16.122  16.736  1.00  0.00     0.061 C 
HETATM    3  C5  UNL     1      12.201  14.760  17.209  1.00  0.00     0.047 C 
HETATM    4  C6  UNL     1      12.866  14.486  18.511  1.00  0.00     0.041 C 
HETATM    5  C7  UNL     1      14.282  14.874  18.653  1.00  0.00     0.167 C 
HETATM    6  C8  UNL     1      14.835  15.806  17.631  1.00  0.00     0.248 C 
ENDROOT
BRANCH   1   7
HETATM    7  C2  UNL     1      14.622  16.509  15.328  1.00  0.00     0.078 C 
HETATM    8  C1  UNL     1      14.009  17.859  14.937  1.00  0.00     0.032 C 
HETATM    9  C3  UNL     1      14.557  15.644  14.101  1.00  0.00     0.032 C 
ENDBRANCH   1   7
BRANCH   6  10
HETATM   10  O2  UNL     1      15.033  17.083  18.211  1.00  0.00    -0.374 OA
ATOM     11  H2  UNL     1      15.928  17.106  18.529  1.00  0.00     0.212 HD
ENDBRANCH   6  10
BRANCH   5  12
HETATM   12  O1  UNL     1      15.057  13.698  18.736  1.00  0.00    -0.391 OA
ATOM     13  H1  UNL     1      15.930  13.936  19.026  1.00  0.00     0.210 HD
ENDBRANCH   5  12
TORSDOF 3
ENDMDL
