MODEL 1
REMARK VINA RESULT: -8.044663607      0.000      0.000
REMARK  8 active torsions:
REMARK  status: ('A' for Active; 'I' for Inactive)
REMARK    1  A    between atoms: C2_5  and  C3_6 
REMARK    2  A    between atoms: C2_5  and  C6_14 
REMARK    3  A    between atoms: C3_6  and  N3_7 
REMARK    4  A    between atoms: C6_14  and  N6_15 
REMARK    5  A    between atoms: C8_21  and  N9_22 
REMARK    6  A    between atoms: C9_27  and  N11_28 
REMARK    7  A    between atoms: C11_32  and  C12_33 
REMARK    8  A    between atoms: C13_42  and  N16_43 
ROOT
HETATM    1  N1  UNL     1      -0.914 -23.893   6.028  1.00  0.00    -0.172 NA
HETATM    2  C1  UNL     1      -0.741 -22.996   6.720  1.00  0.00     0.181 C 
HETATM    3  N2  UNL     1      -0.541 -21.918   7.572  1.00  0.00    -0.298 N 
ATOM      4  H2  UNL     1      -0.221 -22.108   8.521  1.00  0.00     0.177 HD
HETATM    5  C2  UNL     1      -0.736 -20.689   7.232  1.00  0.00     0.036 C 
ENDROOT
BRANCH   5   6
HETATM    6  C3  UNL     1      -1.202 -20.425   5.848  1.00  0.00     0.204 C 
BRANCH   6   7
HETATM    7  N3  UNL     1      -0.174 -19.862   4.998  1.00  0.00    -0.282 N 
HETATM    8  C4  UNL     1       0.781 -20.636   4.402  1.00  0.00     0.130 A 
HETATM    9  C5  UNL     1       1.613 -19.826   3.660  1.00  0.00     0.127 A 
HETATM   10  N4  UNL     1       1.138 -18.573   3.828  1.00  0.00    -0.296 N 
HETATM   11  N5  UNL     1       0.102 -18.653   4.613  1.00  0.00    -0.241 N 
ATOM     12  H4  UNL     1       1.519 -17.722   3.417  1.00  0.00     0.187 HD
ATOM     13  H5  UNL     1      -0.444 -17.840   4.898  1.00  0.00     0.208 HD
ENDBRANCH   6   7
ENDBRANCH   5   6
BRANCH   5  14
HETATM   14  C6  UNL     1      -0.508 -19.599   8.175  1.00  0.00     0.205 C 
BRANCH  14  15
HETATM   15  N6  UNL     1      -1.629 -18.683   8.320  1.00  0.00    -0.269 N 
HETATM   16  N7  UNL     1      -2.803 -19.027   8.829  1.00  0.00    -0.280 N 
HETATM   17  C7  UNL     1      -3.826 -18.180   8.956  1.00  0.00     0.150 A 
ATOM     18  H7  UNL     1      -2.931 -19.991   9.139  1.00  0.00     0.189 HD
HETATM   19  N8  UNL     1      -5.002 -18.552   9.474  1.00  0.00    -0.175 N 
HETATM   20  C10 UNL     1      -3.702 -16.848   8.544  1.00  0.00     0.072 A 
HETATM   21  C8  UNL     1      -6.055 -17.758   9.626  1.00  0.00     0.679 A 
ATOM     22  H8  UNL     1      -5.097 -19.522   9.776  1.00  0.00     0.186 HD
HETATM   23  N10 UNL     1      -5.932 -16.483   9.230  1.00  0.00    -0.176 N 
HETATM   24  C9  UNL     1      -4.791 -16.021   8.700  1.00  0.00     0.130 A 
ATOM     25  H10 UNL     1      -6.725 -15.851   9.334  1.00  0.00     0.186 HD
HETATM   26  C11 UNL     1      -2.510 -16.451   8.015  1.00  0.00     0.073 A 
HETATM   27  C13 UNL     1      -1.501 -17.426   7.927  1.00  0.00     0.131 A 
BRANCH  21  28
HETATM   28  N9  UNL     1      -7.177 -18.151  10.130  1.00  0.00    -0.234 N 
ATOM     29  H92 UNL     1      -7.237 -19.087  10.531  1.00  0.00     0.174 HD
ATOM     30  H91 UNL     1      -8.017 -17.573  10.152  1.00  0.00     0.174 HD
ENDBRANCH  21  28
BRANCH  24  31
HETATM   31  N11 UNL     1      -4.732 -14.798   8.341  1.00  0.00    -0.384 N 
ATOM     32 2H11 UNL     1      -5.296 -14.091   8.812  1.00  0.00     0.157 HD
ATOM     33 1H11 UNL     1      -4.109 -14.541   7.574  1.00  0.00     0.157 HD
ENDBRANCH  24  31
BRANCH  26  34
HETATM   34  C12 UNL     1      -2.263 -15.110   7.559  1.00  0.00     0.152 A 
HETATM   35  N12 UNL     1      -1.513 -14.175   8.156  1.00  0.00    -0.268 N 
HETATM   36  N13 UNL     1      -1.508 -13.079   7.383  1.00  0.00    -0.227 N 
ATOM     37  H12 UNL     1      -1.028 -14.279   9.047  1.00  0.00     0.190 HD
HETATM   38  N14 UNL     1      -2.243 -13.309   6.312  1.00  0.00    -0.227 N 
ATOM     39  H13 UNL     1      -1.017 -12.209   7.590  1.00  0.00     0.210 HD
HETATM   40  N15 UNL     1      -2.707 -14.562   6.423  1.00  0.00    -0.268 N 
ATOM     41  H14 UNL     1      -2.423 -12.659   5.546  1.00  0.00     0.210 HD
ATOM     42  H15 UNL     1      -3.309 -15.027   5.744  1.00  0.00     0.190 HD
ENDBRANCH  26  34
BRANCH  27  43
HETATM   43  N16 UNL     1      -0.382 -17.037   7.424  1.00  0.00    -0.383 N 
ATOM     44 2H16 UNL     1       0.256 -17.775   7.127  1.00  0.00     0.157 HD
ATOM     45 1H16 UNL     1      -0.191 -16.038   7.349  1.00  0.00     0.157 HD
ENDBRANCH  27  43
ENDBRANCH  14  15
ENDBRANCH   5  14
TORSDOF 8
ENDMDL
MODEL 2
REMARK VINA RESULT: -7.868429376      2.160      7.606
REMARK  8 active torsions:
REMARK  status: ('A' for Active; 'I' for Inactive)
REMARK    1  A    between atoms: C2_5  and  C3_6 
REMARK    2  A    between atoms: C2_5  and  C6_14 
REMARK    3  A    between atoms: C3_6  and  N3_7 
REMARK    4  A    between atoms: C6_14  and  N6_15 
REMARK    5  A    between atoms: C8_21  and  N9_22 
REMARK    6  A    between atoms: C9_27  and  N11_28 
REMARK    7  A    between atoms: C11_32  and  C12_33 
REMARK    8  A    between atoms: C13_42  and  N16_43 
ROOT
HETATM    1  N1  UNL     1      -3.505 -18.480   9.632  1.00  0.00    -0.172 NA
HETATM    2  C1  UNL     1      -3.120 -18.627   8.563  1.00  0.00     0.181 C 
HETATM    3  N2  UNL     1      -2.655 -18.824   7.269  1.00  0.00    -0.298 N 
ATOM      4  H2  UNL     1      -3.163 -19.473   6.669  1.00  0.00     0.177 HD
HETATM    5  C2  UNL     1      -1.617 -18.232   6.783  1.00  0.00     0.036 C 
ENDROOT
BRANCH   5   6
HETATM    6  C3  UNL     1      -0.886 -17.289   7.666  1.00  0.00     0.204 C 
BRANCH   6   7
HETATM    7  N3  UNL     1      -1.393 -15.935   7.598  1.00  0.00    -0.282 N 
HETATM    8  C4  UNL     1      -2.411 -15.582   6.758  1.00  0.00     0.130 A 
HETATM    9  C5  UNL     1      -2.674 -14.238   6.916  1.00  0.00     0.127 A 
HETATM   10  N4  UNL     1      -1.801 -13.810   7.853  1.00  0.00    -0.296 N 
HETATM   11  N5  UNL     1      -1.083 -14.835   8.213  1.00  0.00    -0.241 N 
ATOM     12  H4  UNL     1      -1.718 -12.859   8.213  1.00  0.00     0.187 HD
ATOM     13  H5  UNL     1      -0.345 -14.778   8.915  1.00  0.00     0.208 HD
ENDBRANCH   6   7
ENDBRANCH   5   6
BRANCH   5  14
HETATM   14  C6  UNL     1      -1.177 -18.482   5.414  1.00  0.00     0.205 C 
BRANCH  14  15
HETATM   15  N6  UNL     1      -0.169 -19.523   5.285  1.00  0.00    -0.269 N 
HETATM   16  N7  UNL     1      -0.229 -20.690   5.908  1.00  0.00    -0.280 N 
HETATM   17  C7  UNL     1       0.702 -21.638   5.785  1.00  0.00     0.150 A 
ATOM     18  H7  UNL     1      -1.029 -20.874   6.514  1.00  0.00     0.189 HD
HETATM   19  N8  UNL     1       0.619 -22.810   6.425  1.00  0.00    -0.175 N 
HETATM   20  C10 UNL     1       1.820 -21.435   4.967  1.00  0.00     0.072 A 
HETATM   21  C8  UNL     1       1.511 -23.790   6.344  1.00  0.00     0.679 A 
ATOM     22  H8  UNL     1      -0.194 -22.962   7.022  1.00  0.00     0.186 HD
HETATM   23  N10 UNL     1       2.580 -23.591   5.559  1.00  0.00    -0.176 N 
HETATM   24  C9  UNL     1       2.747 -22.448   4.879  1.00  0.00     0.130 A 
ATOM     25  H10 UNL     1       3.282 -24.326   5.478  1.00  0.00     0.186 HD
HETATM   26  C11 UNL     1       1.921 -20.246   4.306  1.00  0.00     0.073 A 
HETATM   27  C13 UNL     1       0.884 -19.320   4.509  1.00  0.00     0.131 A 
BRANCH  21  28
HETATM   28  N9  UNL     1       1.399 -24.909   6.976  1.00  0.00    -0.234 N 
ATOM     29  H92 UNL     1       2.053 -25.118   7.730  1.00  0.00     0.174 HD
ATOM     30  H91 UNL     1       0.685 -25.606   6.765  1.00  0.00     0.174 HD
ENDBRANCH  21  28
BRANCH  24  31
HETATM   31  N11 UNL     1       3.784 -22.315   4.148  1.00  0.00    -0.384 N 
ATOM     32 2H11 UNL     1       3.801 -21.628   3.393  1.00  0.00     0.157 HD
ATOM     33 1H11 UNL     1       4.595 -22.906   4.332  1.00  0.00     0.157 HD
ENDBRANCH  24  31
BRANCH  26  34
HETATM   34  C12 UNL     1       3.020 -19.925   3.438  1.00  0.00     0.152 A 
HETATM   35  N12 UNL     1       3.120 -20.177   2.127  1.00  0.00    -0.268 N 
HETATM   36  N13 UNL     1       4.284 -19.676   1.686  1.00  0.00    -0.227 N 
ATOM     37  H12 UNL     1       2.428 -20.667   1.559  1.00  0.00     0.190 HD
HETATM   38  N14 UNL     1       4.917 -19.114   2.698  1.00  0.00    -0.227 N 
ATOM     39  H13 UNL     1       4.624 -19.722   0.725  1.00  0.00     0.210 HD
HETATM   40  N15 UNL     1       4.136 -19.269   3.776  1.00  0.00    -0.268 N 
ATOM     41  H14 UNL     1       5.825 -18.651   2.666  1.00  0.00     0.210 HD
ATOM     42  H15 UNL     1       4.359 -18.938   4.715  1.00  0.00     0.190 HD
ENDBRANCH  26  34
BRANCH  27  43
HETATM   43  N16 UNL     1       0.993 -18.202   3.880  1.00  0.00    -0.383 N 
ATOM     44 2H16 UNL     1       1.118 -17.373   4.459  1.00  0.00     0.157 HD
ATOM     45 1H16 UNL     1       0.951 -18.200   2.861  1.00  0.00     0.157 HD
ENDBRANCH  27  43
ENDBRANCH  14  15
ENDBRANCH   5  14
TORSDOF 8
ENDMDL
MODEL 3
REMARK VINA RESULT: -7.849920817      2.208      3.599
REMARK  8 active torsions:
REMARK  status: ('A' for Active; 'I' for Inactive)
REMARK    1  A    between atoms: C2_5  and  C3_6 
REMARK    2  A    between atoms: C2_5  and  C6_14 
REMARK    3  A    between atoms: C3_6  and  N3_7 
REMARK    4  A    between atoms: C6_14  and  N6_15 
REMARK    5  A    between atoms: C8_21  and  N9_22 
REMARK    6  A    between atoms: C9_27  and  N11_28 
REMARK    7  A    between atoms: C11_32  and  C12_33 
REMARK    8  A    between atoms: C13_42  and  N16_43 
ROOT
HETATM    1  N1  UNL     1       4.330 -20.108   5.674  1.00  0.00    -0.172 NA
HETATM    2  C1  UNL     1       3.186 -20.172   5.641  1.00  0.00     0.181 C 
HETATM    3  N2  UNL     1       1.801 -20.268   5.607  1.00  0.00    -0.298 N 
ATOM      4  H2  UNL     1       1.333 -20.739   6.380  1.00  0.00     0.177 HD
HETATM    5  C2  UNL     1       1.073 -19.795   4.652  1.00  0.00     0.036 C 
ENDROOT
BRANCH   5   6
HETATM    6  C3  UNL     1       1.768 -19.112   3.532  1.00  0.00     0.204 C 
BRANCH   6   7
HETATM    7  N3  UNL     1       1.865 -19.928   2.341  1.00  0.00    -0.282 N 
HETATM    8  C4  UNL     1       3.027 -20.549   1.978  1.00  0.00     0.130 A 
HETATM    9  C5  UNL     1       2.813 -21.249   0.809  1.00  0.00     0.127 A 
HETATM   10  N4  UNL     1       1.518 -21.032   0.494  1.00  0.00    -0.296 N 
HETATM   11  N5  UNL     1       1.017 -20.261   1.415  1.00  0.00    -0.241 N 
ATOM     12  H4  UNL     1       1.023 -21.404  -0.317  1.00  0.00     0.187 HD
ATOM     13  H5  UNL     1       0.047 -19.946   1.410  1.00  0.00     0.208 HD
ENDBRANCH   6   7
ENDBRANCH   5   6
BRANCH   5  14
HETATM   14  C6  UNL     1      -0.379 -19.929   4.673  1.00  0.00     0.205 C 
BRANCH  14  15
HETATM   15  N6  UNL     1      -0.990 -19.665   5.968  1.00  0.00    -0.269 N 
HETATM   16  N7  UNL     1      -1.165 -20.588   6.902  1.00  0.00    -0.280 N 
HETATM   17  C7  UNL     1      -1.728 -20.338   8.085  1.00  0.00     0.150 A 
ATOM     18  H7  UNL     1      -0.853 -21.539   6.707  1.00  0.00     0.189 HD
HETATM   19  N8  UNL     1      -1.894 -21.286   9.014  1.00  0.00    -0.175 N 
HETATM   20  C10 UNL     1      -2.176 -19.049   8.403  1.00  0.00     0.072 A 
HETATM   21  C8  UNL     1      -2.447 -21.100  10.207  1.00  0.00     0.679 A 
ATOM     22  H8  UNL     1      -1.569 -22.226   8.788  1.00  0.00     0.186 HD
HETATM   23  N10 UNL     1      -2.873 -19.865  10.505  1.00  0.00    -0.176 N 
HETATM   24  C9  UNL     1      -2.749 -18.851   9.638  1.00  0.00     0.130 A 
ATOM     25  H10 UNL     1      -3.303 -19.692  11.414  1.00  0.00     0.186 HD
HETATM   26  C11 UNL     1      -2.015 -18.069   7.468  1.00  0.00     0.073 A 
HETATM   27  C13 UNL     1      -1.409 -18.444   6.256  1.00  0.00     0.131 A 
BRANCH  21  28
HETATM   28  N9  UNL     1      -2.591 -22.040  11.080  1.00  0.00    -0.234 N 
ATOM     29  H92 UNL     1      -2.289 -22.985  10.843  1.00  0.00     0.174 HD
ATOM     30  H91 UNL     1      -2.994 -21.892  12.005  1.00  0.00     0.174 HD
ENDBRANCH  21  28
BRANCH  24  31
HETATM   31  N11 UNL     1      -3.174 -17.696   9.977  1.00  0.00    -0.384 N 
ATOM     32 2H11 UNL     1      -2.944 -16.875   9.417  1.00  0.00     0.157 HD
ATOM     33 1H11 UNL     1      -3.747 -17.610  10.816  1.00  0.00     0.157 HD
ENDBRANCH  24  31
BRANCH  26  34
HETATM   34  C12 UNL     1      -2.432 -16.710   7.679  1.00  0.00     0.152 A 
HETATM   35  N12 UNL     1      -1.651 -15.649   7.920  1.00  0.00    -0.268 N 
HETATM   36  N13 UNL     1      -2.431 -14.561   8.013  1.00  0.00    -0.227 N 
ATOM     37  H12 UNL     1      -0.635 -15.666   8.016  1.00  0.00     0.190 HD
HETATM   38  N14 UNL     1      -3.687 -14.921   7.835  1.00  0.00    -0.227 N 
ATOM     39  H13 UNL     1      -2.105 -13.611   8.192  1.00  0.00     0.210 HD
HETATM   40  N15 UNL     1      -3.685 -16.246   7.631  1.00  0.00    -0.268 N 
ATOM     41  H14 UNL     1      -4.504 -14.309   7.851  1.00  0.00     0.210 HD
ATOM     42  H15 UNL     1      -4.515 -16.815   7.463  1.00  0.00     0.190 HD
ENDBRANCH  26  34
BRANCH  27  43
HETATM   43  N16 UNL     1      -1.265 -17.509   5.383  1.00  0.00    -0.383 N 
ATOM     44 2H16 UNL     1      -0.311 -17.334   5.069  1.00  0.00     0.157 HD
ATOM     45 1H16 UNL     1      -2.087 -17.003   5.056  1.00  0.00     0.157 HD
ENDBRANCH  27  43
ENDBRANCH  14  15
ENDBRANCH   5  14
TORSDOF 8
ENDMDL
MODEL 4
REMARK VINA RESULT: -7.812328151      2.621      5.573
REMARK  8 active torsions:
REMARK  status: ('A' for Active; 'I' for Inactive)
REMARK    1  A    between atoms: C2_5  and  C3_6 
REMARK    2  A    between atoms: C2_5  and  C6_14 
REMARK    3  A    between atoms: C3_6  and  N3_7 
REMARK    4  A    between atoms: C6_14  and  N6_15 
REMARK    5  A    between atoms: C8_21  and  N9_22 
REMARK    6  A    between atoms: C9_27  and  N11_28 
REMARK    7  A    between atoms: C11_32  and  C12_33 
REMARK    8  A    between atoms: C13_42  and  N16_43 
ROOT
HETATM    1  N1  UNL     1       5.513 -19.385   3.458  1.00  0.00    -0.172 NA
HETATM    2  C1  UNL     1       4.369 -19.354   3.519  1.00  0.00     0.181 C 
HETATM    3  N2  UNL     1       2.984 -19.309   3.611  1.00  0.00    -0.298 N 
ATOM      4  H2  UNL     1       2.555 -18.472   4.005  1.00  0.00     0.177 HD
HETATM    5  C2  UNL     1       2.209 -20.266   3.226  1.00  0.00     0.036 C 
ENDROOT
BRANCH   5   6
HETATM    6  C3  UNL     1       2.845 -21.479   2.655  1.00  0.00     0.204 C 
BRANCH   6   7
HETATM    7  N3  UNL     1       2.621 -21.623   1.232  1.00  0.00    -0.282 N 
HETATM    8  C4  UNL     1       3.354 -20.934   0.307  1.00  0.00     0.130 A 
HETATM    9  C5  UNL     1       2.916 -21.278  -0.954  1.00  0.00     0.127 A 
HETATM   10  N4  UNL     1       1.923 -22.171  -0.758  1.00  0.00    -0.296 N 
HETATM   11  N5  UNL     1       1.795 -22.335   0.527  1.00  0.00    -0.241 N 
ATOM     12  H4  UNL     1       1.375 -22.634  -1.483  1.00  0.00     0.187 HD
ATOM     13  H5  UNL     1       1.108 -22.964   0.942  1.00  0.00     0.208 HD
ENDBRANCH   6   7
ENDBRANCH   5   6
BRANCH   5  14
HETATM   14  C6  UNL     1       0.759 -20.159   3.350  1.00  0.00     0.205 C 
BRANCH  14  15
HETATM   15  N6  UNL     1       0.250 -20.384   4.694  1.00  0.00    -0.269 N 
HETATM   16  N7  UNL     1       0.333 -21.543   5.330  1.00  0.00    -0.280 N 
HETATM   17  C7  UNL     1      -0.138 -21.741   6.562  1.00  0.00     0.150 A 
ATOM     18  H7  UNL     1       0.782 -22.326   4.853  1.00  0.00     0.189 HD
HETATM   19  N8  UNL     1      -0.042 -22.921   7.185  1.00  0.00    -0.175 N 
HETATM   20  C10 UNL     1      -0.764 -20.701   7.260  1.00  0.00     0.072 A 
HETATM   21  C8  UNL     1      -0.491 -23.180   8.407  1.00  0.00     0.679 A 
ATOM     22  H8  UNL     1       0.414 -23.682   6.681  1.00  0.00     0.186 HD
HETATM   23  N10 UNL     1      -1.090 -22.180   9.071  1.00  0.00    -0.176 N 
HETATM   24  C9  UNL     1      -1.231 -20.964   8.528  1.00  0.00     0.130 A 
ATOM     25  H10 UNL     1      -1.446 -22.351  10.011  1.00  0.00     0.186 HD
HETATM   26  C11 UNL     1      -0.872 -19.490   6.642  1.00  0.00     0.073 A 
HETATM   27  C13 UNL     1      -0.340 -19.394   5.343  1.00  0.00     0.131 A 
BRANCH  21  28
HETATM   28  N9  UNL     1      -0.381 -24.332   8.977  1.00  0.00    -0.234 N 
ATOM     29  H92 UNL     1       0.547 -24.737   9.098  1.00  0.00     0.174 HD
ATOM     30  H91 UNL     1      -1.177 -24.869   9.320  1.00  0.00     0.174 HD
ENDBRANCH  21  28
BRANCH  24  31
HETATM   31  N11 UNL     1      -1.810 -20.051   9.207  1.00  0.00    -0.384 N 
ATOM     32 2H11 UNL     1      -2.812 -20.101   9.393  1.00  0.00     0.157 HD
ATOM     33 1H11 UNL     1      -1.253 -19.273   9.559  1.00  0.00     0.157 HD
ENDBRANCH  24  31
BRANCH  26  34
HETATM   34  C12 UNL     1      -1.491 -18.348   7.257  1.00  0.00     0.152 A 
HETATM   35  N12 UNL     1      -0.880 -17.320   7.858  1.00  0.00    -0.268 N 
HETATM   36  N13 UNL     1      -1.817 -16.446   8.259  1.00  0.00    -0.227 N 
ATOM     37  H12 UNL     1       0.126 -17.217   7.989  1.00  0.00     0.190 HD
HETATM   38  N14 UNL     1      -3.005 -16.910   7.921  1.00  0.00    -0.227 N 
ATOM     39  H13 UNL     1      -1.639 -15.568   8.746  1.00  0.00     0.210 HD
HETATM   40  N15 UNL     1      -2.800 -18.083   7.304  1.00  0.00    -0.268 N 
ATOM     41  H14 UNL     1      -3.905 -16.463   8.095  1.00  0.00     0.210 HD
ATOM     42  H15 UNL     1      -3.534 -18.683   6.927  1.00  0.00     0.190 HD
ENDBRANCH  26  34
BRANCH  27  43
HETATM   43  N16 UNL     1      -0.449 -18.246   4.772  1.00  0.00    -0.383 N 
ATOM     44 2H16 UNL     1      -0.168 -18.205   3.793  1.00  0.00     0.157 HD
ATOM     45 1H16 UNL     1      -0.802 -17.455   5.309  1.00  0.00     0.157 HD
ENDBRANCH  27  43
ENDBRANCH  14  15
ENDBRANCH   5  14
TORSDOF 8
ENDMDL
MODEL 5
REMARK VINA RESULT: -7.627879955      0.932      2.591
REMARK  8 active torsions:
REMARK  status: ('A' for Active; 'I' for Inactive)
REMARK    1  A    between atoms: C2_5  and  C3_6 
REMARK    2  A    between atoms: C2_5  and  C6_14 
REMARK    3  A    between atoms: C3_6  and  N3_7 
REMARK    4  A    between atoms: C6_14  and  N6_15 
REMARK    5  A    between atoms: C8_21  and  N9_22 
REMARK    6  A    between atoms: C9_27  and  N11_28 
REMARK    7  A    between atoms: C11_32  and  C12_33 
REMARK    8  A    between atoms: C13_42  and  N16_43 
ROOT
HETATM    1  N1  UNL     1       0.404 -20.179   3.253  1.00  0.00    -0.172 NA
HETATM    2  C1  UNL     1       0.258 -19.857   4.344  1.00  0.00     0.181 C 
HETATM    3  N2  UNL     1       0.100 -19.463   5.666  1.00  0.00    -0.298 N 
ATOM      4  H2  UNL     1       0.480 -18.560   5.947  1.00  0.00     0.177 HD
HETATM    5  C2  UNL     1      -0.502 -20.174   6.559  1.00  0.00     0.036 C 
ENDROOT
BRANCH   5   6
HETATM    6  C3  UNL     1      -1.051 -21.486   6.138  1.00  0.00     0.204 C 
BRANCH   6   7
HETATM    7  N3  UNL     1      -0.311 -22.611   6.671  1.00  0.00    -0.282 N 
HETATM    8  C4  UNL     1       0.847 -23.056   6.098  1.00  0.00     0.130 A 
HETATM    9  C5  UNL     1       1.318 -24.130   6.823  1.00  0.00     0.127 A 
HETATM   10  N4  UNL     1       0.427 -24.308   7.821  1.00  0.00    -0.296 N 
HETATM   11  N5  UNL     1      -0.495 -23.400   7.685  1.00  0.00    -0.241 N 
ATOM     12  H4  UNL     1       0.469 -25.021   8.549  1.00  0.00     0.187 HD
ATOM     13  H5  UNL     1      -1.291 -23.316   8.318  1.00  0.00     0.208 HD
ENDBRANCH   6   7
ENDBRANCH   5   6
BRANCH   5  14
HETATM   14  C6  UNL     1      -0.635 -19.703   7.934  1.00  0.00     0.205 C 
BRANCH  14  15
HETATM   15  N6  UNL     1      -1.696 -18.727   8.137  1.00  0.00    -0.269 N 
HETATM   16  N7  UNL     1      -2.892 -19.028   8.621  1.00  0.00    -0.280 N 
HETATM   17  C7  UNL     1      -3.858 -18.127   8.802  1.00  0.00     0.150 A 
ATOM     18  H7  UNL     1      -3.084 -19.999   8.868  1.00  0.00     0.189 HD
HETATM   19  N8  UNL     1      -5.059 -18.454   9.293  1.00  0.00    -0.175 N 
HETATM   20  C10 UNL     1      -3.647 -16.781   8.479  1.00  0.00     0.072 A 
HETATM   21  C8  UNL     1      -6.060 -17.605   9.495  1.00  0.00     0.679 A 
ATOM     22  H8  UNL     1      -5.218 -19.433   9.531  1.00  0.00     0.186 HD
HETATM   23  N10 UNL     1      -5.852 -16.318   9.183  1.00  0.00    -0.176 N 
HETATM   24  C9  UNL     1      -4.680 -15.897   8.687  1.00  0.00     0.130 A 
ATOM     25  H10 UNL     1      -6.603 -15.643   9.327  1.00  0.00     0.186 HD
HETATM   26  C11 UNL     1      -2.428 -16.428   7.977  1.00  0.00     0.073 A 
HETATM   27  C13 UNL     1      -1.484 -17.459   7.827  1.00  0.00     0.131 A 
BRANCH  21  28
HETATM   28  N9  UNL     1      -7.207 -17.956   9.970  1.00  0.00    -0.234 N 
ATOM     29  H92 UNL     1      -7.775 -17.260  10.453  1.00  0.00     0.174 HD
ATOM     30  H91 UNL     1      -7.585 -18.900   9.891  1.00  0.00     0.174 HD
ENDBRANCH  21  28
BRANCH  24  31
HETATM   31  N11 UNL     1      -4.540 -14.659   8.408  1.00  0.00    -0.384 N 
ATOM     32 2H11 UNL     1      -5.351 -14.041   8.372  1.00  0.00     0.157 HD
ATOM     33 1H11 UNL     1      -3.604 -14.300   8.223  1.00  0.00     0.157 HD
ENDBRANCH  24  31
BRANCH  26  34
HETATM   34  C12 UNL     1      -2.093 -15.079   7.611  1.00  0.00     0.152 A 
HETATM   35  N12 UNL     1      -2.535 -14.393   6.551  1.00  0.00    -0.268 N 
HETATM   36  N13 UNL     1      -2.015 -13.156   6.600  1.00  0.00    -0.227 N 
ATOM     37  H12 UNL     1      -3.160 -14.749   5.827  1.00  0.00     0.190 HD
HETATM   38  N14 UNL     1      -1.255 -13.056   7.673  1.00  0.00    -0.227 N 
ATOM     39  H13 UNL     1      -2.182 -12.415   5.919  1.00  0.00     0.210 HD
HETATM   40  N15 UNL     1      -1.304 -14.243   8.294  1.00  0.00    -0.268 N 
ATOM     41  H14 UNL     1      -0.731 -12.233   7.973  1.00  0.00     0.210 HD
ATOM     42  H15 UNL     1      -0.813 -14.474   9.158  1.00  0.00     0.190 HD
ENDBRANCH  26  34
BRANCH  27  43
HETATM   43  N16 UNL     1      -0.339 -17.112   7.353  1.00  0.00    -0.383 N 
ATOM     44 2H16 UNL     1      -0.338 -16.768   6.393  1.00  0.00     0.157 HD
ATOM     45 1H16 UNL     1       0.489 -17.193   7.943  1.00  0.00     0.157 HD
ENDBRANCH  27  43
ENDBRANCH  14  15
ENDBRANCH   5  14
TORSDOF 8
ENDMDL
