MODEL 1
REMARK VINA RESULT: -5.608680304      0.000      0.000
REMARK  6 active torsions:
REMARK  status: ('A' for Active; 'I' for Inactive)
REMARK    1  A    between atoms: N1_1  and  C1_4 
REMARK    2  A    between atoms: C2_7  and  C3_8 
REMARK    3  A    between atoms: C3_8  and  C4_9 
REMARK    4  A    between atoms: C3_8  and  C5_14 
REMARK    5  A    between atoms: C4_9  and  N3_10 
REMARK    6  A    between atoms: C5_14  and  N4_15 
ROOT
HETATM    1  C3  UNL     1      83.499 -15.520  63.961  1.00  0.00     0.114 C 
ENDROOT
BRANCH   1   2
HETATM    2  C2  UNL     1      83.896 -14.310  64.743  1.00  0.00     0.170 A 
HETATM    3  N2  UNL     1      84.393 -14.288  65.993  1.00  0.00    -0.170 N 
HETATM    4  C1  UNL     1      84.614 -13.004  66.322  1.00  0.00     0.697 A 
ATOM      5  H2  UNL     1      84.571 -15.100  66.585  1.00  0.00     0.186 HD
HETATM    6  N5  UNL     1      84.251 -12.246  65.275  1.00  0.00    -0.090 N 
HETATM    7  O1  UNL     1      83.833 -13.056  64.364  1.00  0.00    -0.209 OA
ATOM      8  H5  UNL     1      84.298 -11.229  65.213  1.00  0.00     0.213 HD
BRANCH   4   9
HETATM    9  N1  UNL     1      85.088 -12.552  67.435  1.00  0.00    -0.233 N 
ATOM     10  H12 UNL     1      84.817 -12.879  68.362  1.00  0.00     0.174 HD
ATOM     11  H11 UNL     1      85.785 -11.818  67.556  1.00  0.00     0.174 HD
ENDBRANCH   4   9
ENDBRANCH   1   2
BRANCH   1  12
HETATM   12  C4  UNL     1      82.541 -15.082  62.882  1.00  0.00     0.244 C 
BRANCH  12  13
HETATM   13  N3  UNL     1      81.240 -15.664  63.024  1.00  0.00    -0.079 N 
ATOM     14  H33 UNL     1      80.977 -16.181  62.185  1.00  0.00     0.274 HD
ATOM     15  H32 UNL     1      81.256 -16.432  63.694  1.00  0.00     0.274 HD
ATOM     16  H31 UNL     1      80.525 -14.979  63.270  1.00  0.00     0.274 HD
ENDBRANCH  12  13
ENDBRANCH   1  12
BRANCH   1  17
HETATM   17  C5  UNL     1      84.694 -16.177  63.323  1.00  0.00     0.244 C 
BRANCH  17  18
HETATM   18  N4  UNL     1      84.364 -17.320  62.536  1.00  0.00    -0.079 N 
ATOM     19  H43 UNL     1      83.355 -17.386  62.402  1.00  0.00     0.274 HD
ATOM     20  H42 UNL     1      84.655 -17.187  61.567  1.00  0.00     0.274 HD
ATOM     21  H41 UNL     1      84.738 -18.193  62.908  1.00  0.00     0.274 HD
ENDBRANCH  17  18
ENDBRANCH   1  17
TORSDOF 6
ENDMDL
MODEL 2
REMARK VINA RESULT: -5.552680764      0.501      1.893
REMARK  6 active torsions:
REMARK  status: ('A' for Active; 'I' for Inactive)
REMARK    1  A    between atoms: N1_1  and  C1_4 
REMARK    2  A    between atoms: C2_7  and  C3_8 
REMARK    3  A    between atoms: C3_8  and  C4_9 
REMARK    4  A    between atoms: C3_8  and  C5_14 
REMARK    5  A    between atoms: C4_9  and  N3_10 
REMARK    6  A    between atoms: C5_14  and  N4_15 
ROOT
HETATM    1  C3  UNL     1      83.627 -15.261  63.462  1.00  0.00     0.114 C 
ENDROOT
BRANCH   1   2
HETATM    2  C2  UNL     1      83.997 -14.267  64.514  1.00  0.00     0.170 A 
HETATM    3  N2  UNL     1      84.493 -14.535  65.736  1.00  0.00    -0.170 N 
HETATM    4  C1  UNL     1      84.685 -13.363  66.365  1.00  0.00     0.697 A 
ATOM      5  H2  UNL     1      84.689 -15.461  66.116  1.00  0.00     0.186 HD
HETATM    6  N5  UNL     1      84.307 -12.384  65.528  1.00  0.00    -0.090 N 
HETATM    7  O1  UNL     1      83.907 -12.960  64.447  1.00  0.00    -0.209 OA
ATOM      8  H5  UNL     1      84.331 -11.381  65.712  1.00  0.00     0.213 HD
BRANCH   4   9
HETATM    9  N1  UNL     1      85.149 -13.182  67.556  1.00  0.00    -0.233 N 
ATOM     10  H12 UNL     1      84.896 -13.738  68.373  1.00  0.00     0.174 HD
ATOM     11  H11 UNL     1      85.818 -12.474  67.857  1.00  0.00     0.174 HD
ENDBRANCH   4   9
ENDBRANCH   1   2
BRANCH   1  12
HETATM   12  C4  UNL     1      84.752 -16.260  63.351  1.00  0.00     0.244 C 
BRANCH  12  13
HETATM   13  N3  UNL     1      84.405 -17.400  62.556  1.00  0.00    -0.079 N 
ATOM     14  H33 UNL     1      84.856 -17.359  61.642  1.00  0.00     0.274 HD
ATOM     15  H32 UNL     1      84.844 -18.246  62.920  1.00  0.00     0.274 HD
ATOM     16  H31 UNL     1      83.397 -17.523  62.461  1.00  0.00     0.274 HD
ENDBRANCH  12  13
ENDBRANCH   1  12
BRANCH   1  17
HETATM   17  C5  UNL     1      82.357 -15.988  63.816  1.00  0.00     0.244 C 
BRANCH  17  18
HETATM   18  N4  UNL     1      81.249 -15.635  62.990  1.00  0.00    -0.079 N 
ATOM     19  H43 UNL     1      81.475 -15.773  62.005  1.00  0.00     0.274 HD
ATOM     20  H42 UNL     1      80.495 -16.316  63.088  1.00  0.00     0.274 HD
ATOM     21  H41 UNL     1      80.903 -14.689  63.152  1.00  0.00     0.274 HD
ENDBRANCH  17  18
ENDBRANCH   1  17
TORSDOF 6
ENDMDL
MODEL 3
REMARK VINA RESULT: -5.551474333      2.193      4.381
REMARK  6 active torsions:
REMARK  status: ('A' for Active; 'I' for Inactive)
REMARK    1  A    between atoms: N1_1  and  C1_4 
REMARK    2  A    between atoms: C2_7  and  C3_8 
REMARK    3  A    between atoms: C3_8  and  C4_9 
REMARK    4  A    between atoms: C3_8  and  C5_14 
REMARK    5  A    between atoms: C4_9  and  N3_10 
REMARK    6  A    between atoms: C5_14  and  N4_15 
ROOT
HETATM    1  C3  UNL     1      85.578 -14.404  65.069  1.00  0.00     0.114 C 
ENDROOT
BRANCH   1   2
HETATM    2  C2  UNL     1      84.833 -15.472  64.337  1.00  0.00     0.170 A 
HETATM    3  N2  UNL     1      83.640 -15.995  64.673  1.00  0.00    -0.170 N 
HETATM    4  C1  UNL     1      83.329 -16.926  63.755  1.00  0.00     0.697 A 
ATOM      5  H2  UNL     1      83.073 -15.732  65.480  1.00  0.00     0.186 HD
HETATM    6  N5  UNL     1      84.330 -16.970  62.863  1.00  0.00    -0.090 N 
HETATM    7  O1  UNL     1      85.198 -16.096  63.243  1.00  0.00    -0.209 OA
ATOM      8  H5  UNL     1      84.392 -17.575  62.044  1.00  0.00     0.213 HD
BRANCH   4   9
HETATM    9  N1  UNL     1      82.267 -17.660  63.714  1.00  0.00    -0.233 N 
ATOM     10  H12 UNL     1      81.929 -18.244  64.478  1.00  0.00     0.174 HD
ATOM     11  H11 UNL     1      81.620 -17.766  62.933  1.00  0.00     0.174 HD
ENDBRANCH   4   9
ENDBRANCH   1   2
BRANCH   1  12
HETATM   12  C4  UNL     1      84.604 -13.700  65.981  1.00  0.00     0.244 C 
BRANCH  12  13
HETATM   13  N3  UNL     1      85.114 -13.522  67.307  1.00  0.00    -0.079 N 
ATOM     14  H33 UNL     1      85.741 -14.285  67.563  1.00  0.00     0.274 HD
ATOM     15  H32 UNL     1      85.774 -12.746  67.343  1.00  0.00     0.274 HD
ATOM     16  H31 UNL     1      84.376 -13.407  68.002  1.00  0.00     0.274 HD
ENDBRANCH  12  13
ENDBRANCH   1  12
BRANCH   1  17
HETATM   17  C5  UNL     1      86.696 -14.982  65.896  1.00  0.00     0.244 C 
BRANCH  17  18
HETATM   18  N4  UNL     1      87.524 -15.894  65.177  1.00  0.00    -0.079 N 
ATOM     19  H43 UNL     1      87.073 -16.806  65.099  1.00  0.00     0.274 HD
ATOM     20  H42 UNL     1      87.567 -15.641  64.189  1.00  0.00     0.274 HD
ATOM     21  H41 UNL     1      88.462 -15.988  65.566  1.00  0.00     0.274 HD
ENDBRANCH  17  18
ENDBRANCH   1  17
TORSDOF 6
ENDMDL
MODEL 4
REMARK VINA RESULT: -5.386130997      1.980      4.334
REMARK  6 active torsions:
REMARK  status: ('A' for Active; 'I' for Inactive)
REMARK    1  A    between atoms: N1_1  and  C1_4 
REMARK    2  A    between atoms: C2_7  and  C3_8 
REMARK    3  A    between atoms: C3_8  and  C4_9 
REMARK    4  A    between atoms: C3_8  and  C5_14 
REMARK    5  A    between atoms: C4_9  and  N3_10 
REMARK    6  A    between atoms: C5_14  and  N4_15 
ROOT
HETATM    1  C3  UNL     1      85.570 -14.281  65.199  1.00  0.00     0.114 C 
ENDROOT
BRANCH   1   2
HETATM    2  C2  UNL     1      84.487 -15.193  64.724  1.00  0.00     0.170 A 
HETATM    3  N2  UNL     1      84.528 -15.998  63.647  1.00  0.00    -0.170 N 
HETATM    4  C1  UNL     1      83.353 -16.645  63.575  1.00  0.00     0.697 A 
ATOM      5  H2  UNL     1      85.311 -16.100  63.000  1.00  0.00     0.186 HD
HETATM    6  N5  UNL     1      82.597 -16.235  64.606  1.00  0.00    -0.090 N 
HETATM    7  O1  UNL     1      83.304 -15.378  65.259  1.00  0.00    -0.209 OA
ATOM      8  H5  UNL     1      81.650 -16.541  64.828  1.00  0.00     0.213 HD
BRANCH   4   9
HETATM    9  N1  UNL     1      82.988 -17.509  62.687  1.00  0.00    -0.233 N 
ATOM     10  H12 UNL     1      83.566 -17.829  61.911  1.00  0.00     0.174 HD
ATOM     11  H11 UNL     1      82.092 -17.992  62.627  1.00  0.00     0.174 HD
ENDBRANCH   4   9
ENDBRANCH   1   2
BRANCH   1  12
HETATM   12  C4  UNL     1      84.931 -13.187  66.018  1.00  0.00     0.244 C 
BRANCH  12  13
HETATM   13  N3  UNL     1      85.005 -13.433  67.427  1.00  0.00    -0.079 N 
ATOM     14  H33 UNL     1      84.449 -14.248  67.685  1.00  0.00     0.274 HD
ATOM     15  H32 UNL     1      85.930 -13.774  67.690  1.00  0.00     0.274 HD
ATOM     16  H31 UNL     1      84.742 -12.620  67.984  1.00  0.00     0.274 HD
ENDBRANCH  12  13
ENDBRANCH   1  12
BRANCH   1  17
HETATM   17  C5  UNL     1      86.570 -15.015  66.053  1.00  0.00     0.244 C 
BRANCH  17  18
HETATM   18  N4  UNL     1      87.541 -15.740  65.300  1.00  0.00    -0.079 N 
ATOM     19  H43 UNL     1      87.736 -15.269  64.416  1.00  0.00     0.274 HD
ATOM     20  H42 UNL     1      88.461 -15.670  65.736  1.00  0.00     0.274 HD
ATOM     21  H41 UNL     1      87.290 -16.716  65.143  1.00  0.00     0.274 HD
ENDBRANCH  17  18
ENDBRANCH   1  17
TORSDOF 6
ENDMDL
MODEL 5
REMARK VINA RESULT: -5.328310950      2.220      4.648
REMARK  6 active torsions:
REMARK  status: ('A' for Active; 'I' for Inactive)
REMARK    1  A    between atoms: N1_1  and  C1_4 
REMARK    2  A    between atoms: C2_7  and  C3_8 
REMARK    3  A    between atoms: C3_8  and  C4_9 
REMARK    4  A    between atoms: C3_8  and  C5_14 
REMARK    5  A    between atoms: C4_9  and  N3_10 
REMARK    6  A    between atoms: C5_14  and  N4_15 
ROOT
HETATM    1  C3  UNL     1      85.821 -15.224  65.713  1.00  0.00     0.114 C 
ENDROOT
BRANCH   1   2
HETATM    2  C2  UNL     1      84.579 -15.506  64.933  1.00  0.00     0.170 A 
HETATM    3  N2  UNL     1      84.504 -15.845  63.633  1.00  0.00    -0.170 N 
HETATM    4  C1  UNL     1      83.206 -16.007  63.326  1.00  0.00     0.697 A 
ATOM      5  H2  UNL     1      85.292 -15.959  62.995  1.00  0.00     0.186 HD
HETATM    6  N5  UNL     1      82.492 -15.767  64.437  1.00  0.00    -0.090 N 
HETATM    7  O1  UNL     1      83.340 -15.475  65.362  1.00  0.00    -0.209 OA
ATOM      8  H5  UNL     1      81.477 -15.808  64.530  1.00  0.00     0.213 HD
BRANCH   4   9
HETATM    9  N1  UNL     1      82.708 -16.334  62.181  1.00  0.00    -0.233 N 
ATOM     10  H12 UNL     1      83.018 -17.121  61.611  1.00  0.00     0.174 HD
ATOM     11  H11 UNL     1      81.949 -15.870  61.682  1.00  0.00     0.174 HD
ENDBRANCH   4   9
ENDBRANCH   1   2
BRANCH   1  12
HETATM   12  C4  UNL     1      87.003 -15.478  64.811  1.00  0.00     0.244 C 
BRANCH  12  13
HETATM   13  N3  UNL     1      87.953 -16.385  65.384  1.00  0.00    -0.079 N 
ATOM     14  H33 UNL     1      88.640 -16.680  64.691  1.00  0.00     0.274 HD
ATOM     15  H32 UNL     1      88.572 -15.902  66.035  1.00  0.00     0.274 HD
ATOM     16  H31 UNL     1      87.512 -17.190  65.828  1.00  0.00     0.274 HD
ENDBRANCH  12  13
ENDBRANCH   1  12
BRANCH   1  17
HETATM   17  C5  UNL     1      85.860 -13.795  66.186  1.00  0.00     0.244 C 
BRANCH  17  18
HETATM   18  N4  UNL     1      85.130 -13.572  67.391  1.00  0.00    -0.079 N 
ATOM     19  H43 UNL     1      85.755 -13.575  68.197  1.00  0.00     0.274 HD
ATOM     20  H42 UNL     1      84.796 -12.609  67.438  1.00  0.00     0.274 HD
ATOM     21  H41 UNL     1      84.360 -14.227  67.529  1.00  0.00     0.274 HD
ENDBRANCH  17  18
ENDBRANCH   1  17
TORSDOF 6
ENDMDL
