MODEL 1
REMARK VINA RESULT: -7.943694262      0.000      0.000
REMARK  14 active torsions:
REMARK  status: ('A' for Active; 'I' for Inactive)
REMARK    1  A    between atoms: C2_2  and  C3_3 
REMARK    2  A    between atoms: C3_3  and  N1_4 
REMARK    3  A    between atoms: N1_4  and  C4_5 
REMARK    4  A    between atoms: C4_5  and  C5_6 
REMARK    5  A    between atoms: C5_6  and  C6_7 
REMARK    6  A    between atoms: C10_13  and  C11_14 
REMARK    7  A    between atoms: C11_14  and  C12_15 
REMARK    8  A    between atoms: C11_14  and  C14_17 
REMARK    9  A    between atoms: C14_17  and  O2_18 
REMARK   10  A    between atoms: C17_25  and  O3_26 
REMARK   11  A    between atoms: C18_30  and  C19_31 
REMARK   12  A    between atoms: C19_31  and  C20_32 
REMARK   13  A    between atoms: C24_39  and  C25_40 
REMARK   14  A    between atoms: C25_40  and  C26_41 
ROOT
HETATM    1  C6  UNL     1      20.969  15.152   4.258  1.00  0.00     0.087 C 
HETATM    2  C7  UNL     1      21.404  16.526   3.698  1.00  0.00     0.045 C 
HETATM    3  C8  UNL     1      22.860  16.552   3.313  1.00  0.00     0.134 C 
HETATM    4  N2  UNL     1      23.557  17.807   3.515  1.00  0.00    -0.314 N 
HETATM    5  C9  UNL     1      22.850  18.972   2.981  1.00  0.00     0.255 C 
HETATM    6  O1  UNL     1      21.596  18.940   2.952  1.00  0.00    -0.271 OA
HETATM    7  C10 UNL     1      23.502  20.183   2.464  1.00  0.00     0.284 C 
HETATM    8  N3  UNL     1      24.968  20.053   2.743  1.00  0.00    -0.057 N 
ATOM      9  H31 UNL     1      25.506  20.904   2.582  1.00  0.00     0.278 HD
ATOM     10  H32 UNL     1      25.477  19.477   2.071  1.00  0.00     0.278 HD
HETATM   11  C15 UNL     1      25.010  19.566   4.100  1.00  0.00     0.294 C 
HETATM   12  C16 UNL     1      24.823  18.036   4.095  1.00  0.00     0.091 C 
HETATM   13  C17 UNL     1      25.347  17.390   5.270  1.00  0.00     0.165 C 
HETATM   14  N4  UNL     1      25.403  17.632   6.654  1.00  0.00    -0.331 N 
ATOM     15  H4  UNL     1      26.326  17.912   6.985  1.00  0.00     0.168 HD
HETATM   16  C18 UNL     1      24.408  17.563   7.697  1.00  0.00     0.099 C 
HETATM   17  C23 UNL     1      23.076  17.083   7.163  1.00  0.00     0.268 C 
HETATM   18  O4  UNL     1      22.432  18.159   6.823  1.00  0.00    -0.266 OA
HETATM   19  N5  UNL     1      22.540  15.836   7.009  1.00  0.00    -0.342 N 
ATOM     20  H5  UNL     1      22.909  15.391   6.169  1.00  0.00     0.163 HD
HETATM   21  C24 UNL     1      21.610  14.961   7.675  1.00  0.00     0.177 C 
HETATM   22  C29 UNL     1      20.420  14.721   6.755  1.00  0.00     0.240 C 
HETATM   23  O5  UNL     1      19.560  13.941   7.273  1.00  0.00    -0.271 OA
HETATM   24  N6  UNL     1      20.224  15.259   5.485  1.00  0.00    -0.355 N 
ATOM     25  H6  UNL     1      19.391  15.843   5.410  1.00  0.00     0.162 HD
ENDROOT
BRANCH   1  26
HETATM   26  C5  UNL     1      19.959  14.584   3.221  1.00  0.00     0.053 C 
BRANCH  26  27
HETATM   27  C4  UNL     1      18.613  14.404   3.826  1.00  0.00     0.240 C 
BRANCH  27  28
HETATM   28  N1  UNL     1      18.306  12.967   3.737  1.00  0.00    -0.064 N 
HETATM   29  C30 UNL     1      16.949  12.695   4.079  1.00  0.00     0.238 C 
HETATM   30  C31 UNL     1      16.925  11.433   4.897  1.00  0.00     0.029 C 
HETATM   31  C32 UNL     1      18.347  11.052   5.127  1.00  0.00     0.029 C 
HETATM   32  C33 UNL     1      19.143  12.247   4.673  1.00  0.00     0.238 C 
BRANCH  28  33
HETATM   33  C3  UNL     1      18.566  12.576   2.368  1.00  0.00     0.264 C 
BRANCH  33  34
HETATM   34  C2  UNL     1      17.342  12.493   1.540  1.00  0.00    -0.009 C 
HETATM   35  C1  UNL     1      17.231  13.188   0.434  1.00  0.00     0.008 C 
ENDBRANCH  33  34
ENDBRANCH  28  33
ENDBRANCH  27  28
ENDBRANCH  26  27
ENDBRANCH   1  26
BRANCH  21  36
HETATM   36  C25 UNL     1      22.305  13.612   7.838  1.00  0.00     0.038 C 
BRANCH  36  37
HETATM   37  C26 UNL     1      22.005  12.996   9.163  1.00  0.00    -0.020 C 
HETATM   38  C27 UNL     1      21.347  11.632   8.952  1.00  0.00     0.009 C 
HETATM   39  C28 UNL     1      21.112  13.805  10.045  1.00  0.00     0.009 C 
ENDBRANCH  36  37
ENDBRANCH  21  36
BRANCH   7  40
HETATM   40  C11 UNL     1      23.146  21.518   2.950  1.00  0.00     0.049 C 
BRANCH  40  41
HETATM   41  C12 UNL     1      23.475  22.573   1.900  1.00  0.00     0.005 C 
HETATM   42  C13 UNL     1      24.518  23.559   2.201  1.00  0.00     0.005 C 
ENDBRANCH  40  41
BRANCH  40  43
HETATM   43  C14 UNL     1      21.770  21.822   3.424  1.00  0.00     0.171 C 
BRANCH  43  44
HETATM   44  O2  UNL     1      21.605  22.995   4.111  1.00  0.00    -0.400 OA
ATOM     45  H2  UNL     1      20.908  23.568   3.812  1.00  0.00     0.209 HD
ENDBRANCH  43  44
ENDBRANCH  40  43
ENDBRANCH   7  40
BRANCH  13  46
HETATM   46  O3  UNL     1      25.945  16.257   4.940  1.00  0.00    -0.345 OA
ATOM     47  H3  UNL     1      25.971  15.669   5.686  1.00  0.00     0.219 HD
ENDBRANCH  13  46
BRANCH  16  48
HETATM   48  C19 UNL     1      24.284  18.618   8.696  1.00  0.00     0.012 C 
BRANCH  48  49
HETATM   49  C20 UNL     1      24.979  19.896   8.687  1.00  0.00     0.002 C 
HETATM   50  C21 UNL     1      24.184  20.953   9.514  1.00  0.00     0.013 C 
HETATM   51  C22 UNL     1      26.313  19.799   9.428  1.00  0.00     0.013 C 
ENDBRANCH  48  49
ENDBRANCH  16  48
TORSDOF 14
ENDMDL
MODEL 2
REMARK VINA RESULT: -7.913686332      5.330     11.151
REMARK  14 active torsions:
REMARK  status: ('A' for Active; 'I' for Inactive)
REMARK    1  A    between atoms: C2_2  and  C3_3 
REMARK    2  A    between atoms: C3_3  and  N1_4 
REMARK    3  A    between atoms: N1_4  and  C4_5 
REMARK    4  A    between atoms: C4_5  and  C5_6 
REMARK    5  A    between atoms: C5_6  and  C6_7 
REMARK    6  A    between atoms: C10_13  and  C11_14 
REMARK    7  A    between atoms: C11_14  and  C12_15 
REMARK    8  A    between atoms: C11_14  and  C14_17 
REMARK    9  A    between atoms: C14_17  and  O2_18 
REMARK   10  A    between atoms: C17_25  and  O3_26 
REMARK   11  A    between atoms: C18_30  and  C19_31 
REMARK   12  A    between atoms: C19_31  and  C20_32 
REMARK   13  A    between atoms: C24_39  and  C25_40 
REMARK   14  A    between atoms: C25_40  and  C26_41 
ROOT
HETATM    1  C6  UNL     1      26.567  24.725   6.224  1.00  0.00     0.087 C 
HETATM    2  C7  UNL     1      26.219  25.288   4.826  1.00  0.00     0.045 C 
HETATM    3  C8  UNL     1      24.739  25.495   4.644  1.00  0.00     0.134 C 
HETATM    4  N2  UNL     1      24.215  25.267   3.313  1.00  0.00    -0.314 N 
HETATM    5  C9  UNL     1      24.974  25.931   2.253  1.00  0.00     0.255 C 
HETATM    6  O1  UNL     1      26.204  26.109   2.429  1.00  0.00    -0.271 OA
HETATM    7  C10 UNL     1      24.400  26.418   0.991  1.00  0.00     0.284 C 
HETATM    8  N3  UNL     1      22.974  25.960   0.944  1.00  0.00    -0.057 N 
ATOM      9  H31 UNL     1      22.517  26.093   0.042  1.00  0.00     0.278 HD
ATOM     10  H32 UNL     1      22.326  26.540   1.477  1.00  0.00     0.278 HD
HETATM   11  C15 UNL     1      23.048  24.588   1.382  1.00  0.00     0.294 C 
HETATM   12  C16 UNL     1      23.064  24.549   2.923  1.00  0.00     0.091 C 
HETATM   13  C17 UNL     1      22.621  23.292   3.470  1.00  0.00     0.165 C 
HETATM   14  N4  UNL     1      22.765  21.924   3.182  1.00  0.00    -0.331 N 
ATOM     15  H4  UNL     1      21.926  21.497   2.788  1.00  0.00     0.168 HD
HETATM   16  C18 UNL     1      23.868  21.006   3.334  1.00  0.00     0.099 C 
HETATM   17  C23 UNL     1      25.063  21.674   3.979  1.00  0.00     0.268 C 
HETATM   18  O4  UNL     1      25.773  22.135   2.994  1.00  0.00    -0.266 OA
HETATM   19  N5  UNL     1      25.435  21.838   5.283  1.00  0.00    -0.342 N 
ATOM     20  H5  UNL     1      24.917  22.607   5.708  1.00  0.00     0.163 HD
HETATM   21  C24 UNL     1      26.338  21.250   6.238  1.00  0.00     0.177 C 
HETATM   22  C29 UNL     1      27.371  22.295   6.640  1.00  0.00     0.240 C 
HETATM   23  O5  UNL     1      28.197  21.850   7.498  1.00  0.00    -0.271 OA
HETATM   24  N6  UNL     1      27.466  23.602   6.166  1.00  0.00    -0.355 N 
ATOM     25  H6  UNL     1      28.342  23.802   5.684  1.00  0.00     0.162 HD
ENDROOT
BRANCH   1  26
HETATM   26  C5  UNL     1      27.372  25.850   6.934  1.00  0.00     0.053 C 
BRANCH  26  27
HETATM   27  C4  UNL     1      26.464  26.833   7.582  1.00  0.00     0.240 C 
BRANCH  27  28
HETATM   28  N1  UNL     1      27.046  28.162   7.337  1.00  0.00    -0.064 N 
HETATM   29  C30 UNL     1      28.059  28.118   6.335  1.00  0.00     0.238 C 
HETATM   30  C31 UNL     1      29.178  29.023   6.772  1.00  0.00     0.029 C 
HETATM   31  C32 UNL     1      28.829  29.496   8.140  1.00  0.00     0.029 C 
HETATM   32  C33 UNL     1      27.663  28.639   8.557  1.00  0.00     0.238 C 
BRANCH  28  33
HETATM   33  C3  UNL     1      25.957  29.016   6.913  1.00  0.00     0.264 C 
BRANCH  33  34
HETATM   34  C2  UNL     1      25.729  28.991   5.451  1.00  0.00    -0.009 C 
HETATM   35  C1  UNL     1      24.526  29.157   4.956  1.00  0.00     0.008 C 
ENDBRANCH  33  34
ENDBRANCH  28  33
ENDBRANCH  27  28
ENDBRANCH  26  27
ENDBRANCH   1  26
BRANCH  21  36
HETATM   36  C25 UNL     1      25.524  20.947   7.494  1.00  0.00     0.038 C 
BRANCH  36  37
HETATM   37  C26 UNL     1      25.442  19.480   7.754  1.00  0.00    -0.020 C 
HETATM   38  C27 UNL     1      23.975  19.062   7.845  1.00  0.00     0.009 C 
HETATM   39  C28 UNL     1      26.129  19.021   8.998  1.00  0.00     0.009 C 
ENDBRANCH  36  37
ENDBRANCH  21  36
BRANCH   7  40
HETATM   40  C11 UNL     1      24.958  26.037  -0.308  1.00  0.00     0.049 C 
BRANCH  40  41
HETATM   41  C12 UNL     1      23.857  25.958  -1.360  1.00  0.00     0.005 C 
HETATM   42  C13 UNL     1      24.237  25.718  -2.755  1.00  0.00     0.005 C 
ENDBRANCH  40  41
BRANCH  40  43
HETATM   43  C14 UNL     1      26.065  26.813  -0.926  1.00  0.00     0.171 C 
BRANCH  43  44
HETATM   44  O2  UNL     1      27.270  26.786  -0.275  1.00  0.00    -0.400 OA
ATOM     45  H2  UNL     1      28.020  26.492  -0.780  1.00  0.00     0.209 HD
ENDBRANCH  43  44
ENDBRANCH  40  43
ENDBRANCH   7  40
BRANCH  13  46
HETATM   46  O3  UNL     1      21.866  23.499   4.537  1.00  0.00    -0.345 OA
ATOM     47  H3  UNL     1      21.277  22.766   4.669  1.00  0.00     0.219 HD
ENDBRANCH  13  46
BRANCH  16  48
HETATM   48  C19 UNL     1      24.230  20.075   2.271  1.00  0.00     0.012 C 
BRANCH  48  49
HETATM   49  C20 UNL     1      24.029  18.634   2.284  1.00  0.00     0.002 C 
HETATM   50  C21 UNL     1      24.599  18.017   3.598  1.00  0.00     0.013 C 
HETATM   51  C22 UNL     1      22.541  18.290   2.349  1.00  0.00     0.013 C 
ENDBRANCH  48  49
ENDBRANCH  16  48
TORSDOF 14
ENDMDL
MODEL 3
REMARK VINA RESULT: -7.884915870      5.372     11.279
REMARK  14 active torsions:
REMARK  status: ('A' for Active; 'I' for Inactive)
REMARK    1  A    between atoms: C2_2  and  C3_3 
REMARK    2  A    between atoms: C3_3  and  N1_4 
REMARK    3  A    between atoms: N1_4  and  C4_5 
REMARK    4  A    between atoms: C4_5  and  C5_6 
REMARK    5  A    between atoms: C5_6  and  C6_7 
REMARK    6  A    between atoms: C10_13  and  C11_14 
REMARK    7  A    between atoms: C11_14  and  C12_15 
REMARK    8  A    between atoms: C11_14  and  C14_17 
REMARK    9  A    between atoms: C14_17  and  O2_18 
REMARK   10  A    between atoms: C17_25  and  O3_26 
REMARK   11  A    between atoms: C18_30  and  C19_31 
REMARK   12  A    between atoms: C19_31  and  C20_32 
REMARK   13  A    between atoms: C24_39  and  C25_40 
REMARK   14  A    between atoms: C25_40  and  C26_41 
ROOT
HETATM    1  C6  UNL     1      26.606  24.460   6.604  1.00  0.00     0.087 C 
HETATM    2  C7  UNL     1      26.334  25.165   5.254  1.00  0.00     0.045 C 
HETATM    3  C8  UNL     1      24.873  25.461   5.048  1.00  0.00     0.134 C 
HETATM    4  N2  UNL     1      24.385  25.381   3.686  1.00  0.00    -0.314 N 
HETATM    5  C9  UNL     1      25.211  26.102   2.716  1.00  0.00     0.255 C 
HETATM    6  O1  UNL     1      26.441  26.202   2.945  1.00  0.00    -0.271 OA
HETATM    7  C10 UNL     1      24.705  26.730   1.488  1.00  0.00     0.284 C 
HETATM    8  N3  UNL     1      23.262  26.349   1.355  1.00  0.00    -0.057 N 
ATOM      9  H31 UNL     1      22.843  26.586   0.455  1.00  0.00     0.278 HD
ATOM     10  H32 UNL     1      22.623  26.910   1.919  1.00  0.00     0.278 HD
HETATM   11  C15 UNL     1      23.256  24.941   1.665  1.00  0.00     0.294 C 
HETATM   12  C16 UNL     1      23.216  24.760   3.195  1.00  0.00     0.091 C 
HETATM   13  C17 UNL     1      22.697  23.482   3.610  1.00  0.00     0.165 C 
HETATM   14  N4  UNL     1      22.787  22.141   3.200  1.00  0.00    -0.331 N 
ATOM     15  H4  UNL     1      21.944  21.793   2.743  1.00  0.00     0.168 HD
HETATM   16  C18 UNL     1      23.841  21.159   3.300  1.00  0.00     0.099 C 
HETATM   17  C23 UNL     1      25.042  21.706   4.040  1.00  0.00     0.268 C 
HETATM   18  O4  UNL     1      25.807  22.219   3.124  1.00  0.00    -0.266 OA
HETATM   19  N5  UNL     1      25.375  21.731   5.364  1.00  0.00    -0.342 N 
ATOM     20  H5  UNL     1      24.879  22.483   5.843  1.00  0.00     0.163 HD
HETATM   21  C24 UNL     1      26.216  21.014   6.288  1.00  0.00     0.177 C 
HETATM   22  C29 UNL     1      27.281  21.965   6.817  1.00  0.00     0.240 C 
HETATM   23  O5  UNL     1      28.056  21.404   7.655  1.00  0.00    -0.271 OA
HETATM   24  N6  UNL     1      27.453  23.304   6.469  1.00  0.00    -0.355 N 
ATOM     25  H6  UNL     1      28.354  23.503   6.035  1.00  0.00     0.162 HD
ENDROOT
BRANCH   1  26
HETATM   26  C5  UNL     1      27.437  25.474   7.440  1.00  0.00     0.053 C 
BRANCH  26  27
HETATM   27  C4  UNL     1      28.766  25.719   6.820  1.00  0.00     0.240 C 
BRANCH  27  28
HETATM   28  N1  UNL     1      28.945  27.179   6.782  1.00  0.00    -0.064 N 
HETATM   29  C30 UNL     1      27.839  27.862   7.367  1.00  0.00     0.238 C 
HETATM   30  C31 UNL     1      27.548  29.073   6.523  1.00  0.00     0.029 C 
HETATM   31  C32 UNL     1      28.454  28.994   5.344  1.00  0.00     0.029 C 
HETATM   32  C33 UNL     1      29.040  27.608   5.403  1.00  0.00     0.238 C 
BRANCH  28  33
HETATM   33  C3  UNL     1      30.158  27.464   7.520  1.00  0.00     0.264 C 
BRANCH  33  34
HETATM   34  C2  UNL     1      31.127  26.346   7.506  1.00  0.00    -0.009 C 
HETATM   35  C1  UNL     1      32.220  26.394   8.230  1.00  0.00     0.008 C 
ENDBRANCH  33  34
ENDBRANCH  28  33
ENDBRANCH  27  28
ENDBRANCH  26  27
ENDBRANCH   1  26
BRANCH  21  36
HETATM   36  C25 UNL     1      25.346  20.638   7.485  1.00  0.00     0.038 C 
BRANCH  36  37
HETATM   37  C26 UNL     1      25.322  19.163   7.703  1.00  0.00    -0.020 C 
HETATM   38  C27 UNL     1      23.883  18.656   7.596  1.00  0.00     0.009 C 
HETATM   39  C28 UNL     1      25.871  18.711   9.017  1.00  0.00     0.009 C 
ENDBRANCH  36  37
ENDBRANCH  21  36
BRANCH   7  40
HETATM   40  C11 UNL     1      25.290  26.442   0.177  1.00  0.00     0.049 C 
BRANCH  40  41
HETATM   41  C12 UNL     1      24.245  26.606  -0.922  1.00  0.00     0.005 C 
HETATM   42  C13 UNL     1      24.240  25.649  -2.033  1.00  0.00     0.005 C 
ENDBRANCH  40  41
BRANCH  40  43
HETATM   43  C14 UNL     1      26.503  27.158  -0.297  1.00  0.00     0.171 C 
BRANCH  43  44
HETATM   44  O2  UNL     1      27.683  26.842   0.324  1.00  0.00    -0.400 OA
ATOM     45  H2  UNL     1      27.734  27.022   1.256  1.00  0.00     0.209 HD
ENDBRANCH  43  44
ENDBRANCH  40  43
ENDBRANCH   7  40
BRANCH  13  46
HETATM   46  O3  UNL     1      21.915  23.628   4.667  1.00  0.00    -0.345 OA
ATOM     47  H3  UNL     1      21.379  24.406   4.573  1.00  0.00     0.219 HD
ENDBRANCH  13  46
BRANCH  16  48
HETATM   48  C19 UNL     1      24.196  20.313   2.166  1.00  0.00     0.012 C 
BRANCH  48  49
HETATM   49  C20 UNL     1      23.814  18.921   1.978  1.00  0.00     0.002 C 
HETATM   50  C21 UNL     1      24.632  18.000   2.935  1.00  0.00     0.013 C 
HETATM   51  C22 UNL     1      22.368  18.687   2.414  1.00  0.00     0.013 C 
ENDBRANCH  48  49
ENDBRANCH  16  48
TORSDOF 14
ENDMDL
MODEL 4
REMARK VINA RESULT: -7.834814655      5.323     11.224
REMARK  14 active torsions:
REMARK  status: ('A' for Active; 'I' for Inactive)
REMARK    1  A    between atoms: C2_2  and  C3_3 
REMARK    2  A    between atoms: C3_3  and  N1_4 
REMARK    3  A    between atoms: N1_4  and  C4_5 
REMARK    4  A    between atoms: C4_5  and  C5_6 
REMARK    5  A    between atoms: C5_6  and  C6_7 
REMARK    6  A    between atoms: C10_13  and  C11_14 
REMARK    7  A    between atoms: C11_14  and  C12_15 
REMARK    8  A    between atoms: C11_14  and  C14_17 
REMARK    9  A    between atoms: C14_17  and  O2_18 
REMARK   10  A    between atoms: C17_25  and  O3_26 
REMARK   11  A    between atoms: C18_30  and  C19_31 
REMARK   12  A    between atoms: C19_31  and  C20_32 
REMARK   13  A    between atoms: C24_39  and  C25_40 
REMARK   14  A    between atoms: C25_40  and  C26_41 
ROOT
HETATM    1  C6  UNL     1      26.531  24.721   6.233  1.00  0.00     0.087 C 
HETATM    2  C7  UNL     1      26.183  25.275   4.831  1.00  0.00     0.045 C 
HETATM    3  C8  UNL     1      24.702  25.467   4.643  1.00  0.00     0.134 C 
HETATM    4  N2  UNL     1      24.185  25.228   3.311  1.00  0.00    -0.314 N 
HETATM    5  C9  UNL     1      24.941  25.896   2.251  1.00  0.00     0.255 C 
HETATM    6  O1  UNL     1      26.168  26.087   2.431  1.00  0.00    -0.271 OA
HETATM    7  C10 UNL     1      24.367  26.373   0.986  1.00  0.00     0.284 C 
HETATM    8  N3  UNL     1      22.946  25.900   0.935  1.00  0.00    -0.057 N 
ATOM      9  H31 UNL     1      22.492  26.024   0.030  1.00  0.00     0.278 HD
ATOM     10  H32 UNL     1      22.290  26.475   1.463  1.00  0.00     0.278 HD
HETATM   11  C15 UNL     1      23.032  24.530   1.378  1.00  0.00     0.294 C 
HETATM   12  C16 UNL     1      23.043  24.497   2.919  1.00  0.00     0.091 C 
HETATM   13  C17 UNL     1      22.611  23.238   3.469  1.00  0.00     0.165 C 
HETATM   14  N4  UNL     1      22.770  21.870   3.187  1.00  0.00    -0.331 N 
ATOM     15  H4  UNL     1      21.938  21.432   2.792  1.00  0.00     0.168 HD
HETATM   16  C18 UNL     1      23.883  20.964   3.347  1.00  0.00     0.099 C 
HETATM   17  C23 UNL     1      25.068  21.647   3.993  1.00  0.00     0.268 C 
HETATM   18  O4  UNL     1      25.777  22.112   3.009  1.00  0.00    -0.266 OA
HETATM   19  N5  UNL     1      25.433  21.819   5.298  1.00  0.00    -0.342 N 
ATOM     20  H5  UNL     1      24.906  22.585   5.718  1.00  0.00     0.163 HD
HETATM   21  C24 UNL     1      26.338  21.245   6.259  1.00  0.00     0.177 C 
HETATM   22  C29 UNL     1      27.359  22.301   6.661  1.00  0.00     0.240 C 
HETATM   23  O5  UNL     1      28.187  21.869   7.524  1.00  0.00    -0.271 OA
HETATM   24  N6  UNL     1      27.442  23.607   6.182  1.00  0.00    -0.355 N 
ATOM     25  H6  UNL     1      28.318  23.815   5.703  1.00  0.00     0.162 HD
ENDROOT
BRANCH   1  26
HETATM   26  C5  UNL     1      27.322  25.858   6.941  1.00  0.00     0.053 C 
BRANCH  26  27
HETATM   27  C4  UNL     1      26.409  26.928   7.421  1.00  0.00     0.240 C 
BRANCH  27  28
HETATM   28  N1  UNL     1      26.954  28.198   6.913  1.00  0.00    -0.064 N 
HETATM   29  C30 UNL     1      26.193  28.697   5.816  1.00  0.00     0.238 C 
HETATM   30  C31 UNL     1      27.156  29.256   4.805  1.00  0.00     0.029 C 
HETATM   31  C32 UNL     1      28.524  28.941   5.305  1.00  0.00     0.029 C 
HETATM   32  C33 UNL     1      28.304  27.976   6.440  1.00  0.00     0.238 C 
BRANCH  28  33
HETATM   33  C3  UNL     1      26.915  29.133   8.018  1.00  0.00     0.264 C 
BRANCH  33  34
HETATM   34  C2  UNL     1      25.623  29.843   8.138  1.00  0.00    -0.009 C 
HETATM   35  C1  UNL     1      25.532  30.964   8.813  1.00  0.00     0.008 C 
ENDBRANCH  33  34
ENDBRANCH  28  33
ENDBRANCH  27  28
ENDBRANCH  26  27
ENDBRANCH   1  26
BRANCH  21  36
HETATM   36  C25 UNL     1      25.523  20.938   7.513  1.00  0.00     0.038 C 
BRANCH  36  37
HETATM   37  C26 UNL     1      25.308  19.471   7.682  1.00  0.00    -0.020 C 
HETATM   38  C27 UNL     1      23.815  19.162   7.582  1.00  0.00     0.009 C 
HETATM   39  C28 UNL     1      25.809  18.906   8.971  1.00  0.00     0.009 C 
ENDBRANCH  36  37
ENDBRANCH  21  36
BRANCH   7  40
HETATM   40  C11 UNL     1      24.934  25.993  -0.310  1.00  0.00     0.049 C 
BRANCH  40  41
HETATM   41  C12 UNL     1      23.837  25.891  -1.364  1.00  0.00     0.005 C 
HETATM   42  C13 UNL     1      24.224  25.643  -2.757  1.00  0.00     0.005 C 
ENDBRANCH  40  41
BRANCH  40  43
HETATM   43  C14 UNL     1      26.031  26.781  -0.930  1.00  0.00     0.171 C 
BRANCH  43  44
HETATM   44  O2  UNL     1      27.233  26.781  -0.273  1.00  0.00    -0.400 OA
ATOM     45  H2  UNL     1      27.770  27.559  -0.368  1.00  0.00     0.209 HD
ENDBRANCH  43  44
ENDBRANCH  40  43
ENDBRANCH   7  40
BRANCH  13  46
HETATM   46  O3  UNL     1      21.850  23.441   4.532  1.00  0.00    -0.345 OA
ATOM     47  H3  UNL     1      22.027  22.782   5.193  1.00  0.00     0.219 HD
ENDBRANCH  13  46
BRANCH  16  48
HETATM   48  C19 UNL     1      24.259  20.033   2.288  1.00  0.00     0.012 C 
BRANCH  48  49
HETATM   49  C20 UNL     1      24.096  18.588   2.317  1.00  0.00     0.002 C 
HETATM   50  C21 UNL     1      24.640  18.006   3.658  1.00  0.00     0.013 C 
HETATM   51  C22 UNL     1      22.616  18.203   2.339  1.00  0.00     0.013 C 
ENDBRANCH  48  49
ENDBRANCH  16  48
TORSDOF 14
ENDMDL
MODEL 5
REMARK VINA RESULT: -7.830935875      5.444     11.321
REMARK  14 active torsions:
REMARK  status: ('A' for Active; 'I' for Inactive)
REMARK    1  A    between atoms: C2_2  and  C3_3 
REMARK    2  A    between atoms: C3_3  and  N1_4 
REMARK    3  A    between atoms: N1_4  and  C4_5 
REMARK    4  A    between atoms: C4_5  and  C5_6 
REMARK    5  A    between atoms: C5_6  and  C6_7 
REMARK    6  A    between atoms: C10_13  and  C11_14 
REMARK    7  A    between atoms: C11_14  and  C12_15 
REMARK    8  A    between atoms: C11_14  and  C14_17 
REMARK    9  A    between atoms: C14_17  and  O2_18 
REMARK   10  A    between atoms: C17_25  and  O3_26 
REMARK   11  A    between atoms: C18_30  and  C19_31 
REMARK   12  A    between atoms: C19_31  and  C20_32 
REMARK   13  A    between atoms: C24_39  and  C25_40 
REMARK   14  A    between atoms: C25_40  and  C26_41 
ROOT
HETATM    1  C6  UNL     1      26.653  24.567   6.558  1.00  0.00     0.087 C 
HETATM    2  C7  UNL     1      26.370  25.254   5.202  1.00  0.00     0.045 C 
HETATM    3  C8  UNL     1      24.904  25.532   4.997  1.00  0.00     0.134 C 
HETATM    4  N2  UNL     1      24.413  25.432   3.637  1.00  0.00    -0.314 N 
HETATM    5  C9  UNL     1      25.228  26.150   2.656  1.00  0.00     0.255 C 
HETATM    6  O1  UNL     1      26.458  26.265   2.880  1.00  0.00    -0.271 OA
HETATM    7  C10 UNL     1      24.712  26.759   1.423  1.00  0.00     0.284 C 
HETATM    8  N3  UNL     1      23.272  26.362   1.299  1.00  0.00    -0.057 N 
ATOM      9  H31 UNL     1      22.849  26.584   0.398  1.00  0.00     0.278 HD
ATOM     10  H32 UNL     1      22.629  26.921   1.859  1.00  0.00     0.278 HD
HETATM   11  C15 UNL     1      23.283  24.956   1.625  1.00  0.00     0.294 C 
HETATM   12  C16 UNL     1      23.250  24.793   3.158  1.00  0.00     0.091 C 
HETATM   13  C17 UNL     1      22.745  23.515   3.588  1.00  0.00     0.165 C 
HETATM   14  N4  UNL     1      22.848  22.170   3.193  1.00  0.00    -0.331 N 
ATOM     15  H4  UNL     1      22.007  21.808   2.743  1.00  0.00     0.168 HD
HETATM   16  C18 UNL     1      23.912  21.200   3.301  1.00  0.00     0.099 C 
HETATM   17  C23 UNL     1      25.109  21.768   4.031  1.00  0.00     0.268 C 
HETATM   18  O4  UNL     1      25.867  22.278   3.107  1.00  0.00    -0.266 OA
HETATM   19  N5  UNL     1      25.447  21.811   5.354  1.00  0.00    -0.342 N 
ATOM     20  H5  UNL     1      24.944  22.563   5.825  1.00  0.00     0.163 HD
HETATM   21  C24 UNL     1      26.298  21.114   6.283  1.00  0.00     0.177 C 
HETATM   22  C29 UNL     1      27.355  22.082   6.797  1.00  0.00     0.240 C 
HETATM   23  O5  UNL     1      28.138  21.539   7.639  1.00  0.00    -0.271 OA
HETATM   24  N6  UNL     1      27.512  23.418   6.434  1.00  0.00    -0.355 N 
ATOM     25  H6  UNL     1      28.409  23.623   5.995  1.00  0.00     0.162 HD
ENDROOT
BRANCH   1  26
HETATM   26  C5  UNL     1      27.476  25.600   7.380  1.00  0.00     0.053 C 
BRANCH  26  27
HETATM   27  C4  UNL     1      27.675  26.858   6.614  1.00  0.00     0.240 C 
BRANCH  27  28
HETATM   28  N1  UNL     1      29.111  27.172   6.696  1.00  0.00    -0.064 N 
HETATM   29  C30 UNL     1      29.801  26.802   5.504  1.00  0.00     0.238 C 
HETATM   30  C31 UNL     1      31.125  26.210   5.904  1.00  0.00     0.029 C 
HETATM   31  C32 UNL     1      31.120  26.132   7.392  1.00  0.00     0.029 C 
HETATM   32  C33 UNL     1      29.696  26.422   7.787  1.00  0.00     0.238 C 
BRANCH  28  33
HETATM   33  C3  UNL     1      29.208  28.600   6.909  1.00  0.00     0.264 C 
BRANCH  33  34
HETATM   34  C2  UNL     1      28.132  29.137   7.771  1.00  0.00    -0.009 C 
HETATM   35  C1  UNL     1      28.415  29.844   8.839  1.00  0.00     0.008 C 
ENDBRANCH  33  34
ENDBRANCH  28  33
ENDBRANCH  27  28
ENDBRANCH  26  27
ENDBRANCH   1  26
BRANCH  21  36
HETATM   36  C25 UNL     1      25.435  20.743   7.487  1.00  0.00     0.038 C 
BRANCH  36  37
HETATM   37  C26 UNL     1      25.343  19.264   7.659  1.00  0.00    -0.020 C 
HETATM   38  C27 UNL     1      23.876  18.837   7.606  1.00  0.00     0.009 C 
HETATM   39  C28 UNL     1      25.928  18.740   8.930  1.00  0.00     0.009 C 
ENDBRANCH  36  37
ENDBRANCH  21  36
BRANCH   7  40
HETATM   40  C11 UNL     1      25.296  26.462   0.113  1.00  0.00     0.049 C 
BRANCH  40  41
HETATM   41  C12 UNL     1      24.258  26.646  -0.988  1.00  0.00     0.005 C 
HETATM   42  C13 UNL     1      24.206  25.662  -2.074  1.00  0.00     0.005 C 
ENDBRANCH  40  41
BRANCH  40  43
HETATM   43  C14 UNL     1      26.523  27.157  -0.356  1.00  0.00     0.171 C 
BRANCH  43  44
HETATM   44  O2  UNL     1      27.696  26.815   0.265  1.00  0.00    -0.400 OA
ATOM     45  H2  UNL     1      27.935  25.896   0.245  1.00  0.00     0.209 HD
ENDBRANCH  43  44
ENDBRANCH  40  43
ENDBRANCH   7  40
BRANCH  13  46
HETATM   46  O3  UNL     1      21.965  23.664   4.646  1.00  0.00    -0.345 OA
ATOM     47  H3  UNL     1      22.400  24.196   5.302  1.00  0.00     0.219 HD
ENDBRANCH  13  46
BRANCH  16  48
HETATM   48  C19 UNL     1      24.273  20.345   2.175  1.00  0.00     0.012 C 
BRANCH  48  49
HETATM   49  C20 UNL     1      23.824  18.978   1.955  1.00  0.00     0.002 C 
HETATM   50  C21 UNL     1      24.593  17.996   2.891  1.00  0.00     0.013 C 
HETATM   51  C22 UNL     1      22.367  18.805   2.384  1.00  0.00     0.013 C 
ENDBRANCH  48  49
ENDBRANCH  16  48
TORSDOF 14
ENDMDL
