MODEL 1
REMARK VINA RESULT: -8.551038957      0.000      0.000
REMARK  14 active torsions:
REMARK  status: ('A' for Active; 'I' for Inactive)
REMARK    1  A    between atoms: C2_2  and  C3_3 
REMARK    2  A    between atoms: C3_3  and  N1_4 
REMARK    3  A    between atoms: C6_8  and  C7_9 
REMARK    4  A    between atoms: C7_9  and  C8_10 
REMARK    5  A    between atoms: C17_26  and  O3_27 
REMARK    6  A    between atoms: C18_31  and  C19_32 
REMARK    7  A    between atoms: C19_32  and  C20_33 
REMARK    8  A    between atoms: C24_40  and  C25_41 
REMARK    9  A    between atoms: C25_41  and  C26_42 
REMARK   10  A    between atoms: C26_42  and  C27_43 
REMARK   11  A    between atoms: C27_43  and  C28_44 
REMARK   12  A    between atoms: C28_44  and  C29_45 
REMARK   13  A    between atoms: C29_45  and  C30_46 
REMARK   14  A    between atoms: C31_49  and  O7_50 
ROOT
HETATM    1  N1  UNL     1      18.404  34.994  17.730  1.00  0.00    -0.251 N 
HETATM    2  C4  UNL     1      19.639  35.411  18.296  1.00  0.00     0.268 A 
HETATM    3  O1  UNL     1      20.027  36.075  19.307  1.00  0.00    -0.269 OA
HETATM    4  C5  UNL     1      20.283  34.729  17.189  1.00  0.00     0.242 A 
HETATM    5  C6  UNL     1      21.257  35.403  16.318  1.00  0.00     0.046 C 
HETATM    6  C15 UNL     1      22.651  35.195  16.868  1.00  0.00     0.250 C 
HETATM    7  O2  UNL     1      22.671  35.320  18.149  1.00  0.00    -0.268 OA
HETATM    8  N4  UNL     1      23.827  34.903  16.206  1.00  0.00    -0.350 N 
ATOM      9  H4  UNL     1      24.565  35.603  16.282  1.00  0.00     0.163 HD
HETATM   10  C16 UNL     1      24.155  33.693  15.392  1.00  0.00     0.206 C 
HETATM   11  C17 UNL     1      23.115  32.669  15.647  1.00  0.00     0.130 C 
HETATM   12  N5  UNL     1      22.195  31.970  14.948  1.00  0.00    -0.360 N 
ATOM     13  H5  UNL     1      21.522  32.629  14.558  1.00  0.00     0.162 HD
HETATM   14  C18 UNL     1      21.813  30.647  14.551  1.00  0.00     0.175 C 
HETATM   15  C23 UNL     1      20.613  30.224  15.407  1.00  0.00     0.241 C 
HETATM   16  O4  UNL     1      20.548  28.985  15.618  1.00  0.00    -0.271 OA
HETATM   17  N6  UNL     1      19.662  31.136  15.920  1.00  0.00    -0.347 N 
ATOM     18  H6  UNL     1      19.573  31.135  16.936  1.00  0.00     0.163 HD
HETATM   19  C24 UNL     1      18.809  32.053  15.248  1.00  0.00     0.161 C 
HETATM   20  C31 UNL     1      18.695  33.438  15.604  1.00  0.00     0.157 C 
HETATM   21  N7  UNL     1      19.041  34.261  16.676  1.00  0.00    -0.249 N 
ENDROOT
BRANCH   5  22
HETATM   22  C7  UNL     1      21.027  36.738  15.776  1.00  0.00     0.046 C 
BRANCH  22  23
HETATM   23  C8  UNL     1      21.831  37.888  16.117  1.00  0.00     0.045 A 
HETATM   24  N2  UNL     1      22.342  38.142  17.336  1.00  0.00    -0.357 N 
HETATM   25  C9  UNL     1      23.017  39.294  17.304  1.00  0.00     0.033 A 
ATOM     26  H2  UNL     1      22.232  37.546  18.156  1.00  0.00     0.166 HD
HETATM   27  C10 UNL     1      23.738  39.947  18.430  1.00  0.00     0.070 C 
HETATM   28  C11 UNL     1      22.962  39.831  16.045  1.00  0.00     0.067 A 
HETATM   29  N3  UNL     1      23.305  40.845  15.216  1.00  0.00    -0.364 N 
HETATM   30  C14 UNL     1      22.216  38.939  15.314  1.00  0.00     0.021 A 
HETATM   31  C12 UNL     1      22.796  40.612  13.996  1.00  0.00     0.089 A 
ATOM     32  H3  UNL     1      23.862  41.658  15.478  1.00  0.00     0.165 HD
HETATM   33  C13 UNL     1      22.101  39.427  14.004  1.00  0.00     0.033 A 
ENDBRANCH  22  23
ENDBRANCH   5  22
BRANCH   1  34
HETATM   34  C3  UNL     1      17.057  35.298  18.201  1.00  0.00     0.179 C 
BRANCH  34  35
HETATM   35  C2  UNL     1      16.004  34.467  17.647  1.00  0.00    -0.015 C 
HETATM   36  C1  UNL     1      15.253  34.910  16.661  1.00  0.00     0.008 C 
ENDBRANCH  34  35
ENDBRANCH   1  34
BRANCH  20  37
HETATM   37  O7  UNL     1      18.096  34.125  14.650  1.00  0.00    -0.347 OA
ATOM     38  H7  UNL     1      18.659  34.817  14.323  1.00  0.00     0.219 HD
ENDBRANCH  20  37
BRANCH  19  39
HETATM   39  C25 UNL     1      17.429  31.378  15.311  1.00  0.00     0.034 C 
BRANCH  39  40
HETATM   40  C26 UNL     1      16.930  30.770  14.082  1.00  0.00     0.002 C 
BRANCH  40  41
HETATM   41  C27 UNL     1      17.524  29.373  13.925  1.00  0.00     0.001 C 
BRANCH  41  42
HETATM   42  C28 UNL     1      18.255  29.263  12.641  1.00  0.00     0.010 C 
BRANCH  42  43
HETATM   43  C29 UNL     1      17.768  28.114  11.773  1.00  0.00     0.113 C 
BRANCH  43  44
HETATM   44  C30 UNL     1      16.747  28.524  10.803  1.00  0.00     0.172 C 
HETATM   45  O5  UNL     1      17.074  29.061   9.721  1.00  0.00    -0.648 OA
HETATM   46  O6  UNL     1      15.406  28.326  11.069  1.00  0.00    -0.648 OA
ENDBRANCH  43  44
ENDBRANCH  42  43
ENDBRANCH  41  42
ENDBRANCH  40  41
ENDBRANCH  39  40
ENDBRANCH  19  39
BRANCH  11  47
HETATM   47  O3  UNL     1      23.205  32.471  16.954  1.00  0.00    -0.348 OA
ATOM     48  H3  UNL     1      22.335  32.695  17.264  1.00  0.00     0.219 HD
ENDBRANCH  11  47
BRANCH  14  49
HETATM   49  C19 UNL     1      22.865  29.600  14.537  1.00  0.00     0.038 C 
BRANCH  49  50
HETATM   50  C20 UNL     1      22.970  28.873  13.231  1.00  0.00    -0.020 C 
HETATM   51  C21 UNL     1      22.061  29.606  12.240  1.00  0.00     0.009 C 
HETATM   52  C22 UNL     1      24.346  28.867  12.640  1.00  0.00     0.009 C 
ENDBRANCH  49  50
ENDBRANCH  14  49
TORSDOF 14
ENDMDL
MODEL 2
REMARK VINA RESULT: -8.345387645      1.015      1.421
REMARK  14 active torsions:
REMARK  status: ('A' for Active; 'I' for Inactive)
REMARK    1  A    between atoms: C2_2  and  C3_3 
REMARK    2  A    between atoms: C3_3  and  N1_4 
REMARK    3  A    between atoms: C6_8  and  C7_9 
REMARK    4  A    between atoms: C7_9  and  C8_10 
REMARK    5  A    between atoms: C17_26  and  O3_27 
REMARK    6  A    between atoms: C18_31  and  C19_32 
REMARK    7  A    between atoms: C19_32  and  C20_33 
REMARK    8  A    between atoms: C24_40  and  C25_41 
REMARK    9  A    between atoms: C25_41  and  C26_42 
REMARK   10  A    between atoms: C26_42  and  C27_43 
REMARK   11  A    between atoms: C27_43  and  C28_44 
REMARK   12  A    between atoms: C28_44  and  C29_45 
REMARK   13  A    between atoms: C29_45  and  C30_46 
REMARK   14  A    between atoms: C31_49  and  O7_50 
ROOT
HETATM    1  N1  UNL     1      18.377  34.994  17.768  1.00  0.00    -0.251 N 
HETATM    2  C4  UNL     1      19.615  35.395  18.338  1.00  0.00     0.268 A 
HETATM    3  O1  UNL     1      20.009  36.051  19.351  1.00  0.00    -0.269 OA
HETATM    4  C5  UNL     1      20.253  34.709  17.230  1.00  0.00     0.242 A 
HETATM    5  C6  UNL     1      21.236  35.374  16.363  1.00  0.00     0.046 C 
HETATM    6  C15 UNL     1      22.627  35.148  16.915  1.00  0.00     0.250 C 
HETATM    7  O2  UNL     1      22.646  35.269  18.196  1.00  0.00    -0.268 OA
HETATM    8  N4  UNL     1      23.801  34.845  16.255  1.00  0.00    -0.350 N 
ATOM      9  H4  UNL     1      24.547  35.535  16.334  1.00  0.00     0.163 HD
HETATM   10  C16 UNL     1      24.117  33.633  15.438  1.00  0.00     0.206 C 
HETATM   11  C17 UNL     1      23.064  32.620  15.688  1.00  0.00     0.130 C 
HETATM   12  N5  UNL     1      22.138  31.935  14.985  1.00  0.00    -0.360 N 
ATOM     13  H5  UNL     1      21.473  32.603  14.595  1.00  0.00     0.162 HD
HETATM   14  C18 UNL     1      21.741  30.617  14.583  1.00  0.00     0.175 C 
HETATM   15  C23 UNL     1      20.534  30.206  15.436  1.00  0.00     0.241 C 
HETATM   16  O4  UNL     1      20.454  28.966  15.642  1.00  0.00    -0.271 OA
HETATM   17  N6  UNL     1      19.593  31.127  15.949  1.00  0.00    -0.347 N 
ATOM     18  H6  UNL     1      19.502  31.124  16.965  1.00  0.00     0.163 HD
HETATM   19  C24 UNL     1      18.752  32.056  15.279  1.00  0.00     0.161 C 
HETATM   20  C31 UNL     1      18.654  33.441  15.638  1.00  0.00     0.157 C 
HETATM   21  N7  UNL     1      19.006  34.257  16.714  1.00  0.00    -0.249 N 
ENDROOT
BRANCH   5  22
HETATM   22  C7  UNL     1      21.024  36.713  15.824  1.00  0.00     0.046 C 
BRANCH  22  23
HETATM   23  C8  UNL     1      20.985  37.905  16.638  1.00  0.00     0.045 A 
HETATM   24  N2  UNL     1      19.867  38.485  17.111  1.00  0.00    -0.357 N 
HETATM   25  C9  UNL     1      20.192  39.576  17.810  1.00  0.00     0.033 A 
ATOM     26  H2  UNL     1      18.918  38.143  16.960  1.00  0.00     0.166 HD
HETATM   27  C10 UNL     1      19.266  40.511  18.504  1.00  0.00     0.070 C 
HETATM   28  C11 UNL     1      21.552  39.739  17.811  1.00  0.00     0.067 A 
HETATM   29  N3  UNL     1      22.617  40.477  18.203  1.00  0.00    -0.364 N 
HETATM   30  C14 UNL     1      22.034  38.685  17.073  1.00  0.00     0.021 A 
HETATM   31  C12 UNL     1      23.743  39.918  17.733  1.00  0.00     0.089 A 
ATOM     32  H3  UNL     1      22.571  41.326  18.767  1.00  0.00     0.165 HD
HETATM   33  C13 UNL     1      23.432  38.788  17.015  1.00  0.00     0.033 A 
ENDBRANCH  22  23
ENDBRANCH   5  22
BRANCH   1  34
HETATM   34  C3  UNL     1      17.032  35.312  18.237  1.00  0.00     0.179 C 
BRANCH  34  35
HETATM   35  C2  UNL     1      15.962  34.555  17.614  1.00  0.00    -0.015 C 
HETATM   36  C1  UNL     1      15.185  35.115  16.712  1.00  0.00     0.008 C 
ENDBRANCH  34  35
ENDBRANCH   1  34
BRANCH  20  37
HETATM   37  O7  UNL     1      18.065  34.138  14.685  1.00  0.00    -0.347 OA
ATOM     38  H7  UNL     1      17.872  35.021  14.977  1.00  0.00     0.219 HD
ENDBRANCH  20  37
BRANCH  19  39
HETATM   39  C25 UNL     1      17.364  31.397  15.337  1.00  0.00     0.034 C 
BRANCH  39  40
HETATM   40  C26 UNL     1      16.865  30.790  14.107  1.00  0.00     0.002 C 
BRANCH  40  41
HETATM   41  C27 UNL     1      17.407  29.368  13.982  1.00  0.00     0.001 C 
BRANCH  41  42
HETATM   42  C28 UNL     1      18.140  29.205  12.705  1.00  0.00     0.010 C 
BRANCH  42  43
HETATM   43  C29 UNL     1      17.624  28.049  11.863  1.00  0.00     0.113 C 
BRANCH  43  44
HETATM   44  C30 UNL     1      16.671  28.474  10.832  1.00  0.00     0.172 C 
HETATM   45  O5  UNL     1      15.442  28.300  10.989  1.00  0.00    -0.648 OA
HETATM   46  O6  UNL     1      17.116  29.071   9.669  1.00  0.00    -0.648 OA
ENDBRANCH  43  44
ENDBRANCH  42  43
ENDBRANCH  41  42
ENDBRANCH  40  41
ENDBRANCH  39  40
ENDBRANCH  19  39
BRANCH  11  47
HETATM   47  O3  UNL     1      23.149  32.418  16.995  1.00  0.00    -0.348 OA
ATOM     48  H3  UNL     1      22.494  33.010  17.346  1.00  0.00     0.219 HD
ENDBRANCH  11  47
BRANCH  14  49
HETATM   49  C19 UNL     1      22.781  29.557  14.569  1.00  0.00     0.038 C 
BRANCH  49  50
HETATM   50  C20 UNL     1      22.931  28.884  13.239  1.00  0.00    -0.020 C 
HETATM   51  C21 UNL     1      22.029  29.636  12.255  1.00  0.00     0.009 C 
HETATM   52  C22 UNL     1      24.321  28.931  12.681  1.00  0.00     0.009 C 
ENDBRANCH  49  50
ENDBRANCH  14  49
TORSDOF 14
ENDMDL
MODEL 3
REMARK VINA RESULT: -8.226957690      4.890      9.766
REMARK  14 active torsions:
REMARK  status: ('A' for Active; 'I' for Inactive)
REMARK    1  A    between atoms: C2_2  and  C3_3 
REMARK    2  A    between atoms: C3_3  and  N1_4 
REMARK    3  A    between atoms: C6_8  and  C7_9 
REMARK    4  A    between atoms: C7_9  and  C8_10 
REMARK    5  A    between atoms: C17_26  and  O3_27 
REMARK    6  A    between atoms: C18_31  and  C19_32 
REMARK    7  A    between atoms: C19_32  and  C20_33 
REMARK    8  A    between atoms: C24_40  and  C25_41 
REMARK    9  A    between atoms: C25_41  and  C26_42 
REMARK   10  A    between atoms: C26_42  and  C27_43 
REMARK   11  A    between atoms: C27_43  and  C28_44 
REMARK   12  A    between atoms: C28_44  and  C29_45 
REMARK   13  A    between atoms: C29_45  and  C30_46 
REMARK   14  A    between atoms: C31_49  and  O7_50 
ROOT
HETATM    1  N1  UNL     1      22.577  28.570  11.879  1.00  0.00    -0.251 N 
HETATM    2  C4  UNL     1      21.568  29.569  11.925  1.00  0.00     0.268 A 
HETATM    3  O1  UNL     1      21.500  30.820  12.134  1.00  0.00    -0.269 OA
HETATM    4  C5  UNL     1      20.623  28.512  11.619  1.00  0.00     0.242 A 
HETATM    5  C6  UNL     1      19.434  28.265  12.449  1.00  0.00     0.046 C 
HETATM    6  C15 UNL     1      18.267  29.059  11.903  1.00  0.00     0.250 C 
HETATM    7  O2  UNL     1      18.631  30.244  11.557  1.00  0.00    -0.268 OA
HETATM    8  N4  UNL     1      16.947  28.690  11.740  1.00  0.00    -0.350 N 
ATOM      9  H4  UNL     1      16.266  29.224  12.279  1.00  0.00     0.163 HD
HETATM   10  C16 UNL     1      16.389  27.606  10.875  1.00  0.00     0.206 C 
HETATM   11  C17 UNL     1      17.457  27.158   9.950  1.00  0.00     0.130 C 
HETATM   12  N5  UNL     1      18.126  26.023   9.656  1.00  0.00    -0.360 N 
ATOM     13  H5  UNL     1      18.653  25.739  10.481  1.00  0.00     0.162 HD
HETATM   14  C18 UNL     1      18.370  25.068   8.615  1.00  0.00     0.175 C 
HETATM   15  C23 UNL     1      19.770  25.334   8.048  1.00  0.00     0.241 C 
HETATM   16  O4  UNL     1      19.894  25.036   6.832  1.00  0.00    -0.271 OA
HETATM   17  N6  UNL     1      20.832  25.867   8.815  1.00  0.00    -0.347 N 
ATOM     18  H6  UNL     1      21.220  26.740   8.459  1.00  0.00     0.163 HD
HETATM   19  C24 UNL     1      21.447  25.382  10.000  1.00  0.00     0.161 C 
HETATM   20  C31 UNL     1      21.663  26.186  11.168  1.00  0.00     0.157 C 
HETATM   21  N7  UNL     1      21.655  27.539  11.507  1.00  0.00    -0.249 N 
ENDROOT
BRANCH   5  22
HETATM   22  C7  UNL     1      19.493  28.224  13.906  1.00  0.00     0.046 C 
BRANCH  22  23
HETATM   23  C8  UNL     1      19.685  29.394  14.731  1.00  0.00     0.045 A 
HETATM   24  N2  UNL     1      20.842  29.742  15.323  1.00  0.00    -0.357 N 
HETATM   25  C9  UNL     1      20.663  30.866  16.023  1.00  0.00     0.033 A 
ATOM     26  H2  UNL     1      21.719  29.229  15.249  1.00  0.00     0.166 HD
HETATM   27  C10 UNL     1      21.677  31.597  16.829  1.00  0.00     0.070 C 
HETATM   28  C11 UNL     1      19.364  31.286  15.904  1.00  0.00     0.067 A 
HETATM   29  N3  UNL     1      18.419  32.196  16.238  1.00  0.00    -0.364 N 
HETATM   30  C14 UNL     1      18.765  30.353  15.092  1.00  0.00     0.021 A 
HETATM   31  C12 UNL     1      17.255  31.859  15.661  1.00  0.00     0.089 A 
ATOM     32  H3  UNL     1      18.569  33.010  16.834  1.00  0.00     0.165 HD
HETATM   33  C13 UNL     1      17.418  30.707  14.930  1.00  0.00     0.033 A 
ENDBRANCH  22  23
ENDBRANCH   5  22
BRANCH   1  34
HETATM   34  C3  UNL     1      24.004  28.728  12.141  1.00  0.00     0.179 C 
BRANCH  34  35
HETATM   35  C2  UNL     1      24.848  27.657  11.644  1.00  0.00    -0.015 C 
HETATM   36  C1  UNL     1      26.154  27.707  11.804  1.00  0.00     0.008 C 
ENDBRANCH  34  35
ENDBRANCH   1  34
BRANCH  20  37
HETATM   37  O7  UNL     1      21.951  25.435  12.214  1.00  0.00    -0.347 OA
ATOM     38  H7  UNL     1      22.084  24.529  11.958  1.00  0.00     0.219 HD
ENDBRANCH  20  37
BRANCH  19  39
HETATM   39  C25 UNL     1      22.782  24.801   9.506  1.00  0.00     0.034 C 
BRANCH  39  40
HETATM   40  C26 UNL     1      23.757  25.744   8.966  1.00  0.00     0.002 C 
BRANCH  40  41
HETATM   41  C27 UNL     1      24.405  25.150   7.718  1.00  0.00     0.001 C 
BRANCH  41  42
HETATM   42  C28 UNL     1      23.540  24.096   7.139  1.00  0.00     0.010 C 
BRANCH  42  43
HETATM   43  C29 UNL     1      23.772  23.883   5.651  1.00  0.00     0.113 C 
BRANCH  43  44
HETATM   44  C30 UNL     1      23.516  25.089   4.856  1.00  0.00     0.172 C 
HETATM   45  O5  UNL     1      22.506  25.794   5.074  1.00  0.00    -0.648 OA
HETATM   46  O6  UNL     1      24.386  25.464   3.851  1.00  0.00    -0.648 OA
ENDBRANCH  43  44
ENDBRANCH  42  43
ENDBRANCH  41  42
ENDBRANCH  40  41
ENDBRANCH  39  40
ENDBRANCH  19  39
BRANCH  11  47
HETATM   47  O3  UNL     1      17.761  28.265   9.287  1.00  0.00    -0.348 OA
ATOM     48  H3  UNL     1      18.618  28.070   8.928  1.00  0.00     0.219 HD
ENDBRANCH  11  47
BRANCH  14  49
HETATM   49  C19 UNL     1      17.360  24.954   7.532  1.00  0.00     0.038 C 
BRANCH  49  50
HETATM   50  C20 UNL     1      16.787  23.577   7.391  1.00  0.00    -0.020 C 
HETATM   51  C21 UNL     1      15.393  23.736   6.776  1.00  0.00     0.009 C 
HETATM   52  C22 UNL     1      17.566  22.678   6.480  1.00  0.00     0.009 C 
ENDBRANCH  49  50
ENDBRANCH  14  49
TORSDOF 14
ENDMDL
MODEL 4
REMARK VINA RESULT: -8.218921661      2.950      5.091
REMARK  14 active torsions:
REMARK  status: ('A' for Active; 'I' for Inactive)
REMARK    1  A    between atoms: C2_2  and  C3_3 
REMARK    2  A    between atoms: C3_3  and  N1_4 
REMARK    3  A    between atoms: C6_8  and  C7_9 
REMARK    4  A    between atoms: C7_9  and  C8_10 
REMARK    5  A    between atoms: C17_26  and  O3_27 
REMARK    6  A    between atoms: C18_31  and  C19_32 
REMARK    7  A    between atoms: C19_32  and  C20_33 
REMARK    8  A    between atoms: C24_40  and  C25_41 
REMARK    9  A    between atoms: C25_41  and  C26_42 
REMARK   10  A    between atoms: C26_42  and  C27_43 
REMARK   11  A    between atoms: C27_43  and  C28_44 
REMARK   12  A    between atoms: C28_44  and  C29_45 
REMARK   13  A    between atoms: C29_45  and  C30_46 
REMARK   14  A    between atoms: C31_49  and  O7_50 
ROOT
HETATM    1  N1  UNL     1      18.112  40.375  18.984  1.00  0.00    -0.251 N 
HETATM    2  C4  UNL     1      19.466  40.683  19.285  1.00  0.00     0.268 A 
HETATM    3  O1  UNL     1      20.096  41.477  20.049  1.00  0.00    -0.269 OA
HETATM    4  C5  UNL     1      19.827  39.667  18.313  1.00  0.00     0.242 A 
HETATM    5  C6  UNL     1      20.742  39.946  17.197  1.00  0.00     0.046 C 
HETATM    6  C15 UNL     1      22.159  39.623  17.617  1.00  0.00     0.250 C 
HETATM    7  O2  UNL     1      22.394  40.027  18.817  1.00  0.00    -0.268 OA
HETATM    8  N4  UNL     1      23.165  38.987  16.917  1.00  0.00    -0.350 N 
ATOM      9  H4  UNL     1      24.000  39.544  16.733  1.00  0.00     0.163 HD
HETATM   10  C16 UNL     1      23.186  37.587  16.394  1.00  0.00     0.206 C 
HETATM   11  C17 UNL     1      22.061  36.847  17.011  1.00  0.00     0.130 C 
HETATM   12  N5  UNL     1      20.954  36.183  16.617  1.00  0.00    -0.360 N 
ATOM     13  H5  UNL     1      20.330  36.846  16.156  1.00  0.00     0.162 HD
HETATM   14  C18 UNL     1      20.328  34.893  16.604  1.00  0.00     0.175 C 
HETATM   15  C23 UNL     1      19.226  34.892  17.670  1.00  0.00     0.241 C 
HETATM   16  O4  UNL     1      19.015  33.763  18.185  1.00  0.00    -0.271 OA
HETATM   17  N6  UNL     1      18.506  36.049  18.048  1.00  0.00    -0.347 N 
ATOM     18  H6  UNL     1      18.575  36.292  19.036  1.00  0.00     0.163 HD
HETATM   19  C24 UNL     1      17.702  36.928  17.274  1.00  0.00     0.161 C 
HETATM   20  C31 UNL     1      17.845  38.355  17.288  1.00  0.00     0.157 C 
HETATM   21  N7  UNL     1      18.466  39.323  18.078  1.00  0.00    -0.249 N 
ENDROOT
BRANCH   5  22
HETATM   22  C7  UNL     1      20.627  41.144  16.373  1.00  0.00     0.046 C 
BRANCH  22  23
HETATM   23  C8  UNL     1      21.676  41.617  15.501  1.00  0.00     0.045 A 
HETATM   24  N2  UNL     1      22.389  42.743  15.686  1.00  0.00    -0.357 N 
HETATM   25  C9  UNL     1      23.262  42.888  14.686  1.00  0.00     0.033 A 
ATOM     26  H2  UNL     1      22.279  43.387  16.469  1.00  0.00     0.166 HD
HETATM   27  C10 UNL     1      24.243  43.991  14.497  1.00  0.00     0.070 C 
HETATM   28  C11 UNL     1      23.140  41.843  13.807  1.00  0.00     0.067 A 
HETATM   29  N3  UNL     1      23.554  41.257  12.660  1.00  0.00    -0.364 N 
HETATM   30  C14 UNL     1      22.143  41.057  14.332  1.00  0.00     0.021 A 
HETATM   31  C12 UNL     1      22.848  40.134  12.455  1.00  0.00     0.089 A 
ATOM     32  H3  UNL     1      24.288  41.612  12.048  1.00  0.00     0.165 HD
HETATM   33  C13 UNL     1      21.946  39.963  13.477  1.00  0.00     0.033 A 
ENDBRANCH  22  23
ENDBRANCH   5  22
BRANCH   1  34
HETATM   34  C3  UNL     1      16.911  41.009  19.517  1.00  0.00     0.179 C 
BRANCH  34  35
HETATM   35  C2  UNL     1      15.681  40.700  18.814  1.00  0.00    -0.015 C 
HETATM   36  C1  UNL     1      15.322  41.397  17.757  1.00  0.00     0.008 C 
ENDBRANCH  34  35
ENDBRANCH   1  34
BRANCH  20  37
HETATM   37  O7  UNL     1      17.212  38.906  16.270  1.00  0.00    -0.347 OA
ATOM     38  H7  UNL     1      17.766  39.536  15.824  1.00  0.00     0.219 HD
ENDBRANCH  20  37
BRANCH  19  39
HETATM   39  C25 UNL     1      16.265  36.539  17.659  1.00  0.00     0.034 C 
BRANCH  39  40
HETATM   40  C26 UNL     1      15.570  35.606  16.778  1.00  0.00     0.002 C 
BRANCH  40  41
HETATM   41  C27 UNL     1      16.259  35.580  15.416  1.00  0.00     0.001 C 
BRANCH  41  42
HETATM   42  C28 UNL     1      16.065  34.264  14.764  1.00  0.00     0.010 C 
BRANCH  42  43
HETATM   43  C29 UNL     1      16.492  33.095  15.639  1.00  0.00     0.113 C 
BRANCH  43  44
HETATM   44  C30 UNL     1      17.763  32.499  15.215  1.00  0.00     0.172 C 
HETATM   45  O5  UNL     1      18.219  31.489  15.796  1.00  0.00    -0.648 OA
HETATM   46  O6  UNL     1      18.481  33.046  14.169  1.00  0.00    -0.648 OA
ENDBRANCH  43  44
ENDBRANCH  42  43
ENDBRANCH  41  42
ENDBRANCH  40  41
ENDBRANCH  39  40
ENDBRANCH  19  39
BRANCH  11  47
HETATM   47  O3  UNL     1      22.321  36.934  18.308  1.00  0.00    -0.348 OA
ATOM     48  H3  UNL     1      22.568  36.046  18.536  1.00  0.00     0.219 HD
ENDBRANCH  11  47
BRANCH  14  49
HETATM   49  C19 UNL     1      21.203  33.700  16.728  1.00  0.00     0.038 C 
BRANCH  49  50
HETATM   50  C20 UNL     1      21.932  33.358  15.464  1.00  0.00    -0.020 C 
HETATM   51  C21 UNL     1      23.403  33.724  15.686  1.00  0.00     0.009 C 
HETATM   52  C22 UNL     1      21.893  31.904  15.108  1.00  0.00     0.009 C 
ENDBRANCH  49  50
ENDBRANCH  14  49
TORSDOF 14
ENDMDL
MODEL 5
REMARK VINA RESULT: -8.139954989      4.904      9.649
REMARK  14 active torsions:
REMARK  status: ('A' for Active; 'I' for Inactive)
REMARK    1  A    between atoms: C2_2  and  C3_3 
REMARK    2  A    between atoms: C3_3  and  N1_4 
REMARK    3  A    between atoms: C6_8  and  C7_9 
REMARK    4  A    between atoms: C7_9  and  C8_10 
REMARK    5  A    between atoms: C17_26  and  O3_27 
REMARK    6  A    between atoms: C18_31  and  C19_32 
REMARK    7  A    between atoms: C19_32  and  C20_33 
REMARK    8  A    between atoms: C24_40  and  C25_41 
REMARK    9  A    between atoms: C25_41  and  C26_42 
REMARK   10  A    between atoms: C26_42  and  C27_43 
REMARK   11  A    between atoms: C27_43  and  C28_44 
REMARK   12  A    between atoms: C28_44  and  C29_45 
REMARK   13  A    between atoms: C29_45  and  C30_46 
REMARK   14  A    between atoms: C31_49  and  O7_50 
ROOT
HETATM    1  N1  UNL     1      22.297  28.629  11.827  1.00  0.00    -0.251 N 
HETATM    2  C4  UNL     1      21.260  29.600  11.851  1.00  0.00     0.268 A 
HETATM    3  O1  UNL     1      21.154  30.850  12.045  1.00  0.00    -0.269 OA
HETATM    4  C5  UNL     1      20.348  28.513  11.544  1.00  0.00     0.242 A 
HETATM    5  C6  UNL     1      19.156  28.242  12.361  1.00  0.00     0.046 C 
HETATM    6  C15 UNL     1      17.975  28.997  11.793  1.00  0.00     0.250 C 
HETATM    7  O2  UNL     1      18.309  30.188  11.439  1.00  0.00    -0.268 OA
HETATM    8  N4  UNL     1      16.667  28.589  11.618  1.00  0.00    -0.350 N 
ATOM      9  H4  UNL     1      15.965  29.109  12.142  1.00  0.00     0.163 HD
HETATM   10  C16 UNL     1      16.151  27.482  10.756  1.00  0.00     0.206 C 
HETATM   11  C17 UNL     1      17.242  27.055   9.849  1.00  0.00     0.130 C 
HETATM   12  N5  UNL     1      17.946  25.936   9.575  1.00  0.00    -0.360 N 
ATOM     13  H5  UNL     1      18.471  25.675  10.410  1.00  0.00     0.162 HD
HETATM   14  C18 UNL     1      18.231  24.978   8.547  1.00  0.00     0.175 C 
HETATM   15  C23 UNL     1      19.630  25.277   7.996  1.00  0.00     0.241 C 
HETATM   16  O4  UNL     1      19.777  24.971   6.784  1.00  0.00    -0.271 OA
HETATM   17  N6  UNL     1      20.667  25.847   8.770  1.00  0.00    -0.347 N 
ATOM     18  H6  UNL     1      21.035  26.727   8.410  1.00  0.00     0.163 HD
HETATM   19  C24 UNL     1      21.279  25.391   9.968  1.00  0.00     0.161 C 
HETATM   20  C31 UNL     1      21.459  26.213  11.130  1.00  0.00     0.157 C 
HETATM   21  N7  UNL     1      21.408  27.568  11.455  1.00  0.00    -0.249 N 
ENDROOT
BRANCH   5  22
HETATM   22  C7  UNL     1      19.198  28.217  13.819  1.00  0.00     0.046 C 
BRANCH  22  23
HETATM   23  C8  UNL     1      19.327  29.401  14.635  1.00  0.00     0.045 A 
HETATM   24  N2  UNL     1      20.455  29.798  15.251  1.00  0.00    -0.357 N 
HETATM   25  C9  UNL     1      20.219  30.922  15.933  1.00  0.00     0.033 A 
ATOM     26  H2  UNL     1      21.353  29.316  15.204  1.00  0.00     0.166 HD
HETATM   27  C10 UNL     1      21.186  31.698  16.755  1.00  0.00     0.070 C 
HETATM   28  C11 UNL     1      18.909  31.293  15.778  1.00  0.00     0.067 A 
HETATM   29  N3  UNL     1      17.924  32.172  16.078  1.00  0.00    -0.364 N 
HETATM   30  C14 UNL     1      18.365  30.331  14.963  1.00  0.00     0.021 A 
HETATM   31  C12 UNL     1      16.787  31.787  15.477  1.00  0.00     0.089 A 
ATOM     32  H3  UNL     1      18.029  32.997  16.668  1.00  0.00     0.165 HD
HETATM   33  C13 UNL     1      17.010  30.634  14.764  1.00  0.00     0.033 A 
ENDBRANCH  22  23
ENDBRANCH   5  22
BRANCH   1  34
HETATM   34  C3  UNL     1      23.715  28.829  12.105  1.00  0.00     0.179 C 
BRANCH  34  35
HETATM   35  C2  UNL     1      24.069  28.894  13.511  1.00  0.00    -0.015 C 
HETATM   36  C1  UNL     1      23.493  29.770  14.305  1.00  0.00     0.008 C 
ENDBRANCH  34  35
ENDBRANCH   1  34
BRANCH  20  37
HETATM   37  O7  UNL     1      21.754  25.480  12.187  1.00  0.00    -0.347 OA
ATOM     38  H7  UNL     1      21.158  25.660  12.905  1.00  0.00     0.219 HD
ENDBRANCH  20  37
BRANCH  19  39
HETATM   39  C25 UNL     1      22.636  24.844   9.496  1.00  0.00     0.034 C 
BRANCH  39  40
HETATM   40  C26 UNL     1      23.017  25.113   8.113  1.00  0.00     0.002 C 
BRANCH  40  41
HETATM   41  C27 UNL     1      24.388  25.783   8.081  1.00  0.00     0.001 C 
BRANCH  41  42
HETATM   42  C28 UNL     1      24.586  26.612   9.293  1.00  0.00     0.010 C 
BRANCH  42  43
HETATM   43  C29 UNL     1      26.002  26.540   9.842  1.00  0.00     0.113 C 
BRANCH  43  44
HETATM   44  C30 UNL     1      26.051  26.599  11.307  1.00  0.00     0.172 C 
HETATM   45  O5  UNL     1      25.307  25.870  12.000  1.00  0.00    -0.648 OA
HETATM   46  O6  UNL     1      26.918  27.464  11.946  1.00  0.00    -0.648 OA
ENDBRANCH  43  44
ENDBRANCH  42  43
ENDBRANCH  41  42
ENDBRANCH  40  41
ENDBRANCH  39  40
ENDBRANCH  19  39
BRANCH  11  47
HETATM   47  O3  UNL     1      17.524  28.163   9.179  1.00  0.00    -0.348 OA
ATOM     48  H3  UNL     1      17.885  28.731   9.848  1.00  0.00     0.219 HD
ENDBRANCH  11  47
BRANCH  14  49
HETATM   49  C19 UNL     1      17.238  24.824   7.454  1.00  0.00     0.038 C 
BRANCH  49  50
HETATM   50  C20 UNL     1      16.655  23.447   7.363  1.00  0.00    -0.020 C 
HETATM   51  C21 UNL     1      15.256  23.595   6.757  1.00  0.00     0.009 C 
HETATM   52  C22 UNL     1      17.420  22.515   6.473  1.00  0.00     0.009 C 
ENDBRANCH  49  50
ENDBRANCH  14  49
TORSDOF 14
ENDMDL
