MODEL 1
REMARK VINA RESULT: -6.604867413      0.000      0.000
REMARK  12 active torsions:
REMARK  status: ('A' for Active; 'I' for Inactive)
REMARK    1  A    between atoms: C2_2  and  N1_3 
REMARK    2  A    between atoms: C5_8  and  C6_9 
REMARK    3  A    between atoms: C6_9  and  C7_10 
REMARK    4  A    between atoms: C10_16  and  C11_17 
REMARK    5  A    between atoms: C11_17  and  C12_18 
REMARK    6  A    between atoms: C14_25  and  C15_26 
REMARK    7  A    between atoms: C15_26  and  C16_27 
REMARK    8  A    between atoms: C19_32  and  O4_33 
REMARK    9  A    between atoms: C20_35  and  C21_36 
REMARK   10  A    between atoms: C21_36  and  C22_37 
REMARK   11  A    between atoms: C26_44  and  C27_45 
REMARK   12  A    between atoms: C27_45  and  C28_46 
ROOT
HETATM    1  C7  UNL     1      26.923  27.425   3.695  1.00  0.00     0.102 C 
HETATM    2  C8  UNL     1      27.899  26.289   3.944  1.00  0.00     0.137 C 
HETATM    3  N3  UNL     1      28.070  25.898   5.295  1.00  0.00    -0.358 N 
ATOM      4  H3  UNL     1      29.008  26.064   5.659  1.00  0.00     0.162 HD
HETATM    5  C9  UNL     1      27.201  25.332   6.214  1.00  0.00     0.240 C 
HETATM    6  O1  UNL     1      26.997  25.996   7.301  1.00  0.00    -0.271 OA
HETATM    7  C10 UNL     1      26.457  24.030   6.107  1.00  0.00     0.184 C 
HETATM    8  N5  UNL     1      27.058  23.106   5.212  1.00  0.00    -0.346 N 
ATOM      9  H5  UNL     1      28.052  23.268   5.047  1.00  0.00     0.163 HD
HETATM   10  C13 UNL     1      26.534  22.019   4.523  1.00  0.00     0.241 C 
HETATM   11  O3  UNL     1      27.255  20.956   4.537  1.00  0.00    -0.271 OA
HETATM   12  C14 UNL     1      25.277  21.890   3.772  1.00  0.00     0.175 C 
HETATM   13  N6  UNL     1      24.120  22.508   4.336  1.00  0.00    -0.359 N 
ATOM     14  H6  UNL     1      24.010  22.366   5.339  1.00  0.00     0.162 HD
HETATM   15  C19 UNL     1      23.108  23.279   3.739  1.00  0.00     0.135 C 
HETATM   16  C20 UNL     1      23.170  24.654   3.210  1.00  0.00     0.159 C 
HETATM   17  N7  UNL     1      24.489  24.930   2.687  1.00  0.00    -0.347 N 
ATOM     18  H7  UNL     1      25.247  24.613   3.291  1.00  0.00     0.163 HD
HETATM   19  C25 UNL     1      24.918  25.541   1.525  1.00  0.00     0.241 C 
HETATM   20  O5  UNL     1      25.590  24.849   0.676  1.00  0.00    -0.271 OA
HETATM   21  C26 UNL     1      24.700  26.961   1.099  1.00  0.00     0.177 C 
HETATM   22  N8  UNL     1      25.870  27.777   1.341  1.00  0.00    -0.347 N 
ATOM     23  H8  UNL     1      25.921  28.624   0.776  1.00  0.00     0.163 HD
HETATM   24  C31 UNL     1      26.930  27.601   2.211  1.00  0.00     0.224 C 
HETATM   25  O6  UNL     1      28.120  27.580   1.715  1.00  0.00    -0.273 OA
ENDROOT
BRANCH   1  26
HETATM   26  C6  UNL     1      27.338  28.689   4.417  1.00  0.00     0.092 C 
BRANCH  26  27
HETATM   27  C5  UNL     1      26.458  29.177   5.460  1.00  0.00     0.083 A 
HETATM   28  N1  UNL     1      25.436  30.032   5.291  1.00  0.00    -0.346 N 
HETATM   29  C3  UNL     1      24.867  30.291   6.503  1.00  0.00     0.109 A 
HETATM   30  C4  UNL     1      25.577  29.566   7.402  1.00  0.00     0.106 A 
HETATM   31  N2  UNL     1      26.536  28.895   6.767  1.00  0.00    -0.354 N 
ATOM     32  H2  UNL     1      27.214  28.271   7.203  1.00  0.00     0.166 HD
BRANCH  28  33
HETATM   33  C2  UNL     1      24.874  30.622   4.071  1.00  0.00     0.125 C 
HETATM   34  C1  UNL     1      23.752  29.654   3.636  1.00  0.00     0.027 C 
ENDBRANCH  28  33
ENDBRANCH  26  27
ENDBRANCH   1  26
BRANCH  21  35
HETATM   35  C27 UNL     1      24.331  26.906  -0.364  1.00  0.00     0.038 C 
BRANCH  35  36
HETATM   36  C28 UNL     1      22.913  27.252  -0.666  1.00  0.00    -0.020 C 
HETATM   37  C29 UNL     1      22.621  27.370  -2.129  1.00  0.00     0.009 C 
HETATM   38  C30 UNL     1      22.675  28.644  -0.060  1.00  0.00     0.009 C 
ENDBRANCH  35  36
ENDBRANCH  21  35
BRANCH   7  39
HETATM   39  C11 UNL     1      26.420  23.433   7.502  1.00  0.00     0.134 C 
BRANCH  39  40
HETATM   40  C12 UNL     1      26.909  22.031   7.492  1.00  0.00     0.233 C 
HETATM   41  N4  UNL     1      28.279  21.661   7.531  1.00  0.00    -0.062 NA
HETATM   42  O2  UNL     1      26.015  21.117   7.445  1.00  0.00    -0.277 OA
ENDBRANCH  39  40
ENDBRANCH   7  39
BRANCH  16  43
HETATM   43  C21 UNL     1      22.915  25.683   4.279  1.00  0.00     0.037 C 
BRANCH  43  44
HETATM   44  C22 UNL     1      21.609  26.368   4.290  1.00  0.00    -0.020 C 
HETATM   45  C23 UNL     1      21.238  27.051   2.992  1.00  0.00     0.009 C 
HETATM   46  C24 UNL     1      20.433  25.658   4.827  1.00  0.00     0.009 C 
ENDBRANCH  43  44
ENDBRANCH  16  43
BRANCH  12  47
HETATM   47  C15 UNL     1      24.978  20.467   3.349  1.00  0.00     0.038 C 
BRANCH  47  48
HETATM   48  C16 UNL     1      24.699  20.226   1.923  1.00  0.00    -0.020 C 
HETATM   49  C17 UNL     1      25.180  21.510   1.191  1.00  0.00     0.009 C 
HETATM   50  C18 UNL     1      23.203  20.179   1.605  1.00  0.00     0.009 C 
ENDBRANCH  47  48
ENDBRANCH  12  47
BRANCH  15  51
HETATM   51  O4  UNL     1      21.924  22.755   3.610  1.00  0.00    -0.348 OA
ATOM     52  H4  UNL     1      21.261  22.969   4.256  1.00  0.00     0.219 HD
ENDBRANCH  15  51
TORSDOF 12
ENDMDL
MODEL 2
REMARK VINA RESULT: -6.444461519      1.130      1.397
REMARK  12 active torsions:
REMARK  status: ('A' for Active; 'I' for Inactive)
REMARK    1  A    between atoms: C2_2  and  N1_3 
REMARK    2  A    between atoms: C5_8  and  C6_9 
REMARK    3  A    between atoms: C6_9  and  C7_10 
REMARK    4  A    between atoms: C10_16  and  C11_17 
REMARK    5  A    between atoms: C11_17  and  C12_18 
REMARK    6  A    between atoms: C14_25  and  C15_26 
REMARK    7  A    between atoms: C15_26  and  C16_27 
REMARK    8  A    between atoms: C19_32  and  O4_33 
REMARK    9  A    between atoms: C20_35  and  C21_36 
REMARK   10  A    between atoms: C21_36  and  C22_37 
REMARK   11  A    between atoms: C26_44  and  C27_45 
REMARK   12  A    between atoms: C27_45  and  C28_46 
ROOT
HETATM    1  C7  UNL     1      26.829  27.367   4.668  1.00  0.00     0.102 C 
HETATM    2  C8  UNL     1      27.841  26.240   4.751  1.00  0.00     0.137 C 
HETATM    3  N3  UNL     1      27.909  25.551   5.988  1.00  0.00    -0.358 N 
ATOM      4  H3  UNL     1      28.799  25.661   6.476  1.00  0.00     0.162 HD
HETATM    5  C9  UNL     1      26.993  24.758   6.659  1.00  0.00     0.240 C 
HETATM    6  O1  UNL     1      26.651  25.143   7.842  1.00  0.00    -0.271 OA
HETATM    7  C10 UNL     1      26.338  23.491   6.182  1.00  0.00     0.184 C 
HETATM    8  N5  UNL     1      27.073  22.821   5.168  1.00  0.00    -0.346 N 
ATOM      9  H5  UNL     1      28.066  23.053   5.147  1.00  0.00     0.163 HD
HETATM   10  C13 UNL     1      26.678  21.907   4.199  1.00  0.00     0.241 C 
HETATM   11  O3  UNL     1      27.455  20.895   4.045  1.00  0.00    -0.271 OA
HETATM   12  C14 UNL     1      25.505  21.912   3.312  1.00  0.00     0.175 C 
HETATM   13  N6  UNL     1      24.268  22.342   3.879  1.00  0.00    -0.359 N 
ATOM     14  H6  UNL     1      24.073  21.967   4.807  1.00  0.00     0.162 HD
HETATM   15  C19 UNL     1      23.273  23.195   3.372  1.00  0.00     0.135 C 
HETATM   16  C20 UNL     1      23.304  24.656   3.180  1.00  0.00     0.159 C 
HETATM   17  N7  UNL     1      24.647  25.092   2.872  1.00  0.00    -0.347 N 
ATOM     18  H7  UNL     1      25.363  24.669   3.463  1.00  0.00     0.163 HD
HETATM   19  C25 UNL     1      25.146  25.971   1.931  1.00  0.00     0.241 C 
HETATM   20  O5  UNL     1      25.933  25.518   1.020  1.00  0.00    -0.271 OA
HETATM   21  C26 UNL     1      24.886  27.442   1.819  1.00  0.00     0.177 C 
HETATM   22  N8  UNL     1      25.980  28.220   2.360  1.00  0.00    -0.347 N 
ATOM     23  H8  UNL     1      26.034  29.176   2.010  1.00  0.00     0.163 HD
HETATM   24  C31 UNL     1      26.964  27.883   3.271  1.00  0.00     0.224 C 
HETATM   25  O6  UNL     1      28.193  28.020   2.910  1.00  0.00    -0.273 OA
ENDROOT
BRANCH   1  26
HETATM   26  C6  UNL     1      27.101  28.443   5.697  1.00  0.00     0.092 C 
BRANCH  26  27
HETATM   27  C5  UNL     1      26.248  29.613   5.677  1.00  0.00     0.083 A 
HETATM   28  N1  UNL     1      26.622  30.854   5.324  1.00  0.00    -0.346 N 
HETATM   29  C3  UNL     1      25.560  31.698   5.469  1.00  0.00     0.109 A 
HETATM   30  C4  UNL     1      24.540  30.927   5.919  1.00  0.00     0.106 A 
HETATM   31  N2  UNL     1      24.960  29.670   6.041  1.00  0.00    -0.354 N 
ATOM     32  H2  UNL     1      24.396  28.882   6.360  1.00  0.00     0.166 HD
BRANCH  28  33
HETATM   33  C2  UNL     1      27.896  31.356   4.796  1.00  0.00     0.125 C 
HETATM   34  C1  UNL     1      27.642  31.595   3.292  1.00  0.00     0.027 C 
ENDBRANCH  28  33
ENDBRANCH  26  27
ENDBRANCH   1  26
BRANCH  21  35
HETATM   35  C27 UNL     1      24.658  27.715   0.351  1.00  0.00     0.038 C 
BRANCH  35  36
HETATM   36  C28 UNL     1      23.278  27.431  -0.131  1.00  0.00    -0.020 C 
HETATM   37  C29 UNL     1      23.210  27.070  -1.583  1.00  0.00     0.009 C 
HETATM   38  C30 UNL     1      22.490  28.741   0.030  1.00  0.00     0.009 C 
ENDBRANCH  35  36
ENDBRANCH  21  35
BRANCH   7  39
HETATM   39  C11 UNL     1      26.207  22.586   7.393  1.00  0.00     0.134 C 
BRANCH  39  40
HETATM   40  C12 UNL     1      27.224  21.504   7.359  1.00  0.00     0.233 C 
HETATM   41  N4  UNL     1      26.917  20.122   7.248  1.00  0.00    -0.062 NA
HETATM   42  O2  UNL     1      28.447  21.870   7.437  1.00  0.00    -0.277 OA
ENDBRANCH  39  40
ENDBRANCH   7  39
BRANCH  16  43
HETATM   43  C21 UNL     1      22.891  25.399   4.422  1.00  0.00     0.037 C 
BRANCH  43  44
HETATM   44  C22 UNL     1      21.631  26.164   4.391  1.00  0.00    -0.020 C 
HETATM   45  C23 UNL     1      21.394  26.951   3.121  1.00  0.00     0.009 C 
HETATM   46  C24 UNL     1      20.380  25.497   4.799  1.00  0.00     0.009 C 
ENDBRANCH  43  44
ENDBRANCH  16  43
BRANCH  12  47
HETATM   47  C15 UNL     1      25.330  20.617   2.548  1.00  0.00     0.038 C 
BRANCH  47  48
HETATM   48  C16 UNL     1      24.059  19.892   2.721  1.00  0.00    -0.020 C 
HETATM   49  C17 UNL     1      24.468  18.426   3.036  1.00  0.00     0.009 C 
HETATM   50  C18 UNL     1      23.261  19.762   1.423  1.00  0.00     0.009 C 
ENDBRANCH  47  48
ENDBRANCH  12  47
BRANCH  15  51
HETATM   51  O4  UNL     1      22.137  22.674   3.006  1.00  0.00    -0.348 OA
ATOM     52  H4  UNL     1      21.372  22.828   3.548  1.00  0.00     0.219 HD
ENDBRANCH  15  51
TORSDOF 12
ENDMDL
MODEL 3
REMARK VINA RESULT: -6.393769960      1.509      2.228
REMARK  12 active torsions:
REMARK  status: ('A' for Active; 'I' for Inactive)
REMARK    1  A    between atoms: C2_2  and  N1_3 
REMARK    2  A    between atoms: C5_8  and  C6_9 
REMARK    3  A    between atoms: C6_9  and  C7_10 
REMARK    4  A    between atoms: C10_16  and  C11_17 
REMARK    5  A    between atoms: C11_17  and  C12_18 
REMARK    6  A    between atoms: C14_25  and  C15_26 
REMARK    7  A    between atoms: C15_26  and  C16_27 
REMARK    8  A    between atoms: C19_32  and  O4_33 
REMARK    9  A    between atoms: C20_35  and  C21_36 
REMARK   10  A    between atoms: C21_36  and  C22_37 
REMARK   11  A    between atoms: C26_44  and  C27_45 
REMARK   12  A    between atoms: C27_45  and  C28_46 
ROOT
HETATM    1  C7  UNL     1      26.779  27.432   4.595  1.00  0.00     0.102 C 
HETATM    2  C8  UNL     1      27.799  26.312   4.679  1.00  0.00     0.137 C 
HETATM    3  N3  UNL     1      27.887  25.638   5.923  1.00  0.00    -0.358 N 
ATOM      4  H3  UNL     1      28.782  25.759   6.398  1.00  0.00     0.162 HD
HETATM    5  C9  UNL     1      26.984  24.847   6.614  1.00  0.00     0.240 C 
HETATM    6  O1  UNL     1      26.654  25.244   7.797  1.00  0.00    -0.271 OA
HETATM    7  C10 UNL     1      26.331  23.571   6.160  1.00  0.00     0.184 C 
HETATM    8  N5  UNL     1      27.057  22.894   5.145  1.00  0.00    -0.346 N 
ATOM      9  H5  UNL     1      28.049  23.131   5.109  1.00  0.00     0.163 HD
HETATM   10  C13 UNL     1      26.656  21.966   4.191  1.00  0.00     0.241 C 
HETATM   11  O3  UNL     1      27.438  20.957   4.040  1.00  0.00    -0.271 OA
HETATM   12  C14 UNL     1      25.473  21.954   3.319  1.00  0.00     0.175 C 
HETATM   13  N6  UNL     1      24.240  22.382   3.896  1.00  0.00    -0.359 N 
ATOM     14  H6  UNL     1      24.059  22.017   4.831  1.00  0.00     0.162 HD
HETATM   15  C19 UNL     1      23.233  23.223   3.392  1.00  0.00     0.135 C 
HETATM   16  C20 UNL     1      23.253  24.682   3.182  1.00  0.00     0.159 C 
HETATM   17  N7  UNL     1      24.590  25.122   2.853  1.00  0.00    -0.347 N 
ATOM     18  H7  UNL     1      25.315  24.711   3.440  1.00  0.00     0.163 HD
HETATM   19  C25 UNL     1      25.071  25.993   1.895  1.00  0.00     0.241 C 
HETATM   20  O5  UNL     1      25.849  25.535   0.980  1.00  0.00    -0.271 OA
HETATM   21  C26 UNL     1      24.801  27.462   1.770  1.00  0.00     0.177 C 
HETATM   22  N8  UNL     1      25.896  28.252   2.288  1.00  0.00    -0.347 N 
ATOM     23  H8  UNL     1      25.940  29.205   1.927  1.00  0.00     0.163 HD
HETATM   24  C31 UNL     1      26.893  27.933   3.191  1.00  0.00     0.224 C 
HETATM   25  O6  UNL     1      28.117  28.072   2.813  1.00  0.00    -0.273 OA
ENDROOT
BRANCH   1  26
HETATM   26  C6  UNL     1      27.057  28.522   5.609  1.00  0.00     0.092 C 
BRANCH  26  27
HETATM   27  C5  UNL     1      28.439  28.743   5.983  1.00  0.00     0.083 A 
HETATM   28  N1  UNL     1      28.938  28.673   7.228  1.00  0.00    -0.346 N 
HETATM   29  C3  UNL     1      30.265  28.983   7.194  1.00  0.00     0.109 A 
HETATM   30  C4  UNL     1      30.547  29.239   5.894  1.00  0.00     0.106 A 
HETATM   31  N2  UNL     1      29.442  29.092   5.167  1.00  0.00    -0.354 N 
ATOM     32  H2  UNL     1      29.371  29.223   4.158  1.00  0.00     0.166 HD
BRANCH  28  33
HETATM   33  C2  UNL     1      28.303  28.286   8.493  1.00  0.00     0.125 C 
HETATM   34  C1  UNL     1      28.306  29.568   9.355  1.00  0.00     0.027 C 
ENDBRANCH  28  33
ENDBRANCH  26  27
ENDBRANCH   1  26
BRANCH  21  35
HETATM   35  C27 UNL     1      24.553  27.717   0.302  1.00  0.00     0.038 C 
BRANCH  35  36
HETATM   36  C28 UNL     1      23.143  27.522  -0.138  1.00  0.00    -0.020 C 
HETATM   37  C29 UNL     1      23.003  27.231  -1.599  1.00  0.00     0.009 C 
HETATM   38  C30 UNL     1      22.429  28.861   0.110  1.00  0.00     0.009 C 
ENDBRANCH  35  36
ENDBRANCH  21  35
BRANCH   7  39
HETATM   39  C11 UNL     1      26.221  22.679   7.383  1.00  0.00     0.134 C 
BRANCH  39  40
HETATM   40  C12 UNL     1      27.257  21.615   7.359  1.00  0.00     0.233 C 
HETATM   41  N4  UNL     1      26.976  20.227   7.261  1.00  0.00    -0.062 NA
HETATM   42  O2  UNL     1      28.473  22.004   7.433  1.00  0.00    -0.277 OA
ENDBRANCH  39  40
ENDBRANCH   7  39
BRANCH  16  43
HETATM   43  C21 UNL     1      22.851  25.437   4.421  1.00  0.00     0.037 C 
BRANCH  43  44
HETATM   44  C22 UNL     1      21.580  26.184   4.401  1.00  0.00    -0.020 C 
HETATM   45  C23 UNL     1      21.354  27.025   3.164  1.00  0.00     0.009 C 
HETATM   46  C24 UNL     1      20.332  25.482   4.755  1.00  0.00     0.009 C 
ENDBRANCH  43  44
ENDBRANCH  16  43
BRANCH  12  47
HETATM   47  C15 UNL     1      25.296  20.649   2.572  1.00  0.00     0.038 C 
BRANCH  47  48
HETATM   48  C16 UNL     1      24.015  19.938   2.737  1.00  0.00    -0.020 C 
HETATM   49  C17 UNL     1      24.405  18.481   3.111  1.00  0.00     0.009 C 
HETATM   50  C18 UNL     1      23.250  19.771   1.423  1.00  0.00     0.009 C 
ENDBRANCH  47  48
ENDBRANCH  12  47
BRANCH  15  51
HETATM   51  O4  UNL     1      22.097  22.691   3.046  1.00  0.00    -0.348 OA
ATOM     52  H4  UNL     1      21.573  23.131   2.386  1.00  0.00     0.219 HD
ENDBRANCH  15  51
TORSDOF 12
ENDMDL
MODEL 4
REMARK VINA RESULT: -6.367684268      0.861      1.543
REMARK  12 active torsions:
REMARK  status: ('A' for Active; 'I' for Inactive)
REMARK    1  A    between atoms: C2_2  and  N1_3 
REMARK    2  A    between atoms: C5_8  and  C6_9 
REMARK    3  A    between atoms: C6_9  and  C7_10 
REMARK    4  A    between atoms: C10_16  and  C11_17 
REMARK    5  A    between atoms: C11_17  and  C12_18 
REMARK    6  A    between atoms: C14_25  and  C15_26 
REMARK    7  A    between atoms: C15_26  and  C16_27 
REMARK    8  A    between atoms: C19_32  and  O4_33 
REMARK    9  A    between atoms: C20_35  and  C21_36 
REMARK   10  A    between atoms: C21_36  and  C22_37 
REMARK   11  A    between atoms: C26_44  and  C27_45 
REMARK   12  A    between atoms: C27_45  and  C28_46 
ROOT
HETATM    1  C7  UNL     1      26.768  27.459   4.154  1.00  0.00     0.102 C 
HETATM    2  C8  UNL     1      27.792  26.350   4.313  1.00  0.00     0.137 C 
HETATM    3  N3  UNL     1      27.933  25.812   5.616  1.00  0.00    -0.358 N 
ATOM      4  H3  UNL     1      28.847  25.979   6.037  1.00  0.00     0.162 HD
HETATM    5  C9  UNL     1      27.062  25.102   6.425  1.00  0.00     0.240 C 
HETATM    6  O1  UNL     1      26.782  25.623   7.572  1.00  0.00    -0.271 OA
HETATM    7  C10 UNL     1      26.391  23.787   6.137  1.00  0.00     0.184 C 
HETATM    8  N5  UNL     1      27.073  23.004   5.168  1.00  0.00    -0.346 N 
ATOM      9  H5  UNL     1      28.062  23.232   5.066  1.00  0.00     0.163 HD
HETATM   10  C13 UNL     1      26.633  21.982   4.337  1.00  0.00     0.241 C 
HETATM   11  O3  UNL     1      27.408  20.960   4.259  1.00  0.00    -0.271 OA
HETATM   12  C14 UNL     1      25.413  21.882   3.522  1.00  0.00     0.175 C 
HETATM   13  N6  UNL     1      24.205  22.373   4.103  1.00  0.00    -0.359 N 
ATOM     14  H6  UNL     1      24.065  22.110   5.078  1.00  0.00     0.162 HD
HETATM   15  C19 UNL     1      23.177  23.160   3.556  1.00  0.00     0.135 C 
HETATM   16  C20 UNL     1      23.186  24.589   3.192  1.00  0.00     0.159 C 
HETATM   17  N7  UNL     1      24.508  24.987   2.762  1.00  0.00    -0.347 N 
ATOM     18  H7  UNL     1      25.258  24.637   3.357  1.00  0.00     0.163 HD
HETATM   19  C25 UNL     1      24.947  25.750   1.698  1.00  0.00     0.241 C 
HETATM   20  O5  UNL     1      25.685  25.194   0.804  1.00  0.00    -0.271 OA
HETATM   21  C26 UNL     1      24.670  27.198   1.429  1.00  0.00     0.177 C 
HETATM   22  N8  UNL     1      25.786  28.034   1.814  1.00  0.00    -0.347 N 
ATOM     23  H8  UNL     1      25.814  28.943   1.352  1.00  0.00     0.163 HD
HETATM   24  C31 UNL     1      26.821  27.808   2.702  1.00  0.00     0.224 C 
HETATM   25  O6  UNL     1      28.028  27.903   2.259  1.00  0.00    -0.273 OA
ENDROOT
BRANCH   1  26
HETATM   26  C6  UNL     1      27.088  28.649   5.035  1.00  0.00     0.092 C 
BRANCH  26  27
HETATM   27  C5  UNL     1      26.020  29.594   5.288  1.00  0.00     0.083 A 
HETATM   28  N1  UNL     1      25.560  29.956   6.498  1.00  0.00    -0.346 N 
HETATM   29  C3  UNL     1      24.526  30.830   6.337  1.00  0.00     0.109 A 
HETATM   30  C4  UNL     1      24.381  30.982   4.998  1.00  0.00     0.106 A 
HETATM   31  N2  UNL     1      25.285  30.235   4.370  1.00  0.00    -0.354 N 
ATOM     32  H2  UNL     1      25.399  30.163   3.359  1.00  0.00     0.166 HD
BRANCH  28  33
HETATM   33  C2  UNL     1      26.026  29.603   7.843  1.00  0.00     0.125 C 
HETATM   34  C1  UNL     1      25.285  30.570   8.793  1.00  0.00     0.027 C 
ENDBRANCH  28  33
ENDBRANCH  26  27
ENDBRANCH   1  26
BRANCH  21  35
HETATM   35  C27 UNL     1      24.359  27.297  -0.046  1.00  0.00     0.038 C 
BRANCH  35  36
HETATM   36  C28 UNL     1      22.935  27.593  -0.366  1.00  0.00    -0.020 C 
HETATM   37  C29 UNL     1      22.650  27.658  -1.835  1.00  0.00     0.009 C 
HETATM   38  C30 UNL     1      22.653  28.996   0.194  1.00  0.00     0.009 C 
ENDBRANCH  35  36
ENDBRANCH  21  35
BRANCH   7  39
HETATM   39  C11 UNL     1      26.334  23.030   7.451  1.00  0.00     0.134 C 
BRANCH  39  40
HETATM   40  C12 UNL     1      27.224  21.841   7.417  1.00  0.00     0.233 C 
HETATM   41  N4  UNL     1      26.764  20.498   7.403  1.00  0.00    -0.062 NA
HETATM   42  O2  UNL     1      28.482  22.073   7.401  1.00  0.00    -0.277 OA
ENDBRANCH  39  40
ENDBRANCH   7  39
BRANCH  16  43
HETATM   43  C21 UNL     1      22.838  25.471   4.361  1.00  0.00     0.037 C 
BRANCH  43  44
HETATM   44  C22 UNL     1      21.562  26.210   4.320  1.00  0.00    -0.020 C 
HETATM   45  C23 UNL     1      21.301  26.959   3.032  1.00  0.00     0.009 C 
HETATM   46  C24 UNL     1      20.328  25.530   4.754  1.00  0.00     0.009 C 
ENDBRANCH  43  44
ENDBRANCH  16  43
BRANCH  12  47
HETATM   47  C15 UNL     1      25.205  20.506   2.926  1.00  0.00     0.038 C 
BRANCH  47  48
HETATM   48  C16 UNL     1      24.067  19.713   3.423  1.00  0.00    -0.020 C 
HETATM   49  C17 UNL     1      24.652  18.833   4.563  1.00  0.00     0.009 C 
HETATM   50  C18 UNL     1      23.564  18.685   2.408  1.00  0.00     0.009 C 
ENDBRANCH  47  48
ENDBRANCH  12  47
BRANCH  15  51
HETATM   51  O4  UNL     1      22.027  22.598   3.317  1.00  0.00    -0.348 OA
ATOM     52  H4  UNL     1      21.238  23.109   3.450  1.00  0.00     0.219 HD
ENDBRANCH  15  51
TORSDOF 12
ENDMDL
MODEL 5
REMARK VINA RESULT: -6.215712395      1.064      1.552
REMARK  12 active torsions:
REMARK  status: ('A' for Active; 'I' for Inactive)
REMARK    1  A    between atoms: C2_2  and  N1_3 
REMARK    2  A    between atoms: C5_8  and  C6_9 
REMARK    3  A    between atoms: C6_9  and  C7_10 
REMARK    4  A    between atoms: C10_16  and  C11_17 
REMARK    5  A    between atoms: C11_17  and  C12_18 
REMARK    6  A    between atoms: C14_25  and  C15_26 
REMARK    7  A    between atoms: C15_26  and  C16_27 
REMARK    8  A    between atoms: C19_32  and  O4_33 
REMARK    9  A    between atoms: C20_35  and  C21_36 
REMARK   10  A    between atoms: C21_36  and  C22_37 
REMARK   11  A    between atoms: C26_44  and  C27_45 
REMARK   12  A    between atoms: C27_45  and  C28_46 
ROOT
HETATM    1  C7  UNL     1      26.742  27.314   4.093  1.00  0.00     0.102 C 
HETATM    2  C8  UNL     1      27.758  26.199   4.256  1.00  0.00     0.137 C 
HETATM    3  N3  UNL     1      27.909  25.678   5.566  1.00  0.00    -0.358 N 
ATOM      4  H3  UNL     1      28.828  25.843   5.975  1.00  0.00     0.162 HD
HETATM    5  C9  UNL     1      27.039  24.987   6.394  1.00  0.00     0.240 C 
HETATM    6  O1  UNL     1      26.775  25.526   7.536  1.00  0.00    -0.271 OA
HETATM    7  C10 UNL     1      26.354  23.674   6.131  1.00  0.00     0.184 C 
HETATM    8  N5  UNL     1      27.020  22.871   5.167  1.00  0.00    -0.346 N 
ATOM      9  H5  UNL     1      28.010  23.089   5.051  1.00  0.00     0.163 HD
HETATM   10  C13 UNL     1      26.562  21.841   4.354  1.00  0.00     0.241 C 
HETATM   11  O3  UNL     1      27.328  20.812   4.284  1.00  0.00    -0.271 OA
HETATM   12  C14 UNL     1      25.333  21.740   3.553  1.00  0.00     0.175 C 
HETATM   13  N6  UNL     1      24.136  22.251   4.139  1.00  0.00    -0.359 N 
ATOM     14  H6  UNL     1      24.003  22.002   5.119  1.00  0.00     0.162 HD
HETATM   15  C19 UNL     1      23.109  23.038   3.591  1.00  0.00     0.135 C 
HETATM   16  C20 UNL     1      23.127  24.462   3.207  1.00  0.00     0.159 C 
HETATM   17  N7  UNL     1      24.448  24.842   2.758  1.00  0.00    -0.347 N 
ATOM     18  H7  UNL     1      25.201  24.495   3.351  1.00  0.00     0.163 HD
HETATM   19  C25 UNL     1      24.882  25.586   1.679  1.00  0.00     0.241 C 
HETATM   20  O5  UNL     1      25.607  25.012   0.785  1.00  0.00    -0.271 OA
HETATM   21  C26 UNL     1      24.616  27.033   1.392  1.00  0.00     0.177 C 
HETATM   22  N8  UNL     1      25.742  27.865   1.754  1.00  0.00    -0.347 N 
ATOM     23  H8  UNL     1      25.773  28.767   1.279  1.00  0.00     0.163 HD
HETATM   24  C31 UNL     1      26.785  27.642   2.635  1.00  0.00     0.224 C 
HETATM   25  O6  UNL     1      27.987  27.720   2.179  1.00  0.00    -0.273 OA
ENDROOT
BRANCH   1  26
HETATM   26  C6  UNL     1      27.082  28.514   4.952  1.00  0.00     0.092 C 
BRANCH  26  27
HETATM   27  C5  UNL     1      26.895  29.825   4.366  1.00  0.00     0.083 A 
HETATM   28  N1  UNL     1      25.753  30.533   4.370  1.00  0.00    -0.346 N 
HETATM   29  C3  UNL     1      25.950  31.698   3.689  1.00  0.00     0.109 A 
HETATM   30  C4  UNL     1      27.241  31.667   3.278  1.00  0.00     0.106 A 
HETATM   31  N2  UNL     1      27.807  30.536   3.690  1.00  0.00    -0.354 N 
ATOM     32  H2  UNL     1      28.773  30.257   3.520  1.00  0.00     0.166 HD
BRANCH  28  33
HETATM   33  C2  UNL     1      24.460  30.259   5.006  1.00  0.00     0.125 C 
HETATM   34  C1  UNL     1      23.551  29.749   3.866  1.00  0.00     0.027 C 
ENDBRANCH  28  33
ENDBRANCH  26  27
ENDBRANCH   1  26
BRANCH  21  35
HETATM   35  C27 UNL     1      24.291  27.113  -0.081  1.00  0.00     0.038 C 
BRANCH  35  36
HETATM   36  C28 UNL     1      23.720  28.415  -0.525  1.00  0.00    -0.020 C 
HETATM   37  C29 UNL     1      22.308  28.637  -0.079  1.00  0.00     0.009 C 
HETATM   38  C30 UNL     1      23.689  28.367  -2.061  1.00  0.00     0.009 C 
ENDBRANCH  35  36
ENDBRANCH  21  35
BRANCH   7  39
HETATM   39  C11 UNL     1      26.303  22.936   7.456  1.00  0.00     0.134 C 
BRANCH  39  40
HETATM   40  C12 UNL     1      27.166  21.727   7.423  1.00  0.00     0.233 C 
HETATM   41  N4  UNL     1      26.676  20.395   7.400  1.00  0.00    -0.062 NA
HETATM   42  O2  UNL     1      28.429  21.930   7.416  1.00  0.00    -0.277 OA
ENDBRANCH  39  40
ENDBRANCH   7  39
BRANCH  16  43
HETATM   43  C21 UNL     1      22.798  25.364   4.366  1.00  0.00     0.037 C 
BRANCH  43  44
HETATM   44  C22 UNL     1      21.527  26.111   4.329  1.00  0.00    -0.020 C 
HETATM   45  C23 UNL     1      21.297  26.915   3.068  1.00  0.00     0.009 C 
HETATM   46  C24 UNL     1      20.280  25.420   4.708  1.00  0.00     0.009 C 
ENDBRANCH  43  44
ENDBRANCH  16  43
BRANCH  12  47
HETATM   47  C15 UNL     1      25.108  20.358   2.979  1.00  0.00     0.038 C 
BRANCH  47  48
HETATM   48  C16 UNL     1      23.982  19.573   3.515  1.00  0.00    -0.020 C 
HETATM   49  C17 UNL     1      24.594  18.714   4.657  1.00  0.00     0.009 C 
HETATM   50  C18 UNL     1      23.458  18.527   2.530  1.00  0.00     0.009 C 
ENDBRANCH  47  48
ENDBRANCH  12  47
BRANCH  15  51
HETATM   51  O4  UNL     1      21.952  22.484   3.371  1.00  0.00    -0.348 OA
ATOM     52  H4  UNL     1      21.239  23.031   3.063  1.00  0.00     0.219 HD
ENDBRANCH  15  51
TORSDOF 12
ENDMDL
