MODEL 1
REMARK VINA RESULT: -6.969551156      0.000      0.000
REMARK  11 active torsions:
REMARK  status: ('A' for Active; 'I' for Inactive)
REMARK    1  A    between atoms: C2_2  and  N1_3 
REMARK    2  A    between atoms: N1_3  and  C3_4 
REMARK    3  A    between atoms: N2_10  and  C9_11 
REMARK    4  A    between atoms: C9_11  and  C10_12 
REMARK       I    between atoms: C10_12  and  N3_14 
REMARK    5  A    between atoms: C16_21  and  C17_22 
REMARK    6  A    between atoms: C17_22  and  C18_23 
REMARK    7  A    between atoms: C22_30  and  C23_31 
REMARK    8  A    between atoms: C23_31  and  C24_32 
REMARK    9  A    between atoms: C24_32  and  C25_33 
REMARK   10  A    between atoms: C25_33  and  C26_34 
REMARK   11  A    between atoms: C26_34  and  N5_35 
REMARK       I    between atoms: N5_35  and  C27_37 
ROOT
HETATM    1  N1  UNL     1      23.954  22.014   3.272  1.00  0.00     0.021 N 
HETATM    2  C5  UNL     1      22.987  23.030   3.712  1.00  0.00     0.265 C 
HETATM    3  C6  UNL     1      23.369  24.395   3.265  1.00  0.00     0.032 C 
HETATM    4  C7  UNL     1      22.729  25.466   4.125  1.00  0.00     0.022 C 
HETATM    5  C8  UNL     1      23.776  26.184   4.961  1.00  0.00     0.126 C 
HETATM    6  N2  UNL     1      24.715  26.910   4.131  1.00  0.00    -0.342 N 
HETATM    7  C15 UNL     1      26.042  26.587   3.866  1.00  0.00     0.243 C 
HETATM    8  O2  UNL     1      26.420  26.738   2.646  1.00  0.00    -0.271 OA
HETATM    9  C16 UNL     1      27.113  26.092   4.754  1.00  0.00     0.177 C 
HETATM   10  N4  UNL     1      26.744  25.883   6.112  1.00  0.00    -0.346 N 
ATOM     11  H4  UNL     1      26.326  26.683   6.586  1.00  0.00     0.163 HD
HETATM   12  C21 UNL     1      26.884  24.697   6.898  1.00  0.00     0.241 C 
HETATM   13  O3  UNL     1      27.463  24.886   7.998  1.00  0.00    -0.271 OA
HETATM   14  C22 UNL     1      26.409  23.362   6.496  1.00  0.00     0.186 C 
HETATM   15  N8  UNL     1      27.171  22.961   5.339  1.00  0.00    -0.288 N 
ATOM     16  H8  UNL     1      28.098  23.335   5.135  1.00  0.00     0.174 HD
HETATM   17  S1  UNL     1      26.395  21.802   4.329  1.00  0.00     0.339 S 
HETATM   18  O4  UNL     1      26.135  20.589   5.118  1.00  0.00    -0.181 OA
HETATM   19  O5  UNL     1      27.495  21.390   3.335  1.00  0.00    -0.181 OA
HETATM   20  N9  UNL     1      25.182  22.482   3.444  1.00  0.00    -0.125 N 
ATOM     21  H9  UNL     1      25.401  23.362   2.976  1.00  0.00     0.208 HD
ENDROOT
BRANCH  14  22
HETATM   22  C23 UNL     1      26.463  22.365   7.601  1.00  0.00     0.035 C 
BRANCH  22  23
HETATM   23  C24 UNL     1      27.730  21.605   7.776  1.00  0.00     0.004 C 
BRANCH  23  24
HETATM   24  C25 UNL     1      27.505  20.263   8.456  1.00  0.00     0.020 C 
BRANCH  24  25
HETATM   25  C26 UNL     1      26.560  20.330   9.610  1.00  0.00     0.122 C 
BRANCH  25  26
HETATM   26  N5  UNL     1      25.644  19.206   9.466  1.00  0.00    -0.365 N 
HETATM   27  C27 UNL     1      24.774  19.074   8.350  1.00  0.00     0.181 C 
HETATM   28  N6  UNL     1      23.875  19.922   8.036  1.00  0.00    -0.374 N 
HETATM   29  N7  UNL     1      24.935  17.911   7.547  1.00  0.00    -0.064 NA
ATOM     30  H62 UNL     1      23.760  20.756   8.613  1.00  0.00     0.158 HD
ATOM     31  H61 UNL     1      23.250  19.827   7.236  1.00  0.00     0.158 HD
ATOM     32  H5  UNL     1      25.627  18.488  10.190  1.00  0.00     0.162 HD
ENDBRANCH  25  26
ENDBRANCH  24  25
ENDBRANCH  23  24
ENDBRANCH  22  23
ENDBRANCH  14  22
BRANCH   9  33
HETATM   33  C17 UNL     1      28.282  27.103   4.680  1.00  0.00     0.038 C 
BRANCH  33  34
HETATM   34  C18 UNL     1      28.536  27.795   5.970  1.00  0.00    -0.020 C 
HETATM   35  C19 UNL     1      28.503  29.302   5.669  1.00  0.00     0.009 C 
HETATM   36  C20 UNL     1      29.909  27.527   6.536  1.00  0.00     0.009 C 
ENDBRANCH  33  34
ENDBRANCH   9  33
BRANCH   1  37
HETATM   37  C2  UNL     1      23.714  21.878   1.830  1.00  0.00     0.261 C 
HETATM   38  C1  UNL     1      24.918  21.573   1.025  1.00  0.00     0.037 C 
ENDBRANCH   1  37
BRANCH   1  39
HETATM   39  C3  UNL     1      23.540  20.785   3.868  1.00  0.00     0.261 C 
HETATM   40  C4  UNL     1      22.238  20.237   3.381  1.00  0.00     0.037 C 
ENDBRANCH   1  39
BRANCH   6  41
HETATM   41  C9  UNL     1      24.090  28.115   3.527  1.00  0.00     0.228 C 
BRANCH  41  42
HETATM   42  C10 UNL     1      24.749  29.276   4.169  1.00  0.00     0.237 C 
HETATM   43  O1  UNL     1      24.688  29.519   5.393  1.00  0.00    -0.272 OA
HETATM   44  N3  UNL     1      25.503  30.189   3.373  1.00  0.00    -0.351 N 
HETATM   45  C11 UNL     1      26.221  31.374   3.796  1.00  0.00     0.126 C 
HETATM   46  C14 UNL     1      25.678  30.073   1.944  1.00  0.00     0.126 C 
HETATM   47  C12 UNL     1      27.233  31.640   2.707  1.00  0.00     0.021 C 
HETATM   48  C13 UNL     1      27.152  30.430   1.782  1.00  0.00     0.021 C 
ENDBRANCH  41  42
ENDBRANCH   6  41
TORSDOF 11
ENDMDL
MODEL 2
REMARK VINA RESULT: -6.933854449      2.658      8.643
REMARK  11 active torsions:
REMARK  status: ('A' for Active; 'I' for Inactive)
REMARK    1  A    between atoms: C2_2  and  N1_3 
REMARK    2  A    between atoms: N1_3  and  C3_4 
REMARK    3  A    between atoms: N2_10  and  C9_11 
REMARK    4  A    between atoms: C9_11  and  C10_12 
REMARK       I    between atoms: C10_12  and  N3_14 
REMARK    5  A    between atoms: C16_21  and  C17_22 
REMARK    6  A    between atoms: C17_22  and  C18_23 
REMARK    7  A    between atoms: C22_30  and  C23_31 
REMARK    8  A    between atoms: C23_31  and  C24_32 
REMARK    9  A    between atoms: C24_32  and  C25_33 
REMARK   10  A    between atoms: C25_33  and  C26_34 
REMARK   11  A    between atoms: C26_34  and  N5_35 
REMARK       I    between atoms: N5_35  and  C27_37 
ROOT
HETATM    1  N1  UNL     1      27.799  26.916   5.111  1.00  0.00     0.021 N 
HETATM    2  C5  UNL     1      27.570  26.070   6.290  1.00  0.00     0.265 C 
HETATM    3  C6  UNL     1      27.732  24.625   5.980  1.00  0.00     0.032 C 
HETATM    4  C7  UNL     1      27.001  23.752   6.980  1.00  0.00     0.022 C 
HETATM    5  C8  UNL     1      25.815  23.062   6.326  1.00  0.00     0.126 C 
HETATM    6  N2  UNL     1      26.238  22.140   5.291  1.00  0.00    -0.342 N 
HETATM    7  C15 UNL     1      26.119  22.293   3.914  1.00  0.00     0.243 C 
HETATM    8  O2  UNL     1      27.143  21.937   3.222  1.00  0.00    -0.271 OA
HETATM    9  C16 UNL     1      25.004  22.803   3.090  1.00  0.00     0.177 C 
HETATM   10  N4  UNL     1      23.853  23.236   3.806  1.00  0.00    -0.346 N 
ATOM     11  H4  UNL     1      23.447  22.554   4.447  1.00  0.00     0.163 HD
HETATM   12  C21 UNL     1      23.191  24.501   3.743  1.00  0.00     0.241 C 
HETATM   13  O3  UNL     1      21.953  24.414   3.538  1.00  0.00    -0.271 OA
HETATM   14  C22 UNL     1      23.857  25.807   3.899  1.00  0.00     0.186 C 
HETATM   15  N8  UNL     1      24.762  25.966   2.787  1.00  0.00    -0.288 N 
ATOM     16  H8  UNL     1      24.633  25.480   1.900  1.00  0.00     0.174 HD
HETATM   17  S1  UNL     1      26.077  27.040   3.075  1.00  0.00     0.339 S 
HETATM   18  O4  UNL     1      25.537  28.371   3.389  1.00  0.00    -0.181 OA
HETATM   19  O5  UNL     1      26.726  27.201   1.690  1.00  0.00    -0.181 OA
HETATM   20  N9  UNL     1      27.212  26.361   4.059  1.00  0.00    -0.125 N 
ATOM     21  H9  UNL     1      27.496  25.408   3.834  1.00  0.00     0.208 HD
ENDROOT
BRANCH  14  22
HETATM   22  C23 UNL     1      22.900  26.939   4.035  1.00  0.00     0.035 C 
BRANCH  22  23
HETATM   23  C24 UNL     1      22.541  27.685   2.798  1.00  0.00     0.004 C 
BRANCH  23  24
HETATM   24  C25 UNL     1      21.124  27.380   2.336  1.00  0.00     0.020 C 
BRANCH  24  25
HETATM   25  C26 UNL     1      20.073  27.838   3.292  1.00  0.00     0.122 C 
BRANCH  25  26
HETATM   26  N5  UNL     1      19.059  26.791   3.331  1.00  0.00    -0.365 N 
HETATM   27  C27 UNL     1      18.746  26.080   4.520  1.00  0.00     0.181 C 
HETATM   28  N6  UNL     1      19.581  25.376   5.177  1.00  0.00    -0.374 N 
HETATM   29  N7  UNL     1      17.406  26.176   4.988  1.00  0.00    -0.064 NA
ATOM     30  H62 UNL     1      20.543  25.308   4.842  1.00  0.00     0.158 HD
ATOM     31  H61 UNL     1      19.357  24.865   6.031  1.00  0.00     0.158 HD
ATOM     32  H5  UNL     1      18.557  26.561   2.474  1.00  0.00     0.162 HD
ENDBRANCH  25  26
ENDBRANCH  24  25
ENDBRANCH  23  24
ENDBRANCH  22  23
ENDBRANCH  14  22
BRANCH   9  33
HETATM   33  C17 UNL     1      24.612  21.685   2.096  1.00  0.00     0.038 C 
BRANCH  33  34
HETATM   34  C18 UNL     1      23.590  20.753   2.641  1.00  0.00    -0.020 C 
HETATM   35  C19 UNL     1      24.158  19.335   2.466  1.00  0.00     0.009 C 
HETATM   36  C20 UNL     1      22.292  20.766   1.871  1.00  0.00     0.009 C 
ENDBRANCH  33  34
ENDBRANCH   9  33
BRANCH   1  37
HETATM   37  C2  UNL     1      29.251  26.870   4.902  1.00  0.00     0.261 C 
HETATM   38  C1  UNL     1      29.733  27.614   3.717  1.00  0.00     0.037 C 
ENDBRANCH   1  37
BRANCH   1  39
HETATM   39  C3  UNL     1      27.490  28.251   5.511  1.00  0.00     0.261 C 
HETATM   40  C4  UNL     1      26.669  28.379   6.753  1.00  0.00     0.037 C 
ENDBRANCH   1  39
BRANCH   6  41
HETATM   41  C9  UNL     1      26.873  20.927   5.870  1.00  0.00     0.228 C 
BRANCH  41  42
HETATM   42  C10 UNL     1      25.777  20.167   6.515  1.00  0.00     0.237 C 
HETATM   43  O1  UNL     1      24.821  19.661   5.889  1.00  0.00    -0.272 OA
HETATM   44  N3  UNL     1      25.783  19.983   7.930  1.00  0.00    -0.351 N 
HETATM   45  C11 UNL     1      24.821  19.278   8.751  1.00  0.00     0.126 C 
HETATM   46  C14 UNL     1      26.800  20.499   8.815  1.00  0.00     0.126 C 
HETATM   47  C12 UNL     1      25.554  18.942  10.028  1.00  0.00     0.021 C 
HETATM   48  C13 UNL     1      27.006  19.327   9.769  1.00  0.00     0.021 C 
ENDBRANCH  41  42
ENDBRANCH   6  41
TORSDOF 11
ENDMDL
MODEL 3
REMARK VINA RESULT: -6.911307920      2.587      8.624
REMARK  11 active torsions:
REMARK  status: ('A' for Active; 'I' for Inactive)
REMARK    1  A    between atoms: C2_2  and  N1_3 
REMARK    2  A    between atoms: N1_3  and  C3_4 
REMARK    3  A    between atoms: N2_10  and  C9_11 
REMARK    4  A    between atoms: C9_11  and  C10_12 
REMARK       I    between atoms: C10_12  and  N3_14 
REMARK    5  A    between atoms: C16_21  and  C17_22 
REMARK    6  A    between atoms: C17_22  and  C18_23 
REMARK    7  A    between atoms: C22_30  and  C23_31 
REMARK    8  A    between atoms: C23_31  and  C24_32 
REMARK    9  A    between atoms: C24_32  and  C25_33 
REMARK   10  A    between atoms: C25_33  and  C26_34 
REMARK   11  A    between atoms: C26_34  and  N5_35 
REMARK       I    between atoms: N5_35  and  C27_37 
ROOT
HETATM    1  N1  UNL     1      27.871  26.088   6.809  1.00  0.00     0.021 N 
HETATM    2  C5  UNL     1      27.299  25.188   7.820  1.00  0.00     0.265 C 
HETATM    3  C6  UNL     1      27.517  23.757   7.479  1.00  0.00     0.032 C 
HETATM    4  C7  UNL     1      26.515  22.857   8.173  1.00  0.00     0.022 C 
HETATM    5  C8  UNL     1      25.552  22.246   7.168  1.00  0.00     0.126 C 
HETATM    6  N2  UNL     1      26.235  21.368   6.241  1.00  0.00    -0.342 N 
HETATM    7  C15 UNL     1      26.516  21.600   4.899  1.00  0.00     0.243 C 
HETATM    8  O2  UNL     1      27.688  21.247   4.504  1.00  0.00    -0.271 OA
HETATM    9  C16 UNL     1      25.692  22.194   3.826  1.00  0.00     0.177 C 
HETATM   10  N4  UNL     1      24.392  22.627   4.212  1.00  0.00    -0.346 N 
ATOM     11  H4  UNL     1      23.808  21.926   4.668  1.00  0.00     0.163 HD
HETATM   12  C21 UNL     1      23.800  23.917   4.043  1.00  0.00     0.241 C 
HETATM   13  O3  UNL     1      22.670  23.886   3.492  1.00  0.00    -0.271 OA
HETATM   14  C22 UNL     1      24.417  25.187   4.463  1.00  0.00     0.186 C 
HETATM   15  N8  UNL     1      25.605  25.375   3.666  1.00  0.00    -0.288 N 
ATOM     16  H8  UNL     1      25.725  24.943   2.749  1.00  0.00     0.174 HD
HETATM   17  S1  UNL     1      26.802  26.384   4.381  1.00  0.00     0.339 S 
HETATM   18  O4  UNL     1      26.220  27.715   4.612  1.00  0.00    -0.181 OA
HETATM   19  O5  UNL     1      27.822  26.598   3.249  1.00  0.00    -0.181 OA
HETATM   20  N9  UNL     1      27.598  25.613   5.602  1.00  0.00    -0.125 N 
ATOM     21  H9  UNL     1      27.916  24.664   5.407  1.00  0.00     0.208 HD
ENDROOT
BRANCH  14  22
HETATM   22  C23 UNL     1      23.482  26.344   4.393  1.00  0.00     0.035 C 
BRANCH  22  23
HETATM   23  C24 UNL     1      23.427  27.103   3.114  1.00  0.00     0.004 C 
BRANCH  23  24
HETATM   24  C25 UNL     1      22.048  27.046   2.473  1.00  0.00     0.020 C 
BRANCH  24  25
HETATM   25  C26 UNL     1      22.072  26.610   1.046  1.00  0.00     0.122 C 
BRANCH  25  26
HETATM   26  N5  UNL     1      22.923  25.429   0.985  1.00  0.00    -0.365 N 
HETATM   27  C27 UNL     1      24.004  25.317   0.069  1.00  0.00     0.181 C 
HETATM   28  N6  UNL     1      23.878  25.363  -1.199  1.00  0.00    -0.374 N 
HETATM   29  N7  UNL     1      25.301  25.143   0.627  1.00  0.00    -0.064 NA
ATOM     30  H62 UNL     1      22.948  25.488  -1.599  1.00  0.00     0.158 HD
ATOM     31  H61 UNL     1      24.653  25.283  -1.857  1.00  0.00     0.158 HD
ATOM     32  H5  UNL     1      22.738  24.655   1.622  1.00  0.00     0.162 HD
ENDBRANCH  25  26
ENDBRANCH  24  25
ENDBRANCH  23  24
ENDBRANCH  22  23
ENDBRANCH  14  22
BRANCH   9  33
HETATM   33  C17 UNL     1      25.578  21.146   2.694  1.00  0.00     0.038 C 
BRANCH  33  34
HETATM   34  C18 UNL     1      24.771  21.621   1.540  1.00  0.00    -0.020 C 
HETATM   35  C19 UNL     1      23.677  20.565   1.311  1.00  0.00     0.009 C 
HETATM   36  C20 UNL     1      25.547  21.684   0.247  1.00  0.00     0.009 C 
ENDBRANCH  33  34
ENDBRANCH   9  33
BRANCH   1  37
HETATM   37  C2  UNL     1      29.321  26.003   7.018  1.00  0.00     0.261 C 
HETATM   38  C1  UNL     1      29.970  27.276   7.405  1.00  0.00     0.037 C 
ENDBRANCH   1  37
BRANCH   1  39
HETATM   39  C3  UNL     1      27.485  27.410   7.188  1.00  0.00     0.261 C 
HETATM   40  C4  UNL     1      26.214  27.513   7.966  1.00  0.00     0.037 C 
ENDBRANCH   1  39
BRANCH   6  41
HETATM   41  C9  UNL     1      26.656  20.103   6.898  1.00  0.00     0.228 C 
BRANCH  41  42
HETATM   42  C10 UNL     1      25.427  19.528   7.492  1.00  0.00     0.237 C 
HETATM   43  O1  UNL     1      25.142  19.604   8.706  1.00  0.00    -0.272 OA
HETATM   44  N3  UNL     1      24.495  18.841   6.658  1.00  0.00    -0.351 N 
HETATM   45  C11 UNL     1      23.244  18.214   7.031  1.00  0.00     0.126 C 
HETATM   46  C14 UNL     1      24.659  18.650   5.236  1.00  0.00     0.126 C 
HETATM   47  C12 UNL     1      22.444  18.124   5.753  1.00  0.00     0.021 C 
HETATM   48  C13 UNL     1      23.247  18.910   4.722  1.00  0.00     0.021 C 
ENDBRANCH  41  42
ENDBRANCH   6  41
TORSDOF 11
ENDMDL
MODEL 4
REMARK VINA RESULT: -6.845141104      0.757      1.098
REMARK  11 active torsions:
REMARK  status: ('A' for Active; 'I' for Inactive)
REMARK    1  A    between atoms: C2_2  and  N1_3 
REMARK    2  A    between atoms: N1_3  and  C3_4 
REMARK    3  A    between atoms: N2_10  and  C9_11 
REMARK    4  A    between atoms: C9_11  and  C10_12 
REMARK       I    between atoms: C10_12  and  N3_14 
REMARK    5  A    between atoms: C16_21  and  C17_22 
REMARK    6  A    between atoms: C17_22  and  C18_23 
REMARK    7  A    between atoms: C22_30  and  C23_31 
REMARK    8  A    between atoms: C23_31  and  C24_32 
REMARK    9  A    between atoms: C24_32  and  C25_33 
REMARK   10  A    between atoms: C25_33  and  C26_34 
REMARK   11  A    between atoms: C26_34  and  N5_35 
REMARK       I    between atoms: N5_35  and  C27_37 
ROOT
HETATM    1  N1  UNL     1      23.973  22.071   3.175  1.00  0.00     0.021 N 
HETATM    2  C5  UNL     1      23.026  23.063   3.705  1.00  0.00     0.265 C 
HETATM    3  C6  UNL     1      23.412  24.452   3.338  1.00  0.00     0.032 C 
HETATM    4  C7  UNL     1      22.802  25.469   4.282  1.00  0.00     0.022 C 
HETATM    5  C8  UNL     1      23.876  26.122   5.137  1.00  0.00     0.126 C 
HETATM    6  N2  UNL     1      24.802  26.893   4.334  1.00  0.00    -0.342 N 
HETATM    7  C15 UNL     1      26.119  26.578   4.016  1.00  0.00     0.243 C 
HETATM    8  O2  UNL     1      26.469  26.805   2.799  1.00  0.00    -0.271 OA
HETATM    9  C16 UNL     1      27.206  26.017   4.843  1.00  0.00     0.177 C 
HETATM   10  N4  UNL     1      26.868  25.722   6.193  1.00  0.00    -0.346 N 
ATOM     11  H4  UNL     1      26.469  26.493   6.729  1.00  0.00     0.163 HD
HETATM   12  C21 UNL     1      27.016  24.486   6.895  1.00  0.00     0.241 C 
HETATM   13  O3  UNL     1      27.623  24.597   7.991  1.00  0.00    -0.271 OA
HETATM   14  C22 UNL     1      26.518  23.183   6.419  1.00  0.00     0.186 C 
HETATM   15  N8  UNL     1      27.248  22.854   5.220  1.00  0.00    -0.288 N 
ATOM     16  H8  UNL     1      28.174  23.232   5.018  1.00  0.00     0.174 HD
HETATM   17  S1  UNL     1      26.437  21.770   4.155  1.00  0.00     0.339 S 
HETATM   18  O4  UNL     1      26.183  20.510   4.870  1.00  0.00    -0.181 OA
HETATM   19  O5  UNL     1      27.508  21.415   3.110  1.00  0.00    -0.181 OA
HETATM   20  N9  UNL     1      25.209  22.517   3.347  1.00  0.00    -0.125 N 
ATOM     21  H9  UNL     1      25.425  23.423   2.933  1.00  0.00     0.208 HD
ENDROOT
BRANCH  14  22
HETATM   22  C23 UNL     1      26.589  22.115   7.454  1.00  0.00     0.035 C 
BRANCH  22  23
HETATM   23  C24 UNL     1      25.416  21.956   8.357  1.00  0.00     0.004 C 
BRANCH  23  24
HETATM   24  C25 UNL     1      25.212  20.510   8.781  1.00  0.00     0.020 C 
BRANCH  24  25
HETATM   25  C26 UNL     1      24.387  19.717   7.821  1.00  0.00     0.122 C 
BRANCH  25  26
HETATM   26  N5  UNL     1      25.310  18.860   7.088  1.00  0.00    -0.365 N 
HETATM   27  C27 UNL     1      24.950  17.558   6.649  1.00  0.00     0.181 C 
HETATM   28  N6  UNL     1      24.594  16.610   7.424  1.00  0.00    -0.374 N 
HETATM   29  N7  UNL     1      24.999  17.319   5.247  1.00  0.00    -0.064 NA
ATOM     30  H62 UNL     1      24.559  16.781   8.429  1.00  0.00     0.158 HD
ATOM     31  H61 UNL     1      24.336  15.675   7.108  1.00  0.00     0.158 HD
ATOM     32  H5  UNL     1      26.247  19.206   6.884  1.00  0.00     0.162 HD
ENDBRANCH  25  26
ENDBRANCH  24  25
ENDBRANCH  23  24
ENDBRANCH  22  23
ENDBRANCH  14  22
BRANCH   9  33
HETATM   33  C17 UNL     1      28.383  27.021   4.806  1.00  0.00     0.038 C 
BRANCH  33  34
HETATM   34  C18 UNL     1      28.675  27.625   6.132  1.00  0.00    -0.020 C 
HETATM   35  C19 UNL     1      28.614  29.148   5.939  1.00  0.00     0.009 C 
HETATM   36  C20 UNL     1      30.070  27.336   6.630  1.00  0.00     0.009 C 
ENDBRANCH  33  34
ENDBRANCH   9  33
BRANCH   1  37
HETATM   37  C2  UNL     1      23.696  22.032   1.733  1.00  0.00     0.261 C 
HETATM   38  C1  UNL     1      24.898  22.055   0.869  1.00  0.00     0.037 C 
ENDBRANCH   1  37
BRANCH   1  39
HETATM   39  C3  UNL     1      23.562  20.808   3.699  1.00  0.00     0.261 C 
HETATM   40  C4  UNL     1      22.276  20.272   3.158  1.00  0.00     0.037 C 
ENDBRANCH   1  39
BRANCH   6  41
HETATM   41  C9  UNL     1      24.174  28.140   3.826  1.00  0.00     0.228 C 
BRANCH  41  42
HETATM   42  C10 UNL     1      24.883  29.253   4.500  1.00  0.00     0.237 C 
HETATM   43  O1  UNL     1      24.880  29.428   5.738  1.00  0.00    -0.272 OA
HETATM   44  N3  UNL     1      25.620  30.195   3.723  1.00  0.00    -0.351 N 
HETATM   45  C11 UNL     1      26.378  31.342   4.178  1.00  0.00     0.126 C 
HETATM   46  C14 UNL     1      25.731  30.156   2.284  1.00  0.00     0.126 C 
HETATM   47  C12 UNL     1      27.347  31.651   3.062  1.00  0.00     0.021 C 
HETATM   48  C13 UNL     1      27.203  30.495   2.077  1.00  0.00     0.021 C 
ENDBRANCH  41  42
ENDBRANCH   6  41
TORSDOF 11
ENDMDL
MODEL 5
REMARK VINA RESULT: -6.810844542      1.326      1.642
REMARK  11 active torsions:
REMARK  status: ('A' for Active; 'I' for Inactive)
REMARK    1  A    between atoms: C2_2  and  N1_3 
REMARK    2  A    between atoms: N1_3  and  C3_4 
REMARK    3  A    between atoms: N2_10  and  C9_11 
REMARK    4  A    between atoms: C9_11  and  C10_12 
REMARK       I    between atoms: C10_12  and  N3_14 
REMARK    5  A    between atoms: C16_21  and  C17_22 
REMARK    6  A    between atoms: C17_22  and  C18_23 
REMARK    7  A    between atoms: C22_30  and  C23_31 
REMARK    8  A    between atoms: C23_31  and  C24_32 
REMARK    9  A    between atoms: C24_32  and  C25_33 
REMARK   10  A    between atoms: C25_33  and  C26_34 
REMARK   11  A    between atoms: C26_34  and  N5_35 
REMARK       I    between atoms: N5_35  and  C27_37 
ROOT
HETATM    1  N1  UNL     1      23.960  22.497   2.948  1.00  0.00     0.021 N 
HETATM    2  C5  UNL     1      23.108  23.519   3.572  1.00  0.00     0.265 C 
HETATM    3  C6  UNL     1      23.669  24.887   3.409  1.00  0.00     0.032 C 
HETATM    4  C7  UNL     1      23.134  25.840   4.458  1.00  0.00     0.022 C 
HETATM    5  C8  UNL     1      24.230  26.243   5.431  1.00  0.00     0.126 C 
HETATM    6  N2  UNL     1      25.279  26.993   4.771  1.00  0.00    -0.342 N 
HETATM    7  C15 UNL     1      26.565  26.565   4.460  1.00  0.00     0.243 C 
HETATM    8  O2  UNL     1      27.001  26.903   3.298  1.00  0.00    -0.271 OA
HETATM    9  C16 UNL     1      27.537  25.775   5.243  1.00  0.00     0.177 C 
HETATM   10  N4  UNL     1      27.099  25.351   6.528  1.00  0.00    -0.346 N 
ATOM     11  H4  UNL     1      26.764  26.090   7.148  1.00  0.00     0.163 HD
HETATM   12  C21 UNL     1      27.067  24.026   7.064  1.00  0.00     0.241 C 
HETATM   13  O3  UNL     1      27.626  23.922   8.186  1.00  0.00    -0.271 OA
HETATM   14  C22 UNL     1      26.447  22.866   6.401  1.00  0.00     0.186 C 
HETATM   15  N8  UNL     1      27.195  22.608   5.194  1.00  0.00    -0.288 N 
ATOM     16  H8  UNL     1      28.167  22.895   5.078  1.00  0.00     0.174 HD
HETATM   17  S1  UNL     1      26.320  21.777   3.966  1.00  0.00     0.339 S 
HETATM   18  O4  UNL     1      25.887  20.475   4.496  1.00  0.00    -0.181 OA
HETATM   19  O5  UNL     1      27.395  21.432   2.921  1.00  0.00    -0.181 OA
HETATM   20  N9  UNL     1      25.229  22.764   3.222  1.00  0.00    -0.125 N 
ATOM     21  H9  UNL     1      25.569  23.683   2.941  1.00  0.00     0.208 HD
ENDROOT
BRANCH  14  22
HETATM   22  C23 UNL     1      26.342  21.673   7.285  1.00  0.00     0.035 C 
BRANCH  22  23
HETATM   23  C24 UNL     1      25.473  21.786   8.488  1.00  0.00     0.004 C 
BRANCH  23  24
HETATM   24  C25 UNL     1      24.576  20.571   8.664  1.00  0.00     0.020 C 
BRANCH  24  25
HETATM   25  C26 UNL     1      24.787  19.518   7.626  1.00  0.00     0.122 C 
BRANCH  25  26
HETATM   26  N5  UNL     1      23.734  19.692   6.635  1.00  0.00    -0.365 N 
HETATM   27  C27 UNL     1      23.298  18.632   5.795  1.00  0.00     0.181 C 
HETATM   28  N6  UNL     1      24.050  18.011   4.973  1.00  0.00    -0.374 N 
HETATM   29  N7  UNL     1      21.929  18.257   5.896  1.00  0.00    -0.064 NA
ATOM     30  H62 UNL     1      25.031  18.279   4.901  1.00  0.00     0.158 HD
ATOM     31  H61 UNL     1      23.737  17.250   4.371  1.00  0.00     0.158 HD
ATOM     32  H5  UNL     1      23.294  20.607   6.539  1.00  0.00     0.162 HD
ENDBRANCH  25  26
ENDBRANCH  24  25
ENDBRANCH  23  24
ENDBRANCH  22  23
ENDBRANCH  14  22
BRANCH   9  33
HETATM   33  C17 UNL     1      28.822  26.626   5.382  1.00  0.00     0.038 C 
BRANCH  33  34
HETATM   34  C18 UNL     1      29.190  26.897   6.797  1.00  0.00    -0.020 C 
HETATM   35  C19 UNL     1      29.364  28.420   6.916  1.00  0.00     0.009 C 
HETATM   36  C20 UNL     1      30.520  26.306   7.196  1.00  0.00     0.009 C 
ENDBRANCH  33  34
ENDBRANCH   9  33
BRANCH   1  37
HETATM   37  C2  UNL     1      23.755  22.677   1.506  1.00  0.00     0.261 C 
HETATM   38  C1  UNL     1      24.998  22.802   0.712  1.00  0.00     0.037 C 
ENDBRANCH   1  37
BRANCH   1  39
HETATM   39  C3  UNL     1      23.380  21.236   3.283  1.00  0.00     0.261 C 
HETATM   40  C4  UNL     1      21.922  21.097   2.989  1.00  0.00     0.037 C 
ENDBRANCH   1  39
BRANCH   6  41
HETATM   41  C9  UNL     1      24.825  28.363   4.413  1.00  0.00     0.228 C 
BRANCH  41  42
HETATM   42  C10 UNL     1      25.565  29.280   5.310  1.00  0.00     0.237 C 
HETATM   43  O1  UNL     1      25.401  29.321   6.548  1.00  0.00    -0.272 OA
HETATM   44  N3  UNL     1      26.525  30.182   4.762  1.00  0.00    -0.351 N 
HETATM   45  C11 UNL     1      27.350  31.150   5.455  1.00  0.00     0.126 C 
HETATM   46  C14 UNL     1      26.842  30.282   3.357  1.00  0.00     0.126 C 
HETATM   47  C12 UNL     1      28.506  31.431   4.524  1.00  0.00     0.021 C 
HETATM   48  C13 UNL     1      28.360  30.422   3.390  1.00  0.00     0.021 C 
ENDBRANCH  41  42
ENDBRANCH   6  41
TORSDOF 11
ENDMDL
