MODEL 1
REMARK VINA RESULT: -7.159564416      0.000      0.000
REMARK  16 active torsions:
REMARK  status: ('A' for Active; 'I' for Inactive)
REMARK    1  A    between atoms: C2_2  and  C3_3 
REMARK    2  A    between atoms: C3_3  and  C4_4 
REMARK    3  A    between atoms: C4_4  and  C5_5 
REMARK    4  A    between atoms: C7_10  and  C8_11 
REMARK    5  A    between atoms: C8_11  and  O2_12 
REMARK    6  A    between atoms: C11_19  and  C12_20 
REMARK    7  A    between atoms: C14_26  and  C15_27 
REMARK    8  A    between atoms: C15_27  and  C16_28 
REMARK    9  A    between atoms: C16_28  and  C17_29 
REMARK   10  A    between atoms: C17_29  and  C18_30 
REMARK   11  A    between atoms: C18_30  and  C19_31 
REMARK   12  A    between atoms: C19_31  and  C20_32 
REMARK   13  A    between atoms: C20_32  and  N4_33 
REMARK       I    between atoms: N4_33  and  C21_35 
REMARK   14  A    between atoms: C21_35  and  C22_37 
REMARK   15  A    between atoms: C22_37  and  C23_38 
REMARK   16  A    between atoms: C23_38  and  S1_39 
ROOT
HETATM    1  C5  UNL     1       4.075  14.565  36.475  1.00  0.00     0.176 C 
HETATM    2  N1  UNL     1       5.442  14.858  36.805  1.00  0.00    -0.346 N 
ATOM      3  H1  UNL     1       5.612  15.080  37.786  1.00  0.00     0.163 HD
HETATM    4  C6  UNL     1       6.579  14.884  35.983  1.00  0.00     0.243 C 
HETATM    5  O1  UNL     1       7.269  15.970  35.984  1.00  0.00    -0.271 OA
HETATM    6  C7  UNL     1       7.108  13.832  35.106  1.00  0.00     0.200 C 
HETATM    7  N2  UNL     1       7.329  12.541  35.692  1.00  0.00    -0.346 N 
ATOM      8  H2  UNL     1       7.099  11.757  35.080  1.00  0.00     0.163 HD
HETATM    9  C9  UNL     1       7.801  12.165  36.947  1.00  0.00     0.220 C 
HETATM   10  O3  UNL     1       7.851  10.901  37.185  1.00  0.00    -0.274 OA
HETATM   11  C10 UNL     1       8.264  12.968  38.083  1.00  0.00     0.135 C 
HETATM   12  C11 UNL     1       7.749  12.565  39.427  1.00  0.00     0.154 C 
HETATM   13  N3  UNL     1       6.787  11.497  39.452  1.00  0.00    -0.348 N 
ATOM     14  H3  UNL     1       7.214  10.572  39.505  1.00  0.00     0.163 HD
HETATM   15  C13 UNL     1       5.394  11.461  39.419  1.00  0.00     0.241 C 
HETATM   16  O5  UNL     1       4.811  11.022  40.492  1.00  0.00    -0.271 OA
HETATM   17  C14 UNL     1       4.428  11.833  38.364  1.00  0.00     0.176 C 
HETATM   18  N5  UNL     1       3.798  13.132  38.607  1.00  0.00    -0.346 N 
ATOM     19  H5  UNL     1       3.689  13.404  39.584  1.00  0.00     0.163 HD
HETATM   20  C26 UNL     1       3.331  14.037  37.662  1.00  0.00     0.241 C 
HETATM   21  O7  UNL     1       2.158  14.490  37.780  1.00  0.00    -0.271 OA
ENDROOT
BRANCH  17  22
HETATM   22  C15 UNL     1       3.227  10.853  38.396  1.00  0.00     0.035 C 
BRANCH  22  23
HETATM   23  C16 UNL     1       2.039  11.423  39.115  1.00  0.00     0.002 C 
BRANCH  23  24
HETATM   24  C17 UNL     1       1.075  10.415  39.608  1.00  0.00     0.000 C 
BRANCH  24  25
HETATM   25  C18 UNL     1       1.339  10.092  41.048  1.00  0.00     0.002 C 
BRANCH  25  26
HETATM   26  C19 UNL     1       0.228  10.562  41.925  1.00  0.00     0.020 C 
BRANCH  26  27
HETATM   27  C20 UNL     1      -0.449   9.418  42.658  1.00  0.00     0.122 C 
BRANCH  27  28
HETATM   28  N4  UNL     1       0.440   8.753  43.576  1.00  0.00    -0.361 N 
HETATM   29  C21 UNL     1       0.749   9.196  44.878  1.00  0.00     0.218 C 
HETATM   30  O6  UNL     1       0.275  10.239  45.383  1.00  0.00    -0.274 OA
ATOM     31  H4  UNL     1       0.881   7.890  43.258  1.00  0.00     0.162 HD
BRANCH  29  32
HETATM   32  C22 UNL     1       1.687   8.401  45.717  1.00  0.00     0.112 C 
BRANCH  32  33
HETATM   33  C23 UNL     1       3.093   8.954  45.653  1.00  0.00     0.072 C 
BRANCH  33  34
HETATM   34  S1  UNL     1       3.648   9.128  43.977  1.00  0.00    -0.228 SA
HETATM   35  C24 UNL     1       4.123   7.544  43.336  1.00  0.00     0.078 C 
HETATM   36  C25 UNL     1       5.010  10.228  43.838  1.00  0.00     0.078 C 
ENDBRANCH  33  34
ENDBRANCH  32  33
ENDBRANCH  29  32
ENDBRANCH  27  28
ENDBRANCH  26  27
ENDBRANCH  25  26
ENDBRANCH  24  25
ENDBRANCH  23  24
ENDBRANCH  22  23
ENDBRANCH  17  22
BRANCH  12  37
HETATM   37  C12 UNL     1       7.398  13.767  40.228  1.00  0.00     0.256 C 
HETATM   38  O4  UNL     1       6.506  14.498  39.872  1.00  0.00    -0.305 OA
ENDBRANCH  12  37
BRANCH   1  39
HETATM   39  C4  UNL     1       3.844  13.798  35.229  1.00  0.00     0.035 C 
BRANCH  39  40
HETATM   40  C3  UNL     1       2.878  14.590  34.354  1.00  0.00     0.002 C 
BRANCH  40  41
HETATM   41  C2  UNL     1       3.371  16.005  34.142  1.00  0.00    -0.004 C 
HETATM   42  C1  UNL     1       4.677  16.054  33.399  1.00  0.00     0.005 C 
ENDBRANCH  40  41
ENDBRANCH  39  40
ENDBRANCH   1  39
BRANCH   6  43
HETATM   43  C8  UNL     1       8.465  14.235  34.494  1.00  0.00     0.199 C 
BRANCH  43  44
HETATM   44  O2  UNL     1       8.344  15.200  33.528  1.00  0.00    -0.398 OA
ATOM     45  H2  UNL     1       9.129  15.727  33.436  1.00  0.00     0.209 HD
ENDBRANCH  43  44
ENDBRANCH   6  43
TORSDOF 16
ENDMDL
MODEL 2
REMARK VINA RESULT: -6.985598722      1.274      1.890
REMARK  16 active torsions:
REMARK  status: ('A' for Active; 'I' for Inactive)
REMARK    1  A    between atoms: C2_2  and  C3_3 
REMARK    2  A    between atoms: C3_3  and  C4_4 
REMARK    3  A    between atoms: C4_4  and  C5_5 
REMARK    4  A    between atoms: C7_10  and  C8_11 
REMARK    5  A    between atoms: C8_11  and  O2_12 
REMARK    6  A    between atoms: C11_19  and  C12_20 
REMARK    7  A    between atoms: C14_26  and  C15_27 
REMARK    8  A    between atoms: C15_27  and  C16_28 
REMARK    9  A    between atoms: C16_28  and  C17_29 
REMARK   10  A    between atoms: C17_29  and  C18_30 
REMARK   11  A    between atoms: C18_30  and  C19_31 
REMARK   12  A    between atoms: C19_31  and  C20_32 
REMARK   13  A    between atoms: C20_32  and  N4_33 
REMARK       I    between atoms: N4_33  and  C21_35 
REMARK   14  A    between atoms: C21_35  and  C22_37 
REMARK   15  A    between atoms: C22_37  and  C23_38 
REMARK   16  A    between atoms: C23_38  and  S1_39 
ROOT
HETATM    1  C5  UNL     1       4.028  14.512  36.419  1.00  0.00     0.176 C 
HETATM    2  N1  UNL     1       5.382  14.828  36.780  1.00  0.00    -0.346 N 
ATOM      3  H1  UNL     1       5.527  15.052  37.765  1.00  0.00     0.163 HD
HETATM    4  C6  UNL     1       6.536  14.876  35.984  1.00  0.00     0.243 C 
HETATM    5  O1  UNL     1       7.207  15.974  36.001  1.00  0.00    -0.271 OA
HETATM    6  C7  UNL     1       7.103  13.835  35.118  1.00  0.00     0.200 C 
HETATM    7  N2  UNL     1       7.335  12.547  35.708  1.00  0.00    -0.346 N 
ATOM      8  H2  UNL     1       7.133  11.760  35.090  1.00  0.00     0.163 HD
HETATM    9  C9  UNL     1       7.785  12.178  36.973  1.00  0.00     0.220 C 
HETATM   10  O3  UNL     1       7.852  10.914  37.211  1.00  0.00    -0.274 OA
HETATM   11  C10 UNL     1       8.208  12.988  38.120  1.00  0.00     0.135 C 
HETATM   12  C11 UNL     1       7.671  12.573  39.451  1.00  0.00     0.154 C 
HETATM   13  N3  UNL     1       6.728  11.489  39.454  1.00  0.00    -0.348 N 
ATOM     14  H3  UNL     1       7.170  10.571  39.516  1.00  0.00     0.163 HD
HETATM   15  C13 UNL     1       5.337  11.427  39.390  1.00  0.00     0.241 C 
HETATM   16  O5  UNL     1       4.738  10.977  40.449  1.00  0.00    -0.271 OA
HETATM   17  C14 UNL     1       4.388  11.784  38.313  1.00  0.00     0.176 C 
HETATM   18  N5  UNL     1       3.730  13.071  38.543  1.00  0.00    -0.346 N 
ATOM     19  H5  UNL     1       3.594  13.340  39.518  1.00  0.00     0.163 HD
HETATM   20  C26 UNL     1       3.268  13.969  37.590  1.00  0.00     0.241 C 
HETATM   21  O7  UNL     1       2.084  14.401  37.681  1.00  0.00    -0.271 OA
ENDROOT
BRANCH  17  22
HETATM   22  C15 UNL     1       3.205  10.782  38.318  1.00  0.00     0.035 C 
BRANCH  22  23
HETATM   23  C16 UNL     1       1.873  11.467  38.428  1.00  0.00     0.002 C 
BRANCH  23  24
HETATM   24  C17 UNL     1       0.928  10.828  39.369  1.00  0.00     0.000 C 
BRANCH  24  25
HETATM   25  C18 UNL     1       0.839  11.614  40.643  1.00  0.00     0.002 C 
BRANCH  25  26
HETATM   26  C19 UNL     1       0.705  10.716  41.828  1.00  0.00     0.020 C 
BRANCH  26  27
HETATM   27  C20 UNL     1       1.874   9.757  41.957  1.00  0.00     0.122 C 
BRANCH  27  28
HETATM   28  N4  UNL     1       1.835   9.007  43.187  1.00  0.00    -0.361 N 
HETATM   29  C21 UNL     1       2.797   9.077  44.215  1.00  0.00     0.218 C 
HETATM   30  O6  UNL     1       3.809   9.812  44.166  1.00  0.00    -0.274 OA
ATOM     31  H4  UNL     1       1.047   8.375  43.325  1.00  0.00     0.162 HD
BRANCH  29  32
HETATM   32  C22 UNL     1       2.623   8.241  45.435  1.00  0.00     0.112 C 
BRANCH  32  33
HETATM   33  C23 UNL     1       1.191   8.253  45.917  1.00  0.00     0.072 C 
BRANCH  33  34
HETATM   34  S1  UNL     1       0.384   6.706  45.595  1.00  0.00    -0.228 SA
HETATM   35  C24 UNL     1      -1.035   6.974  44.565  1.00  0.00     0.078 C 
HETATM   36  C25 UNL     1      -0.129   5.902  47.070  1.00  0.00     0.078 C 
ENDBRANCH  33  34
ENDBRANCH  32  33
ENDBRANCH  29  32
ENDBRANCH  27  28
ENDBRANCH  26  27
ENDBRANCH  25  26
ENDBRANCH  24  25
ENDBRANCH  23  24
ENDBRANCH  22  23
ENDBRANCH  17  22
BRANCH  12  37
HETATM   37  C12 UNL     1       7.280  13.768  40.246  1.00  0.00     0.256 C 
HETATM   38  O4  UNL     1       6.325  14.431  39.921  1.00  0.00    -0.305 OA
ENDBRANCH  12  37
BRANCH   1  39
HETATM   39  C4  UNL     1       3.839  13.742  35.167  1.00  0.00     0.035 C 
BRANCH  39  40
HETATM   40  C3  UNL     1       2.872  14.514  34.276  1.00  0.00     0.002 C 
BRANCH  40  41
HETATM   41  C2  UNL     1       3.295  15.961  34.139  1.00  0.00    -0.004 C 
HETATM   42  C1  UNL     1       4.610  16.111  33.425  1.00  0.00     0.005 C 
ENDBRANCH  40  41
ENDBRANCH  39  40
ENDBRANCH   1  39
BRANCH   6  43
HETATM   43  C8  UNL     1       8.466  14.263  34.537  1.00  0.00     0.199 C 
BRANCH  43  44
HETATM   44  O2  UNL     1       8.353  15.258  33.601  1.00  0.00    -0.398 OA
ATOM     45  H2  UNL     1       7.845  14.993  32.843  1.00  0.00     0.209 HD
ENDBRANCH  43  44
ENDBRANCH   6  43
TORSDOF 16
ENDMDL
MODEL 3
REMARK VINA RESULT: -6.965739523      1.708      2.599
REMARK  16 active torsions:
REMARK  status: ('A' for Active; 'I' for Inactive)
REMARK    1  A    between atoms: C2_2  and  C3_3 
REMARK    2  A    between atoms: C3_3  and  C4_4 
REMARK    3  A    between atoms: C4_4  and  C5_5 
REMARK    4  A    between atoms: C7_10  and  C8_11 
REMARK    5  A    between atoms: C8_11  and  O2_12 
REMARK    6  A    between atoms: C11_19  and  C12_20 
REMARK    7  A    between atoms: C14_26  and  C15_27 
REMARK    8  A    between atoms: C15_27  and  C16_28 
REMARK    9  A    between atoms: C16_28  and  C17_29 
REMARK   10  A    between atoms: C17_29  and  C18_30 
REMARK   11  A    between atoms: C18_30  and  C19_31 
REMARK   12  A    between atoms: C19_31  and  C20_32 
REMARK   13  A    between atoms: C20_32  and  N4_33 
REMARK       I    between atoms: N4_33  and  C21_35 
REMARK   14  A    between atoms: C21_35  and  C22_37 
REMARK   15  A    between atoms: C22_37  and  C23_38 
REMARK   16  A    between atoms: C23_38  and  S1_39 
ROOT
HETATM    1  C5  UNL     1       3.973  14.453  36.458  1.00  0.00     0.176 C 
HETATM    2  N1  UNL     1       5.327  14.793  36.796  1.00  0.00    -0.346 N 
ATOM      3  H1  UNL     1       5.484  15.018  37.778  1.00  0.00     0.163 HD
HETATM    4  C6  UNL     1       6.466  14.863  35.981  1.00  0.00     0.243 C 
HETATM    5  O1  UNL     1       7.118  15.973  35.988  1.00  0.00    -0.271 OA
HETATM    6  C7  UNL     1       7.037  13.833  35.103  1.00  0.00     0.200 C 
HETATM    7  N2  UNL     1       7.301  12.549  35.686  1.00  0.00    -0.346 N 
ATOM      8  H2  UNL     1       7.103  11.760  35.071  1.00  0.00     0.163 HD
HETATM    9  C9  UNL     1       7.780  12.187  36.943  1.00  0.00     0.220 C 
HETATM   10  O3  UNL     1       7.874  10.924  37.177  1.00  0.00    -0.274 OA
HETATM   11  C10 UNL     1       8.208  13.002  38.084  1.00  0.00     0.135 C 
HETATM   12  C11 UNL     1       7.701  12.576  39.423  1.00  0.00     0.154 C 
HETATM   13  N3  UNL     1       6.778  11.474  39.440  1.00  0.00    -0.348 N 
ATOM     14  H3  UNL     1       7.237  10.564  39.492  1.00  0.00     0.163 HD
HETATM   15  C13 UNL     1       5.387  11.388  39.399  1.00  0.00     0.241 C 
HETATM   16  O5  UNL     1       4.814  10.925  40.468  1.00  0.00    -0.271 OA
HETATM   17  C14 UNL     1       4.414  11.729  38.340  1.00  0.00     0.176 C 
HETATM   18  N5  UNL     1       3.737  13.004  38.584  1.00  0.00    -0.346 N 
ATOM     19  H5  UNL     1       3.613  13.268  39.561  1.00  0.00     0.163 HD
HETATM   20  C26 UNL     1       3.243  13.895  37.640  1.00  0.00     0.241 C 
HETATM   21  O7  UNL     1       2.053  14.305  37.752  1.00  0.00    -0.271 OA
ENDROOT
BRANCH  17  22
HETATM   22  C15 UNL     1       3.249  10.707  38.363  1.00  0.00     0.035 C 
BRANCH  22  23
HETATM   23  C16 UNL     1       1.912  11.362  38.555  1.00  0.00     0.002 C 
BRANCH  23  24
HETATM   24  C17 UNL     1       1.080  10.764  39.621  1.00  0.00     0.000 C 
BRANCH  24  25
HETATM   25  C18 UNL     1       0.966  11.697  40.789  1.00  0.00     0.002 C 
BRANCH  25  26
HETATM   26  C19 UNL     1       1.879  11.294  41.898  1.00  0.00     0.020 C 
BRANCH  26  27
HETATM   27  C20 UNL     1       1.334  10.122  42.695  1.00  0.00     0.122 C 
BRANCH  27  28
HETATM   28  N4  UNL     1       0.022  10.384  43.228  1.00  0.00    -0.361 N 
HETATM   29  C21 UNL     1      -0.377  10.156  44.561  1.00  0.00     0.218 C 
HETATM   30  O6  UNL     1       0.384   9.690  45.439  1.00  0.00    -0.274 OA
ATOM     31  H4  UNL     1      -0.676  10.765  42.589  1.00  0.00     0.162 HD
BRANCH  29  32
HETATM   32  C22 UNL     1      -1.772  10.477  44.971  1.00  0.00     0.112 C 
BRANCH  32  33
HETATM   33  C23 UNL     1      -2.757  10.186  43.861  1.00  0.00     0.072 C 
BRANCH  33  34
HETATM   34  S1  UNL     1      -3.230   8.476  43.843  1.00  0.00    -0.228 SA
HETATM   35  C24 UNL     1      -2.238   7.593  42.668  1.00  0.00     0.078 C 
HETATM   36  C25 UNL     1      -4.925   8.259  43.433  1.00  0.00     0.078 C 
ENDBRANCH  33  34
ENDBRANCH  32  33
ENDBRANCH  29  32
ENDBRANCH  27  28
ENDBRANCH  26  27
ENDBRANCH  25  26
ENDBRANCH  24  25
ENDBRANCH  23  24
ENDBRANCH  22  23
ENDBRANCH  17  22
BRANCH  12  37
HETATM   37  C12 UNL     1       7.303  13.761  40.227  1.00  0.00     0.256 C 
HETATM   38  O4  UNL     1       6.295  14.370  39.958  1.00  0.00    -0.305 OA
ENDBRANCH  12  37
BRANCH   1  39
HETATM   39  C4  UNL     1       3.776  13.682  35.208  1.00  0.00     0.035 C 
BRANCH  39  40
HETATM   40  C3  UNL     1       2.833  14.471  34.305  1.00  0.00     0.002 C 
BRANCH  40  41
HETATM   41  C2  UNL     1       3.259  15.920  34.207  1.00  0.00    -0.004 C 
HETATM   42  C1  UNL     1       4.541  16.092  33.440  1.00  0.00     0.005 C 
ENDBRANCH  40  41
ENDBRANCH  39  40
ENDBRANCH   1  39
BRANCH   6  43
HETATM   43  C8  UNL     1       8.382  14.287  34.500  1.00  0.00     0.199 C 
BRANCH  43  44
HETATM   44  O2  UNL     1       8.238  15.300  33.588  1.00  0.00    -0.398 OA
ATOM     45  H2  UNL     1       9.031  15.460  33.089  1.00  0.00     0.209 HD
ENDBRANCH  43  44
ENDBRANCH   6  43
TORSDOF 16
ENDMDL
MODEL 4
REMARK VINA RESULT: -6.916552336      1.400      2.110
REMARK  16 active torsions:
REMARK  status: ('A' for Active; 'I' for Inactive)
REMARK    1  A    between atoms: C2_2  and  C3_3 
REMARK    2  A    between atoms: C3_3  and  C4_4 
REMARK    3  A    between atoms: C4_4  and  C5_5 
REMARK    4  A    between atoms: C7_10  and  C8_11 
REMARK    5  A    between atoms: C8_11  and  O2_12 
REMARK    6  A    between atoms: C11_19  and  C12_20 
REMARK    7  A    between atoms: C14_26  and  C15_27 
REMARK    8  A    between atoms: C15_27  and  C16_28 
REMARK    9  A    between atoms: C16_28  and  C17_29 
REMARK   10  A    between atoms: C17_29  and  C18_30 
REMARK   11  A    between atoms: C18_30  and  C19_31 
REMARK   12  A    between atoms: C19_31  and  C20_32 
REMARK   13  A    between atoms: C20_32  and  N4_33 
REMARK       I    between atoms: N4_33  and  C21_35 
REMARK   14  A    between atoms: C21_35  and  C22_37 
REMARK   15  A    between atoms: C22_37  and  C23_38 
REMARK   16  A    between atoms: C23_38  and  S1_39 
ROOT
HETATM    1  C5  UNL     1       3.884  14.403  36.541  1.00  0.00     0.176 C 
HETATM    2  N1  UNL     1       5.238  14.781  36.839  1.00  0.00    -0.346 N 
ATOM      3  H1  UNL     1       5.414  15.028  37.813  1.00  0.00     0.163 HD
HETATM    4  C6  UNL     1       6.355  14.861  35.994  1.00  0.00     0.243 C 
HETATM    5  O1  UNL     1       6.980  15.986  35.965  1.00  0.00    -0.271 OA
HETATM    6  C7  UNL     1       6.928  13.829  35.122  1.00  0.00     0.200 C 
HETATM    7  N2  UNL     1       7.237  12.562  35.722  1.00  0.00    -0.346 N 
ATOM      8  H2  UNL     1       7.042  11.757  35.126  1.00  0.00     0.163 HD
HETATM    9  C9  UNL     1       7.754  12.235  36.972  1.00  0.00     0.220 C 
HETATM   10  O3  UNL     1       7.884  10.979  37.227  1.00  0.00    -0.274 OA
HETATM   11  C10 UNL     1       8.191  13.080  38.087  1.00  0.00     0.135 C 
HETATM   12  C11 UNL     1       7.727  12.668  39.446  1.00  0.00     0.154 C 
HETATM   13  N3  UNL     1       6.831  11.546  39.506  1.00  0.00    -0.348 N 
ATOM     14  H3  UNL     1       7.313  10.649  39.564  1.00  0.00     0.163 HD
HETATM   15  C13 UNL     1       5.442  11.428  39.502  1.00  0.00     0.241 C 
HETATM   16  O5  UNL     1       4.907  10.972  40.593  1.00  0.00    -0.271 OA
HETATM   17  C14 UNL     1       4.435  11.726  38.462  1.00  0.00     0.176 C 
HETATM   18  N5  UNL     1       3.735  12.989  38.699  1.00  0.00    -0.346 N 
ATOM     19  H5  UNL     1       3.629  13.269  39.674  1.00  0.00     0.163 HD
HETATM   20  C26 UNL     1       3.197  13.851  37.751  1.00  0.00     0.241 C 
HETATM   21  O7  UNL     1       2.001  14.235  37.886  1.00  0.00    -0.271 OA
ENDROOT
BRANCH  17  22
HETATM   22  C15 UNL     1       3.296  10.678  38.532  1.00  0.00     0.035 C 
BRANCH  22  23
HETATM   23  C16 UNL     1       1.939  11.289  38.332  1.00  0.00     0.002 C 
BRANCH  23  24
HETATM   24  C17 UNL     1       0.902  10.810  39.272  1.00  0.00     0.000 C 
BRANCH  24  25
HETATM   25  C18 UNL     1       1.264  11.165  40.683  1.00  0.00     0.002 C 
BRANCH  25  26
HETATM   26  C19 UNL     1       0.989  10.034  41.617  1.00  0.00     0.020 C 
BRANCH  26  27
HETATM   27  C20 UNL     1       2.074   9.877  42.666  1.00  0.00     0.122 C 
BRANCH  27  28
HETATM   28  N4  UNL     1       1.732   8.898  43.667  1.00  0.00    -0.361 N 
HETATM   29  C21 UNL     1       0.942   9.142  44.809  1.00  0.00     0.218 C 
HETATM   30  O6  UNL     1       0.447  10.258  45.081  1.00  0.00    -0.274 OA
ATOM     31  H4  UNL     1       2.090   7.952  43.538  1.00  0.00     0.162 HD
BRANCH  29  32
HETATM   32  C22 UNL     1       0.670   8.028  45.759  1.00  0.00     0.112 C 
BRANCH  32  33
HETATM   33  C23 UNL     1      -0.180   6.952  45.124  1.00  0.00     0.072 C 
BRANCH  33  34
HETATM   34  S1  UNL     1      -1.803   7.552  44.731  1.00  0.00    -0.228 SA
HETATM   35  C24 UNL     1      -3.020   6.370  45.247  1.00  0.00     0.078 C 
HETATM   36  C25 UNL     1      -2.001   7.858  43.012  1.00  0.00     0.078 C 
ENDBRANCH  33  34
ENDBRANCH  32  33
ENDBRANCH  29  32
ENDBRANCH  27  28
ENDBRANCH  26  27
ENDBRANCH  25  26
ENDBRANCH  24  25
ENDBRANCH  23  24
ENDBRANCH  22  23
ENDBRANCH  17  22
BRANCH  12  37
HETATM   37  C12 UNL     1       7.321  13.860  40.238  1.00  0.00     0.256 C 
HETATM   38  O4  UNL     1       6.287  14.433  39.991  1.00  0.00    -0.305 OA
ENDBRANCH  12  37
BRANCH   1  39
HETATM   39  C4  UNL     1       3.675  13.604  35.311  1.00  0.00     0.035 C 
BRANCH  39  40
HETATM   40  C3  UNL     1       2.613  14.300  34.466  1.00  0.00     0.002 C 
BRANCH  40  41
HETATM   41  C2  UNL     1       2.977  15.749  34.220  1.00  0.00    -0.004 C 
HETATM   42  C1  UNL     1       4.285  15.898  33.494  1.00  0.00     0.005 C 
ENDBRANCH  40  41
ENDBRANCH  39  40
ENDBRANCH   1  39
BRANCH   6  43
HETATM   43  C8  UNL     1       8.246  14.302  34.477  1.00  0.00     0.199 C 
BRANCH  43  44
HETATM   44  O2  UNL     1       8.056  15.293  33.550  1.00  0.00    -0.398 OA
ATOM     45  H2  UNL     1       8.707  15.983  33.611  1.00  0.00     0.209 HD
ENDBRANCH  43  44
ENDBRANCH   6  43
TORSDOF 16
ENDMDL
MODEL 5
REMARK VINA RESULT: -6.873553615      5.407     12.341
REMARK  16 active torsions:
REMARK  status: ('A' for Active; 'I' for Inactive)
REMARK    1  A    between atoms: C2_2  and  C3_3 
REMARK    2  A    between atoms: C3_3  and  C4_4 
REMARK    3  A    between atoms: C4_4  and  C5_5 
REMARK    4  A    between atoms: C7_10  and  C8_11 
REMARK    5  A    between atoms: C8_11  and  O2_12 
REMARK    6  A    between atoms: C11_19  and  C12_20 
REMARK    7  A    between atoms: C14_26  and  C15_27 
REMARK    8  A    between atoms: C15_27  and  C16_28 
REMARK    9  A    between atoms: C16_28  and  C17_29 
REMARK   10  A    between atoms: C17_29  and  C18_30 
REMARK   11  A    between atoms: C18_30  and  C19_31 
REMARK   12  A    between atoms: C19_31  and  C20_32 
REMARK   13  A    between atoms: C20_32  and  N4_33 
REMARK       I    between atoms: N4_33  and  C21_35 
REMARK   14  A    between atoms: C21_35  and  C22_37 
REMARK   15  A    between atoms: C22_37  and  C23_38 
REMARK   16  A    between atoms: C23_38  and  S1_39 
ROOT
HETATM    1  C5  UNL     1      -1.975   4.554  45.972  1.00  0.00     0.176 C 
HETATM    2  N1  UNL     1      -3.113   4.547  45.095  1.00  0.00    -0.346 N 
ATOM      3  H1  UNL     1      -3.873   5.169  45.368  1.00  0.00     0.163 HD
HETATM    4  C6  UNL     1      -3.337   3.814  43.921  1.00  0.00     0.243 C 
HETATM    5  O1  UNL     1      -4.408   3.102  43.877  1.00  0.00    -0.271 OA
HETATM    6  C7  UNL     1      -2.513   3.740  42.708  1.00  0.00     0.200 C 
HETATM    7  N2  UNL     1      -2.147   4.982  42.088  1.00  0.00    -0.346 N 
ATOM      8  H2  UNL     1      -1.200   4.998  41.709  1.00  0.00     0.163 HD
HETATM    9  C9  UNL     1      -2.853   6.168  41.912  1.00  0.00     0.220 C 
HETATM   10  O3  UNL     1      -2.220   7.132  41.337  1.00  0.00    -0.274 OA
HETATM   11  C10 UNL     1      -4.226   6.537  42.273  1.00  0.00     0.135 C 
HETATM   12  C11 UNL     1      -4.400   7.873  42.920  1.00  0.00     0.154 C 
HETATM   13  N3  UNL     1      -3.199   8.611  43.202  1.00  0.00    -0.348 N 
ATOM     14  H3  UNL     1      -2.893   9.196  42.424  1.00  0.00     0.163 HD
HETATM   15  C13 UNL     1      -2.365   8.695  44.316  1.00  0.00     0.241 C 
HETATM   16  O5  UNL     1      -2.333   9.845  44.917  1.00  0.00    -0.271 OA
HETATM   17  C14 UNL     1      -1.482   7.698  44.957  1.00  0.00     0.176 C 
HETATM   18  N5  UNL     1      -2.064   7.128  46.174  1.00  0.00    -0.346 N 
ATOM     19  H5  UNL     1      -2.694   7.735  46.699  1.00  0.00     0.163 HD
HETATM   20  C26 UNL     1      -1.857   5.858  46.698  1.00  0.00     0.241 C 
HETATM   21  O7  UNL     1      -1.534   5.745  47.914  1.00  0.00    -0.271 OA
ENDROOT
BRANCH  17  22
HETATM   22  C15 UNL     1      -0.204   8.402  45.480  1.00  0.00     0.035 C 
BRANCH  22  23
HETATM   23  C16 UNL     1       1.051   7.666  45.110  1.00  0.00     0.002 C 
BRANCH  23  24
HETATM   24  C17 UNL     1       2.182   7.869  46.041  1.00  0.00     0.000 C 
BRANCH  24  25
HETATM   25  C18 UNL     1       3.352   8.476  45.326  1.00  0.00     0.002 C 
BRANCH  25  26
HETATM   26  C19 UNL     1       3.670   7.730  44.073  1.00  0.00     0.020 C 
BRANCH  26  27
HETATM   27  C20 UNL     1       4.045   8.658  42.932  1.00  0.00     0.122 C 
BRANCH  27  28
HETATM   28  N4  UNL     1       2.929   8.938  42.064  1.00  0.00    -0.361 N 
HETATM   29  C21 UNL     1       2.014   9.997  42.229  1.00  0.00     0.218 C 
HETATM   30  O6  UNL     1       2.074  10.821  43.169  1.00  0.00    -0.274 OA
ATOM     31  H4  UNL     1       2.791   8.320  41.265  1.00  0.00     0.162 HD
BRANCH  29  32
HETATM   32  C22 UNL     1       0.907  10.165  41.248  1.00  0.00     0.112 C 
BRANCH  32  33
HETATM   33  C23 UNL     1       0.688  11.620  40.900  1.00  0.00     0.072 C 
BRANCH  33  34
HETATM   34  S1  UNL     1       1.834  12.172  39.664  1.00  0.00    -0.228 SA
HETATM   35  C24 UNL     1       2.354  10.797  38.672  1.00  0.00     0.078 C 
HETATM   36  C25 UNL     1       3.252  12.936  40.364  1.00  0.00     0.078 C 
ENDBRANCH  33  34
ENDBRANCH  32  33
ENDBRANCH  29  32
ENDBRANCH  27  28
ENDBRANCH  26  27
ENDBRANCH  25  26
ENDBRANCH  24  25
ENDBRANCH  23  24
ENDBRANCH  22  23
ENDBRANCH  17  22
BRANCH  12  37
HETATM   37  C12 UNL     1      -5.378   7.784  44.036  1.00  0.00     0.256 C 
HETATM   38  O4  UNL     1      -5.132   7.117  45.012  1.00  0.00    -0.305 OA
ENDBRANCH  12  37
BRANCH   1  39
HETATM   39  C4  UNL     1      -0.697   4.062  45.404  1.00  0.00     0.035 C 
BRANCH  39  40
HETATM   40  C3  UNL     1      -0.436   2.665  45.957  1.00  0.00     0.002 C 
BRANCH  40  41
HETATM   41  C2  UNL     1      -0.542   1.620  44.867  1.00  0.00    -0.004 C 
HETATM   42  C1  UNL     1      -1.765   0.757  45.014  1.00  0.00     0.005 C 
ENDBRANCH  40  41
ENDBRANCH  39  40
ENDBRANCH   1  39
BRANCH   6  43
HETATM   43  C8  UNL     1      -3.210   2.925  41.599  1.00  0.00     0.199 C 
BRANCH  43  44
HETATM   44  O2  UNL     1      -3.043   1.574  41.751  1.00  0.00    -0.398 OA
ATOM     45  H2  UNL     1      -3.493   1.071  41.082  1.00  0.00     0.209 HD
ENDBRANCH  43  44
ENDBRANCH   6  43
TORSDOF 16
ENDMDL
