MODEL 1
REMARK VINA RESULT: -6.136682175      0.000      0.000
REMARK  17 active torsions:
REMARK  status: ('A' for Active; 'I' for Inactive)
REMARK    1  A    between atoms: C2_2  and  N1_3 
REMARK       I    between atoms: N1_3  and  C3_4 
REMARK    2  A    between atoms: N1_3  and  C24_41 
REMARK    3  A    between atoms: C3_4  and  C4_6 
REMARK    4  A    between atoms: C4_6  and  C5_7 
REMARK    5  A    between atoms: C4_6  and  C8_10 
REMARK    6  A    between atoms: C9_11  and  C10_12 
REMARK       I    between atoms: C10_12  and  N2_14 
REMARK    7  A    between atoms: N2_14  and  C11_16 
REMARK    8  A    between atoms: C11_16  and  C12_17 
REMARK    9  A    between atoms: C12_17  and  C13_18 
REMARK   10  A    between atoms: C13_18  and  C14_19 
REMARK   11  A    between atoms: C14_19  and  C15_20 
REMARK   12  A    between atoms: C15_20  and  C16_21 
REMARK   13  A    between atoms: C16_21  and  N3_22 
REMARK   14  A    between atoms: C18_30  and  C19_31 
REMARK   15  A    between atoms: C19_31  and  C20_32 
REMARK   16  A    between atoms: C20_32  and  C21_33 
REMARK   17  A    between atoms: C21_33  and  N5_34 
ROOT
HETATM    1  C8  UNL     1       7.633  13.816  36.859  1.00  0.00     0.148 C 
HETATM    2  C9  UNL     1       6.554  13.703  37.766  1.00  0.00     0.104 C 
HETATM    3  N4  UNL     1       5.209  13.507  37.298  1.00  0.00    -0.322 N 
ATOM      4  H4  UNL     1       4.505  12.997  37.833  1.00  0.00     0.169 HD
HETATM    5  C17 UNL     1       4.952  14.067  36.063  1.00  0.00     0.244 C 
HETATM    6  O3  UNL     1       3.856  13.925  35.445  1.00  0.00    -0.271 OA
HETATM    7  C18 UNL     1       6.000  14.909  35.357  1.00  0.00     0.172 C 
HETATM    8  N8  UNL     1       7.188  15.057  36.027  1.00  0.00    -0.394 N 
HETATM    9  C23 UNL     1       7.508  16.246  36.687  1.00  0.00     0.144 C 
ENDROOT
BRANCH   1  10
HETATM   10  C4  UNL     1       8.148  12.962  35.796  1.00  0.00     0.110 C 
BRANCH  10  11
HETATM   11  C3  UNL     1       9.609  13.379  35.577  1.00  0.00     0.227 C 
HETATM   12  N1  UNL     1      10.225  13.753  34.396  1.00  0.00    -0.346 N 
HETATM   13  O1  UNL     1      10.402  13.387  36.580  1.00  0.00    -0.273 OA
BRANCH  12  14
HETATM   14  C2  UNL     1      11.680  13.977  34.409  1.00  0.00     0.122 C 
HETATM   15  C1  UNL     1      12.456  12.700  34.130  1.00  0.00     0.026 C 
ENDBRANCH  12  14
BRANCH  12  16
HETATM   16  C24 UNL     1       9.581  14.010  33.152  1.00  0.00     0.105 C 
HETATM   17  C25 UNL     1       9.203  12.772  32.366  1.00  0.00     0.036 C 
HETATM   18  C26 UNL     1      10.037  12.426  31.201  1.00  0.00     0.105 C 
HETATM   19  C27 UNL     1      10.264  13.593  30.321  1.00  0.00     0.217 C 
HETATM   20  O4  UNL     1      10.347  13.388  29.086  1.00  0.00    -0.274 OA
HETATM   21  N9  UNL     1      10.372  14.845  30.938  1.00  0.00    -0.359 N 
HETATM   22  C28 UNL     1      10.337  15.036  32.336  1.00  0.00     0.147 C 
ATOM     23  H9  UNL     1      10.482  15.666  30.343  1.00  0.00     0.162 HD
ENDBRANCH  12  16
ENDBRANCH  10  11
BRANCH  10  24
HETATM   24  C5  UNL     1       8.230  11.480  35.927  1.00  0.00    -0.007 C 
HETATM   25  C6  UNL     1       8.584  10.951  37.293  1.00  0.00     0.010 C 
HETATM   26  C7  UNL     1       9.147  10.848  34.874  1.00  0.00     0.010 C 
ENDBRANCH  10  24
ENDBRANCH   1  10
BRANCH   2  27
HETATM   27  C10 UNL     1       6.661  13.298  39.202  1.00  0.00     0.269 C 
HETATM   28  O2  UNL     1       7.440  13.902  39.962  1.00  0.00    -0.266 OA
HETATM   29  N2  UNL     1       5.881  12.258  39.726  1.00  0.00    -0.336 N 
ATOM     30  H2  UNL     1       5.261  11.844  39.031  1.00  0.00     0.168 HD
BRANCH  29  31
HETATM   31  C11 UNL     1       5.757  11.658  40.981  1.00  0.00     0.064 C 
BRANCH  31  32
HETATM   32  C12 UNL     1       4.577  10.822  41.342  1.00  0.00     0.044 C 
BRANCH  32  33
HETATM   33  C13 UNL     1       3.698  10.763  40.079  1.00  0.00     0.005 C 
BRANCH  33  34
HETATM   34  C14 UNL     1       2.267  10.955  40.408  1.00  0.00     0.002 C 
BRANCH  34  35
HETATM   35  C15 UNL     1       1.983  12.405  40.792  1.00  0.00     0.027 C 
BRANCH  35  36
HETATM   36  C16 UNL     1       2.565  13.327  39.767  1.00  0.00     0.229 C 
BRANCH  36  37
HETATM   37  N3  UNL     1       3.335  14.354  40.488  1.00  0.00    -0.079 N 
ATOM     38  H33 UNL     1       2.774  14.868  41.169  1.00  0.00     0.274 HD
ATOM     39  H32 UNL     1       4.009  13.959  41.143  1.00  0.00     0.274 HD
ATOM     40  H31 UNL     1       3.765  14.958  39.788  1.00  0.00     0.274 HD
ENDBRANCH  36  37
ENDBRANCH  35  36
ENDBRANCH  34  35
ENDBRANCH  33  34
ENDBRANCH  32  33
ENDBRANCH  31  32
ENDBRANCH  29  31
ENDBRANCH   2  27
BRANCH   7  41
HETATM   41  C19 UNL     1       5.194  16.044  34.839  1.00  0.00     0.036 C 
BRANCH  41  42
HETATM   42  C20 UNL     1       5.066  16.191  33.361  1.00  0.00     0.022 C 
BRANCH  42  43
HETATM   43  C21 UNL     1       6.019  15.407  32.523  1.00  0.00     0.122 C 
BRANCH  43  44
HETATM   44  N5  UNL     1       6.832  16.165  31.613  1.00  0.00    -0.367 N 
HETATM   45  C22 UNL     1       7.150  15.643  30.455  1.00  0.00     0.196 C 
HETATM   46  N6  UNL     1       6.690  14.368  30.119  1.00  0.00    -0.067 NA
HETATM   47  N7  UNL     1       8.007  16.367  29.575  1.00  0.00    -0.067 NA
ATOM     48  H5  UNL     1       7.157  17.098  31.866  1.00  0.00     0.161 HD
ENDBRANCH  43  44
ENDBRANCH  42  43
ENDBRANCH  41  42
ENDBRANCH   7  41
TORSDOF 17
ENDMDL
MODEL 2
REMARK VINA RESULT: -6.072843880      1.624      2.032
REMARK  17 active torsions:
REMARK  status: ('A' for Active; 'I' for Inactive)
REMARK    1  A    between atoms: C2_2  and  N1_3 
REMARK       I    between atoms: N1_3  and  C3_4 
REMARK    2  A    between atoms: N1_3  and  C24_41 
REMARK    3  A    between atoms: C3_4  and  C4_6 
REMARK    4  A    between atoms: C4_6  and  C5_7 
REMARK    5  A    between atoms: C4_6  and  C8_10 
REMARK    6  A    between atoms: C9_11  and  C10_12 
REMARK       I    between atoms: C10_12  and  N2_14 
REMARK    7  A    between atoms: N2_14  and  C11_16 
REMARK    8  A    between atoms: C11_16  and  C12_17 
REMARK    9  A    between atoms: C12_17  and  C13_18 
REMARK   10  A    between atoms: C13_18  and  C14_19 
REMARK   11  A    between atoms: C14_19  and  C15_20 
REMARK   12  A    between atoms: C15_20  and  C16_21 
REMARK   13  A    between atoms: C16_21  and  N3_22 
REMARK   14  A    between atoms: C18_30  and  C19_31 
REMARK   15  A    between atoms: C19_31  and  C20_32 
REMARK   16  A    between atoms: C20_32  and  C21_33 
REMARK   17  A    between atoms: C21_33  and  N5_34 
ROOT
HETATM    1  C8  UNL     1       7.574  13.801  36.875  1.00  0.00     0.148 C 
HETATM    2  C9  UNL     1       6.473  13.687  37.755  1.00  0.00     0.104 C 
HETATM    3  N4  UNL     1       5.138  13.505  37.255  1.00  0.00    -0.322 N 
ATOM      4  H4  UNL     1       4.418  12.995  37.768  1.00  0.00     0.169 HD
HETATM    5  C17 UNL     1       4.914  14.081  36.021  1.00  0.00     0.244 C 
HETATM    6  O3  UNL     1       3.832  13.953  35.376  1.00  0.00    -0.271 OA
HETATM    7  C18 UNL     1       5.984  14.922  35.348  1.00  0.00     0.172 C 
HETATM    8  N8  UNL     1       7.157  15.054  36.046  1.00  0.00    -0.394 N 
HETATM    9  C23 UNL     1       7.470  16.233  36.727  1.00  0.00     0.144 C 
ENDROOT
BRANCH   1  10
HETATM   10  C4  UNL     1       8.107  12.954  35.815  1.00  0.00     0.110 C 
BRANCH  10  11
HETATM   11  C3  UNL     1       9.565  13.390  35.607  1.00  0.00     0.227 C 
HETATM   12  N1  UNL     1      10.189  13.757  34.428  1.00  0.00    -0.346 N 
HETATM   13  O1  UNL     1      10.346  13.423  36.619  1.00  0.00    -0.273 OA
BRANCH  12  14
HETATM   14  C2  UNL     1      11.640  14.002  34.455  1.00  0.00     0.122 C 
HETATM   15  C1  UNL     1      12.437  12.733  34.201  1.00  0.00     0.026 C 
ENDBRANCH  12  14
BRANCH  12  16
HETATM   16  C24 UNL     1       9.556  13.988  33.174  1.00  0.00     0.105 C 
HETATM   17  C25 UNL     1       9.217  12.734  32.394  1.00  0.00     0.036 C 
HETATM   18  C26 UNL     1      10.074  12.397  31.243  1.00  0.00     0.105 C 
HETATM   19  C27 UNL     1      10.286  13.561  30.355  1.00  0.00     0.217 C 
HETATM   20  O4  UNL     1      10.390  13.347  29.124  1.00  0.00    -0.274 OA
HETATM   21  N9  UNL     1      10.357  14.821  30.963  1.00  0.00    -0.359 N 
HETATM   22  C28 UNL     1      10.298  15.024  32.358  1.00  0.00     0.147 C 
ATOM     23  H9  UNL     1      10.456  15.639  30.361  1.00  0.00     0.162 HD
ENDBRANCH  12  16
ENDBRANCH  10  11
BRANCH  10  24
HETATM   24  C5  UNL     1       8.207  11.473  35.946  1.00  0.00    -0.007 C 
HETATM   25  C6  UNL     1       8.561  10.948  37.313  1.00  0.00     0.010 C 
HETATM   26  C7  UNL     1       9.136  10.854  34.897  1.00  0.00     0.010 C 
ENDBRANCH  10  24
ENDBRANCH   1  10
BRANCH   2  27
HETATM   27  C10 UNL     1       6.544  13.265  39.189  1.00  0.00     0.269 C 
HETATM   28  O2  UNL     1       7.378  13.790  39.951  1.00  0.00    -0.266 OA
HETATM   29  N2  UNL     1       5.671  12.301  39.710  1.00  0.00    -0.336 N 
ATOM     30  H2  UNL     1       5.013  11.951  39.014  1.00  0.00     0.168 HD
BRANCH  29  31
HETATM   31  C11 UNL     1       5.493  11.709  40.962  1.00  0.00     0.064 C 
BRANCH  31  32
HETATM   32  C12 UNL     1       4.270  10.926  41.298  1.00  0.00     0.044 C 
BRANCH  32  33
HETATM   33  C13 UNL     1       4.592  10.176  42.603  1.00  0.00     0.005 C 
BRANCH  33  34
HETATM   34  C14 UNL     1       3.757   8.962  42.748  1.00  0.00     0.002 C 
BRANCH  34  35
HETATM   35  C15 UNL     1       4.038   8.257  44.072  1.00  0.00     0.027 C 
BRANCH  35  36
HETATM   36  C16 UNL     1       3.567   9.106  45.211  1.00  0.00     0.229 C 
BRANCH  36  37
HETATM   37  N3  UNL     1       2.772   8.243  46.101  1.00  0.00    -0.079 N 
ATOM     38  H33 UNL     1       3.289   7.430  46.435  1.00  0.00     0.274 HD
ATOM     39  H32 UNL     1       2.591   8.668  47.010  1.00  0.00     0.274 HD
ATOM     40  H31 UNL     1       1.919   7.995  45.600  1.00  0.00     0.274 HD
ENDBRANCH  36  37
ENDBRANCH  35  36
ENDBRANCH  34  35
ENDBRANCH  33  34
ENDBRANCH  32  33
ENDBRANCH  31  32
ENDBRANCH  29  31
ENDBRANCH   2  27
BRANCH   7  41
HETATM   41  C19 UNL     1       5.198  16.069  34.824  1.00  0.00     0.036 C 
BRANCH  41  42
HETATM   42  C20 UNL     1       5.083  16.216  33.345  1.00  0.00     0.022 C 
BRANCH  42  43
HETATM   43  C21 UNL     1       6.030  15.418  32.514  1.00  0.00     0.122 C 
BRANCH  43  44
HETATM   44  N5  UNL     1       6.833  16.160  31.582  1.00  0.00    -0.367 N 
HETATM   45  C22 UNL     1       7.157  15.608  30.439  1.00  0.00     0.196 C 
HETATM   46  N6  UNL     1       6.713  14.319  30.141  1.00  0.00    -0.067 NA
HETATM   47  N7  UNL     1       8.005  16.317  29.538  1.00  0.00    -0.067 NA
ATOM     48  H5  UNL     1       7.146  17.104  31.807  1.00  0.00     0.161 HD
ENDBRANCH  43  44
ENDBRANCH  42  43
ENDBRANCH  41  42
ENDBRANCH   7  41
TORSDOF 17
ENDMDL
MODEL 3
REMARK VINA RESULT: -6.047777439      2.642      8.156
REMARK  17 active torsions:
REMARK  status: ('A' for Active; 'I' for Inactive)
REMARK    1  A    between atoms: C2_2  and  N1_3 
REMARK       I    between atoms: N1_3  and  C3_4 
REMARK    2  A    between atoms: N1_3  and  C24_41 
REMARK    3  A    between atoms: C3_4  and  C4_6 
REMARK    4  A    between atoms: C4_6  and  C5_7 
REMARK    5  A    between atoms: C4_6  and  C8_10 
REMARK    6  A    between atoms: C9_11  and  C10_12 
REMARK       I    between atoms: C10_12  and  N2_14 
REMARK    7  A    between atoms: N2_14  and  C11_16 
REMARK    8  A    between atoms: C11_16  and  C12_17 
REMARK    9  A    between atoms: C12_17  and  C13_18 
REMARK   10  A    between atoms: C13_18  and  C14_19 
REMARK   11  A    between atoms: C14_19  and  C15_20 
REMARK   12  A    between atoms: C15_20  and  C16_21 
REMARK   13  A    between atoms: C16_21  and  N3_22 
REMARK   14  A    between atoms: C18_30  and  C19_31 
REMARK   15  A    between atoms: C19_31  and  C20_32 
REMARK   16  A    between atoms: C20_32  and  C21_33 
REMARK   17  A    between atoms: C21_33  and  N5_34 
ROOT
HETATM    1  C8  UNL     1       4.260  12.390  37.328  1.00  0.00     0.148 C 
HETATM    2  C9  UNL     1       3.327  13.448  37.426  1.00  0.00     0.104 C 
HETATM    3  N4  UNL     1       3.131  14.153  38.664  1.00  0.00    -0.322 N 
ATOM      4  H4  UNL     1       2.853  15.133  38.705  1.00  0.00     0.169 HD
HETATM    5  C17 UNL     1       3.353  13.387  39.791  1.00  0.00     0.244 C 
HETATM    6  O3  UNL     1       3.319  13.851  40.968  1.00  0.00    -0.271 OA
HETATM    7  C18 UNL     1       3.659  11.905  39.677  1.00  0.00     0.172 C 
HETATM    8  N8  UNL     1       3.701  11.406  38.400  1.00  0.00    -0.394 N 
HETATM    9  C23 UNL     1       2.651  10.643  37.883  1.00  0.00     0.144 C 
ENDROOT
BRANCH   1  10
HETATM   10  C4  UNL     1       5.689  12.279  37.595  1.00  0.00     0.110 C 
BRANCH  10  11
HETATM   11  C3  UNL     1       6.326  13.576  37.075  1.00  0.00     0.227 C 
HETATM   12  N1  UNL     1       7.487  13.723  36.337  1.00  0.00    -0.346 N 
HETATM   13  O1  UNL     1       5.758  14.690  37.342  1.00  0.00    -0.273 OA
BRANCH  12  14
HETATM   14  C2  UNL     1       7.977  15.086  36.073  1.00  0.00     0.122 C 
HETATM   15  C1  UNL     1       8.656  15.694  37.289  1.00  0.00     0.026 C 
ENDBRANCH  12  14
BRANCH  12  16
HETATM   16  C24 UNL     1       8.248  12.677  35.740  1.00  0.00     0.105 C 
HETATM   17  C25 UNL     1       9.440  12.217  36.552  1.00  0.00     0.036 C 
HETATM   18  C26 UNL     1      10.775  12.653  36.106  1.00  0.00     0.105 C 
HETATM   19  C27 UNL     1      10.972  12.430  34.657  1.00  0.00     0.217 C 
HETATM   20  O4  UNL     1      12.122  12.124  34.262  1.00  0.00    -0.274 OA
HETATM   21  N9  UNL     1       9.851  12.580  33.832  1.00  0.00    -0.359 N 
HETATM   22  C28 UNL     1       8.582  12.986  34.297  1.00  0.00     0.147 C 
ATOM     23  H9  UNL     1       9.957  12.384  32.836  1.00  0.00     0.162 HD
ENDBRANCH  12  16
ENDBRANCH  10  11
BRANCH  10  24
HETATM   24  C5  UNL     1       6.239  12.156  38.974  1.00  0.00    -0.007 C 
HETATM   25  C6  UNL     1       6.803  13.414  39.582  1.00  0.00     0.010 C 
HETATM   26  C7  UNL     1       7.260  11.019  39.098  1.00  0.00     0.010 C 
ENDBRANCH  10  24
ENDBRANCH   1  10
BRANCH   2  27
HETATM   27  C10 UNL     1       2.818  14.269  36.284  1.00  0.00     0.269 C 
HETATM   28  O2  UNL     1       1.592  14.393  36.106  1.00  0.00    -0.266 OA
HETATM   29  N2  UNL     1       3.694  14.928  35.412  1.00  0.00    -0.336 N 
ATOM     30  H2  UNL     1       4.673  14.783  35.655  1.00  0.00     0.168 HD
BRANCH  29  31
HETATM   31  C11 UNL     1       3.536  15.740  34.286  1.00  0.00     0.064 C 
BRANCH  31  32
HETATM   32  C12 UNL     1       4.703  16.310  33.555  1.00  0.00     0.044 C 
BRANCH  32  33
HETATM   33  C13 UNL     1       5.647  15.126  33.275  1.00  0.00     0.005 C 
BRANCH  33  34
HETATM   34  C14 UNL     1       6.698  15.494  32.298  1.00  0.00     0.002 C 
BRANCH  34  35
HETATM   35  C15 UNL     1       6.672  14.562  31.089  1.00  0.00     0.027 C 
BRANCH  35  36
HETATM   36  C16 UNL     1       6.943  15.341  29.841  1.00  0.00     0.229 C 
BRANCH  36  37
HETATM   37  N3  UNL     1       5.756  15.216  28.980  1.00  0.00    -0.079 N 
ATOM     38  H33 UNL     1       5.206  14.379  29.177  1.00  0.00     0.274 HD
ATOM     39  H32 UNL     1       5.034  15.903  29.195  1.00  0.00     0.274 HD
ATOM     40  H31 UNL     1       6.076  15.264  28.012  1.00  0.00     0.274 HD
ENDBRANCH  36  37
ENDBRANCH  35  36
ENDBRANCH  34  35
ENDBRANCH  33  34
ENDBRANCH  32  33
ENDBRANCH  31  32
ENDBRANCH  29  31
ENDBRANCH   2  27
BRANCH   7  41
HETATM   41  C19 UNL     1       2.827  11.329  40.765  1.00  0.00     0.036 C 
BRANCH  41  42
HETATM   42  C20 UNL     1       3.379  10.171  41.525  1.00  0.00     0.022 C 
BRANCH  42  43
HETATM   43  C21 UNL     1       2.527   9.615  42.615  1.00  0.00     0.122 C 
BRANCH  43  44
HETATM   44  N5  UNL     1       3.204   9.280  43.838  1.00  0.00    -0.367 N 
HETATM   45  C22 UNL     1       2.549   9.351  44.970  1.00  0.00     0.196 C 
HETATM   46  N6  UNL     1       1.207   9.739  44.971  1.00  0.00    -0.067 NA
HETATM   47  N7  UNL     1       3.234   9.080  46.190  1.00  0.00    -0.067 NA
ATOM     48  H5  UNL     1       4.182   8.991  43.824  1.00  0.00     0.161 HD
ENDBRANCH  43  44
ENDBRANCH  42  43
ENDBRANCH  41  42
ENDBRANCH   7  41
TORSDOF 17
ENDMDL
MODEL 4
REMARK VINA RESULT: -5.809957846      9.094     15.858
REMARK  17 active torsions:
REMARK  status: ('A' for Active; 'I' for Inactive)
REMARK    1  A    between atoms: C2_2  and  N1_3 
REMARK       I    between atoms: N1_3  and  C3_4 
REMARK    2  A    between atoms: N1_3  and  C24_41 
REMARK    3  A    between atoms: C3_4  and  C4_6 
REMARK    4  A    between atoms: C4_6  and  C5_7 
REMARK    5  A    between atoms: C4_6  and  C8_10 
REMARK    6  A    between atoms: C9_11  and  C10_12 
REMARK       I    between atoms: C10_12  and  N2_14 
REMARK    7  A    between atoms: N2_14  and  C11_16 
REMARK    8  A    between atoms: C11_16  and  C12_17 
REMARK    9  A    between atoms: C12_17  and  C13_18 
REMARK   10  A    between atoms: C13_18  and  C14_19 
REMARK   11  A    between atoms: C14_19  and  C15_20 
REMARK   12  A    between atoms: C15_20  and  C16_21 
REMARK   13  A    between atoms: C16_21  and  N3_22 
REMARK   14  A    between atoms: C18_30  and  C19_31 
REMARK   15  A    between atoms: C19_31  and  C20_32 
REMARK   16  A    between atoms: C20_32  and  C21_33 
REMARK   17  A    between atoms: C21_33  and  N5_34 
ROOT
HETATM    1  C8  UNL     1      -0.811   7.828  43.720  1.00  0.00     0.148 C 
HETATM    2  C9  UNL     1      -0.457   9.121  43.272  1.00  0.00     0.104 C 
HETATM    3  N4  UNL     1      -1.084  10.294  43.817  1.00  0.00    -0.322 N 
ATOM      4  H4  UNL     1      -0.610  11.194  43.887  1.00  0.00     0.169 HD
HETATM    5  C17 UNL     1      -2.383  10.096  44.238  1.00  0.00     0.244 C 
HETATM    6  O3  UNL     1      -3.070  10.981  44.827  1.00  0.00    -0.271 OA
HETATM    7  C18 UNL     1      -3.081   8.766  44.012  1.00  0.00     0.172 C 
HETATM    8  N8  UNL     1      -2.333   7.806  43.378  1.00  0.00    -0.394 N 
HETATM    9  C23 UNL     1      -2.541   7.491  42.034  1.00  0.00     0.144 C 
ENDROOT
BRANCH   1  10
HETATM   10  C4  UNL     1      -0.830   7.186  45.028  1.00  0.00     0.110 C 
BRANCH  10  11
HETATM   11  C3  UNL     1      -1.422   5.785  44.813  1.00  0.00     0.227 C 
HETATM   12  N1  UNL     1      -2.520   5.216  45.431  1.00  0.00    -0.346 N 
HETATM   13  O1  UNL     1      -0.857   5.002  43.975  1.00  0.00    -0.273 OA
BRANCH  12  14
HETATM   14  C2  UNL     1      -2.815   3.799  45.162  1.00  0.00     0.122 C 
HETATM   15  C1  UNL     1      -2.096   2.873  46.129  1.00  0.00     0.026 C 
ENDBRANCH  12  14
BRANCH  12  16
HETATM   16  C24 UNL     1      -3.455   5.882  46.274  1.00  0.00     0.105 C 
HETATM   17  C25 UNL     1      -3.114   5.849  47.749  1.00  0.00     0.036 C 
HETATM   18  C26 UNL     1      -3.882   4.927  48.604  1.00  0.00     0.105 C 
HETATM   19  C27 UNL     1      -5.339   5.047  48.374  1.00  0.00     0.217 C 
HETATM   20  O4  UNL     1      -6.102   4.881  49.356  1.00  0.00    -0.274 OA
HETATM   21  N9  UNL     1      -5.756   5.338  47.070  1.00  0.00    -0.359 N 
HETATM   22  C28 UNL     1      -4.876   5.458  45.973  1.00  0.00     0.147 C 
ATOM     23  H9  UNL     1      -6.754   5.472  46.903  1.00  0.00     0.162 HD
ENDBRANCH  12  16
ENDBRANCH  10  11
BRANCH  10  24
HETATM   24  C5  UNL     1       0.412   6.917  45.808  1.00  0.00    -0.007 C 
HETATM   25  C6  UNL     1       0.261   6.028  47.015  1.00  0.00     0.010 C 
HETATM   26  C7  UNL     1       1.146   8.203  46.201  1.00  0.00     0.010 C 
ENDBRANCH  10  24
ENDBRANCH   1  10
BRANCH   2  27
HETATM   27  C10 UNL     1       0.835   9.491  42.612  1.00  0.00     0.269 C 
HETATM   28  O2  UNL     1       0.849  10.352  41.714  1.00  0.00    -0.266 OA
HETATM   29  N2  UNL     1       2.046   8.904  43.001  1.00  0.00    -0.336 N 
ATOM     30  H2  UNL     1       1.931   8.230  43.758  1.00  0.00     0.168 HD
BRANCH  29  31
HETATM   31  C11 UNL     1       3.376   9.028  42.591  1.00  0.00     0.064 C 
BRANCH  31  32
HETATM   32  C12 UNL     1       4.335   9.929  43.291  1.00  0.00     0.044 C 
BRANCH  32  33
HETATM   33  C13 UNL     1       4.356  11.237  42.480  1.00  0.00     0.005 C 
BRANCH  33  34
HETATM   34  C14 UNL     1       4.504  10.971  41.030  1.00  0.00     0.002 C 
BRANCH  34  35
HETATM   35  C15 UNL     1       4.541  12.273  40.235  1.00  0.00     0.027 C 
BRANCH  35  36
HETATM   36  C16 UNL     1       3.270  13.034  40.444  1.00  0.00     0.229 C 
BRANCH  36  37
HETATM   37  N3  UNL     1       3.603  14.467  40.392  1.00  0.00    -0.079 N 
ATOM     38  H33 UNL     1       3.535  14.926  41.301  1.00  0.00     0.274 HD
ATOM     39  H32 UNL     1       4.595  14.639  40.232  1.00  0.00     0.274 HD
ATOM     40  H31 UNL     1       3.005  14.892  39.684  1.00  0.00     0.274 HD
ENDBRANCH  36  37
ENDBRANCH  35  36
ENDBRANCH  34  35
ENDBRANCH  33  34
ENDBRANCH  32  33
ENDBRANCH  31  32
ENDBRANCH  29  31
ENDBRANCH   2  27
BRANCH   7  41
HETATM   41  C19 UNL     1      -4.432   9.193  43.564  1.00  0.00     0.036 C 
BRANCH  41  42
HETATM   42  C20 UNL     1      -5.533   8.190  43.622  1.00  0.00     0.022 C 
BRANCH  42  43
HETATM   43  C21 UNL     1      -6.422   8.098  42.428  1.00  0.00     0.122 C 
BRANCH  43  44
HETATM   44  N5  UNL     1      -6.099   7.073  41.476  1.00  0.00    -0.367 N 
HETATM   45  C22 UNL     1      -6.867   6.015  41.392  1.00  0.00     0.196 C 
HETATM   46  N6  UNL     1      -7.988   5.905  42.217  1.00  0.00    -0.067 NA
HETATM   47  N7  UNL     1      -6.515   4.967  40.492  1.00  0.00    -0.067 NA
ATOM     48  H5  UNL     1      -5.282   7.166  40.873  1.00  0.00     0.161 HD
ENDBRANCH  43  44
ENDBRANCH  42  43
ENDBRANCH  41  42
ENDBRANCH   7  41
TORSDOF 17
ENDMDL
MODEL 5
REMARK VINA RESULT: -5.767742544      9.898     16.551
REMARK  17 active torsions:
REMARK  status: ('A' for Active; 'I' for Inactive)
REMARK    1  A    between atoms: C2_2  and  N1_3 
REMARK       I    between atoms: N1_3  and  C3_4 
REMARK    2  A    between atoms: N1_3  and  C24_41 
REMARK    3  A    between atoms: C3_4  and  C4_6 
REMARK    4  A    between atoms: C4_6  and  C5_7 
REMARK    5  A    between atoms: C4_6  and  C8_10 
REMARK    6  A    between atoms: C9_11  and  C10_12 
REMARK       I    between atoms: C10_12  and  N2_14 
REMARK    7  A    between atoms: N2_14  and  C11_16 
REMARK    8  A    between atoms: C11_16  and  C12_17 
REMARK    9  A    between atoms: C12_17  and  C13_18 
REMARK   10  A    between atoms: C13_18  and  C14_19 
REMARK   11  A    between atoms: C14_19  and  C15_20 
REMARK   12  A    between atoms: C15_20  and  C16_21 
REMARK   13  A    between atoms: C16_21  and  N3_22 
REMARK   14  A    between atoms: C18_30  and  C19_31 
REMARK   15  A    between atoms: C19_31  and  C20_32 
REMARK   16  A    between atoms: C20_32  and  C21_33 
REMARK   17  A    between atoms: C21_33  and  N5_34 
ROOT
HETATM    1  C8  UNL     1      -1.799   7.019  43.832  1.00  0.00     0.148 C 
HETATM    2  C9  UNL     1      -1.654   8.409  43.615  1.00  0.00     0.104 C 
HETATM    3  N4  UNL     1      -2.761   9.308  43.793  1.00  0.00    -0.322 N 
ATOM      4  H4  UNL     1      -2.647  10.278  44.087  1.00  0.00     0.169 HD
HETATM    5  C17 UNL     1      -3.994   8.744  43.532  1.00  0.00     0.244 C 
HETATM    6  O3  UNL     1      -5.092   9.347  43.719  1.00  0.00    -0.271 OA
HETATM    7  C18 UNL     1      -4.105   7.329  42.994  1.00  0.00     0.172 C 
HETATM    8  N8  UNL     1      -2.914   6.676  42.798  1.00  0.00    -0.394 N 
HETATM    9  C23 UNL     1      -2.378   6.508  41.519  1.00  0.00     0.144 C 
ENDROOT
BRANCH   1  10
HETATM   10  C4  UNL     1      -2.242   6.218  44.966  1.00  0.00     0.110 C 
BRANCH  10  11
HETATM   11  C3  UNL     1      -1.813   4.774  44.668  1.00  0.00     0.227 C 
HETATM   12  N1  UNL     1      -2.616   3.665  44.474  1.00  0.00    -0.346 N 
HETATM   13  O1  UNL     1      -0.564   4.509  44.592  1.00  0.00    -0.273 OA
BRANCH  12  14
HETATM   14  C2  UNL     1      -1.967   2.350  44.341  1.00  0.00     0.122 C 
HETATM   15  C1  UNL     1      -1.742   1.686  45.690  1.00  0.00     0.026 C 
ENDBRANCH  12  14
BRANCH  12  16
HETATM   16  C24 UNL     1      -4.032   3.663  44.326  1.00  0.00     0.105 C 
HETATM   17  C25 UNL     1      -4.805   3.551  45.624  1.00  0.00     0.036 C 
HETATM   18  C26 UNL     1      -5.419   2.249  45.940  1.00  0.00     0.105 C 
HETATM   19  C27 UNL     1      -6.179   1.705  44.793  1.00  0.00     0.217 C 
HETATM   20  O4  UNL     1      -7.213   1.040  45.038  1.00  0.00    -0.274 OA
HETATM   21  N9  UNL     1      -5.681   1.977  43.513  1.00  0.00    -0.359 N 
HETATM   22  C28 UNL     1      -4.479   2.676  43.270  1.00  0.00     0.147 C 
ATOM     23  H9  UNL     1      -6.218   1.650  42.709  1.00  0.00     0.162 HD
ENDBRANCH  12  16
ENDBRANCH  10  11
BRANCH  10  24
HETATM   24  C5  UNL     1      -1.744   6.446  46.352  1.00  0.00    -0.007 C 
HETATM   25  C6  UNL     1      -0.248   6.507  46.520  1.00  0.00     0.010 C 
HETATM   26  C7  UNL     1      -2.337   5.454  47.358  1.00  0.00     0.010 C 
ENDBRANCH  10  24
ENDBRANCH   1  10
BRANCH   2  27
HETATM   27  C10 UNL     1      -0.366   9.168  43.664  1.00  0.00     0.269 C 
HETATM   28  O2  UNL     1       0.045   9.629  44.745  1.00  0.00    -0.266 OA
HETATM   29  N2  UNL     1       0.413   9.356  42.514  1.00  0.00    -0.336 N 
ATOM     30  H2  UNL     1       0.004   8.922  41.687  1.00  0.00     0.168 HD
BRANCH  29  31
HETATM   31  C11 UNL     1       1.622  10.000  42.239  1.00  0.00     0.064 C 
BRANCH  31  32
HETATM   32  C12 UNL     1       2.910   9.255  42.152  1.00  0.00     0.044 C 
BRANCH  32  33
HETATM   33  C13 UNL     1       3.994  10.315  41.880  1.00  0.00     0.005 C 
BRANCH  33  34
HETATM   34  C14 UNL     1       3.938  10.795  40.480  1.00  0.00     0.002 C 
BRANCH  34  35
HETATM   35  C15 UNL     1       4.350  12.262  40.386  1.00  0.00     0.027 C 
BRANCH  35  36
HETATM   36  C16 UNL     1       3.137  13.136  40.436  1.00  0.00     0.229 C 
BRANCH  36  37
HETATM   37  N3  UNL     1       3.599  14.531  40.347  1.00  0.00    -0.079 N 
ATOM     38  H33 UNL     1       3.808  14.941  41.258  1.00  0.00     0.274 HD
ATOM     39  H32 UNL     1       4.532  14.617  39.945  1.00  0.00     0.274 HD
ATOM     40  H31 UNL     1       2.892  15.052  39.828  1.00  0.00     0.274 HD
ENDBRANCH  36  37
ENDBRANCH  35  36
ENDBRANCH  34  35
ENDBRANCH  33  34
ENDBRANCH  32  33
ENDBRANCH  31  32
ENDBRANCH  29  31
ENDBRANCH   2  27
BRANCH   7  41
HETATM   41  C19 UNL     1      -5.153   7.472  41.950  1.00  0.00     0.036 C 
BRANCH  41  42
HETATM   42  C20 UNL     1      -6.270   6.486  41.945  1.00  0.00     0.022 C 
BRANCH  42  43
HETATM   43  C21 UNL     1      -6.700   5.950  43.268  1.00  0.00     0.122 C 
BRANCH  43  44
HETATM   44  N5  UNL     1      -7.725   6.693  43.948  1.00  0.00    -0.367 N 
HETATM   45  C22 UNL     1      -7.494   7.138  45.158  1.00  0.00     0.196 C 
HETATM   46  N6  UNL     1      -6.259   6.894  45.763  1.00  0.00    -0.067 NA
HETATM   47  N7  UNL     1      -8.530   7.822  45.859  1.00  0.00    -0.067 NA
ATOM     48  H5  UNL     1      -8.620   6.872  43.495  1.00  0.00     0.161 HD
ENDBRANCH  43  44
ENDBRANCH  42  43
ENDBRANCH  41  42
ENDBRANCH   7  41
TORSDOF 17
ENDMDL
