MODEL 1
REMARK VINA RESULT: -7.392579398      0.000      0.000
REMARK  7 active torsions:
REMARK  status: ('A' for Active; 'I' for Inactive)
REMARK    1  A    between atoms: C2_2  and  N1_4 
REMARK       I    between atoms: N1_4  and  C4_6 
REMARK       I    between atoms: C4_6  and  N2_8 
REMARK    2  A    between atoms: N2_8  and  C5_10 
REMARK    3  A    between atoms: C5_10  and  C8_13 
REMARK       I    between atoms: C8_13  and  N3_15 
REMARK    4  A    between atoms: N3_15  and  C9_17 
REMARK    5  A    between atoms: C9_17  and  C11_19 
REMARK       I    between atoms: C11_19  and  N4_21 
REMARK    6  A    between atoms: N4_21  and  C12_23 
REMARK    7  A    between atoms: C19_30  and  O4_31 
ROOT
HETATM    1  C9  UNL     1      25.472  14.176  30.541  1.00  0.00     0.172 C 
HETATM    2  C10 UNL     1      26.920  13.789  30.207  1.00  0.00     0.042 C 
ENDROOT
BRANCH   1   3
HETATM    3  N3  UNL     1      25.529  15.516  31.077  1.00  0.00    -0.346 N 
HETATM    4  C8  UNL     1      24.859  16.556  30.368  1.00  0.00     0.246 C 
HETATM    5  O2  UNL     1      24.229  16.333  29.302  1.00  0.00    -0.271 OA
ATOM      6  H3  UNL     1      26.035  15.714  31.940  1.00  0.00     0.163 HD
BRANCH   4   7
HETATM    7  C5  UNL     1      24.947  17.922  30.963  1.00  0.00     0.108 C 
HETATM    8  C6  UNL     1      25.858  17.782  32.183  1.00  0.00     0.049 C 
HETATM    9  C7  UNL     1      25.598  18.809  29.916  1.00  0.00     0.049 C 
BRANCH   7  10
HETATM   10  N2  UNL     1      23.675  18.415  31.385  1.00  0.00    -0.326 N 
HETATM   11  C4  UNL     1      22.897  17.675  32.303  1.00  0.00     0.317 C 
HETATM   12  N1  UNL     1      21.637  18.130  32.743  1.00  0.00    -0.339 N 
HETATM   13  O1  UNL     1      23.343  16.587  32.734  1.00  0.00    -0.247 OA
ATOM     14  H1  UNL     1      21.300  19.020  32.374  1.00  0.00     0.164 HD
ATOM     15  H2  UNL     1      23.328  19.303  31.023  1.00  0.00     0.165 HD
BRANCH  12  16
HETATM   16  C2  UNL     1      20.795  17.434  33.669  1.00  0.00     0.078 C 
HETATM   17  C1  UNL     1      19.925  16.396  33.021  1.00  0.00     0.032 C 
HETATM   18  C3  UNL     1      19.929  18.443  34.433  1.00  0.00     0.032 C 
ENDBRANCH  12  16
ENDBRANCH   7  10
ENDBRANCH   4   7
ENDBRANCH   1   3
BRANCH   1  19
HETATM   19  C11 UNL     1      24.895  13.258  31.532  1.00  0.00     0.240 C 
HETATM   20  O3  UNL     1      23.691  13.352  31.912  1.00  0.00    -0.271 OA
HETATM   21  N4  UNL     1      25.662  12.212  32.118  1.00  0.00    -0.354 N 
ATOM     22  H4  UNL     1      26.636  12.112  31.832  1.00  0.00     0.162 HD
BRANCH  21  23
HETATM   23  C12 UNL     1      25.148  11.295  33.085  1.00  0.00     0.092 C 
HETATM   24  C13 UNL     1      26.207  10.370  33.639  1.00  0.00     0.012 C 
HETATM   25  C14 UNL     1      26.620   9.312  32.651  1.00  0.00     0.011 C 
HETATM   26  C21 UNL     1      25.629   9.702  34.869  1.00  0.00     0.044 C 
HETATM   27  C15 UNL     1      25.397   8.490  32.262  1.00  0.00    -0.011 C 
HETATM   28  C16 UNL     1      24.431   9.427  31.592  1.00  0.00     0.011 C 
HETATM   29  C20 UNL     1      24.813   7.855  33.499  1.00  0.00     0.042 C 
HETATM   30  C17 UNL     1      24.005  10.466  32.596  1.00  0.00     0.012 C 
HETATM   31  C18 UNL     1      23.366   9.795  33.812  1.00  0.00     0.044 C 
HETATM   32  C19 UNL     1      24.387   8.918  34.480  1.00  0.00     0.059 C 
BRANCH  32  33
HETATM   33  O4  UNL     1      23.882   8.350  35.627  1.00  0.00    -0.390 OA
ATOM     34  H4  UNL     1      24.091   7.425  35.674  1.00  0.00     0.210 HD
ENDBRANCH  32  33
ENDBRANCH  21  23
ENDBRANCH   1  19
TORSDOF 7
ENDMDL
MODEL 2
REMARK VINA RESULT: -7.360260836      2.935      8.031
REMARK  7 active torsions:
REMARK  status: ('A' for Active; 'I' for Inactive)
REMARK    1  A    between atoms: C2_2  and  N1_4 
REMARK       I    between atoms: N1_4  and  C4_6 
REMARK       I    between atoms: C4_6  and  N2_8 
REMARK    2  A    between atoms: N2_8  and  C5_10 
REMARK    3  A    between atoms: C5_10  and  C8_13 
REMARK       I    between atoms: C8_13  and  N3_15 
REMARK    4  A    between atoms: N3_15  and  C9_17 
REMARK    5  A    between atoms: C9_17  and  C11_19 
REMARK       I    between atoms: C11_19  and  N4_21 
REMARK    6  A    between atoms: N4_21  and  C12_23 
REMARK    7  A    between atoms: C19_30  and  O4_31 
ROOT
HETATM    1  C9  UNL     1      23.964  10.718  33.141  1.00  0.00     0.172 C 
HETATM    2  C10 UNL     1      24.340  10.199  34.536  1.00  0.00     0.042 C 
ENDROOT
BRANCH   1   3
HETATM    3  N3  UNL     1      25.206  10.856  32.416  1.00  0.00    -0.346 N 
HETATM    4  C8  UNL     1      25.518   9.884  31.421  1.00  0.00     0.246 C 
HETATM    5  O2  UNL     1      24.746   8.924  31.164  1.00  0.00    -0.271 OA
ATOM      6  H3  UNL     1      25.843  11.629  32.611  1.00  0.00     0.163 HD
BRANCH   4   7
HETATM    7  C5  UNL     1      26.812  10.072  30.700  1.00  0.00     0.108 C 
HETATM    8  C6  UNL     1      27.683  10.916  31.630  1.00  0.00     0.049 C 
HETATM    9  C7  UNL     1      27.413   8.688  30.523  1.00  0.00     0.049 C 
BRANCH   7  10
HETATM   10  N2  UNL     1      26.649  10.761  29.459  1.00  0.00    -0.326 N 
HETATM   11  C4  UNL     1      27.782  11.176  28.726  1.00  0.00     0.317 C 
HETATM   12  N1  UNL     1      27.662  11.857  27.497  1.00  0.00    -0.339 N 
HETATM   13  O1  UNL     1      28.923  10.928  29.183  1.00  0.00    -0.247 OA
ATOM     14  H1  UNL     1      26.721  12.044  27.150  1.00  0.00     0.164 HD
ATOM     15  H2  UNL     1      25.713  10.953  29.102  1.00  0.00     0.165 HD
BRANCH  12  16
HETATM   16  C2  UNL     1      28.765  12.306  26.701  1.00  0.00     0.078 C 
HETATM   17  C1  UNL     1      28.899  13.802  26.658  1.00  0.00     0.032 C 
HETATM   18  C3  UNL     1      28.630  11.750  25.279  1.00  0.00     0.032 C 
ENDBRANCH  12  16
ENDBRANCH   7  10
ENDBRANCH   4   7
ENDBRANCH   1   3
BRANCH   1  19
HETATM   19  C11 UNL     1      23.281  12.015  33.228  1.00  0.00     0.240 C 
HETATM   20  O3  UNL     1      22.150  12.142  33.783  1.00  0.00    -0.271 OA
HETATM   21  N4  UNL     1      23.856  13.201  32.689  1.00  0.00    -0.354 N 
ATOM     22  H4  UNL     1      24.766  13.130  32.235  1.00  0.00     0.162 HD
BRANCH  21  23
HETATM   23  C12 UNL     1      23.231  14.484  32.747  1.00  0.00     0.092 C 
HETATM   24  C13 UNL     1      23.077  15.125  31.387  1.00  0.00     0.012 C 
HETATM   25  C14 UNL     1      24.384  15.632  30.838  1.00  0.00     0.011 C 
HETATM   26  C21 UNL     1      22.118  16.287  31.538  1.00  0.00     0.044 C 
HETATM   27  C15 UNL     1      24.967  16.656  31.806  1.00  0.00    -0.011 C 
HETATM   28  C16 UNL     1      25.230  15.938  33.100  1.00  0.00     0.011 C 
HETATM   29  C20 UNL     1      23.989  17.792  31.971  1.00  0.00     0.042 C 
HETATM   30  C17 UNL     1      23.914  15.457  33.653  1.00  0.00     0.012 C 
HETATM   31  C18 UNL     1      22.965  16.639  33.862  1.00  0.00     0.044 C 
HETATM   32  C19 UNL     1      22.686  17.283  32.534  1.00  0.00     0.059 C 
BRANCH  32  33
HETATM   33  O4  UNL     1      21.774  18.306  32.659  1.00  0.00    -0.390 OA
ATOM     34  H4  UNL     1      21.318  18.461  31.840  1.00  0.00     0.210 HD
ENDBRANCH  32  33
ENDBRANCH  21  23
ENDBRANCH   1  19
TORSDOF 7
ENDMDL
MODEL 3
REMARK VINA RESULT: -7.337993136      1.832      2.472
REMARK  7 active torsions:
REMARK  status: ('A' for Active; 'I' for Inactive)
REMARK    1  A    between atoms: C2_2  and  N1_4 
REMARK       I    between atoms: N1_4  and  C4_6 
REMARK       I    between atoms: C4_6  and  N2_8 
REMARK    2  A    between atoms: N2_8  and  C5_10 
REMARK    3  A    between atoms: C5_10  and  C8_13 
REMARK       I    between atoms: C8_13  and  N3_15 
REMARK    4  A    between atoms: N3_15  and  C9_17 
REMARK    5  A    between atoms: C9_17  and  C11_19 
REMARK       I    between atoms: C11_19  and  N4_21 
REMARK    6  A    between atoms: N4_21  and  C12_23 
REMARK    7  A    between atoms: C19_30  and  O4_31 
ROOT
HETATM    1  C9  UNL     1      24.567  15.440  31.996  1.00  0.00     0.172 C 
HETATM    2  C10 UNL     1      26.080  15.541  31.757  1.00  0.00     0.042 C 
ENDROOT
BRANCH   1   3
HETATM    3  N3  UNL     1      24.292  16.232  33.172  1.00  0.00    -0.346 N 
HETATM    4  C8  UNL     1      24.049  17.627  33.005  1.00  0.00     0.246 C 
HETATM    5  O2  UNL     1      24.067  18.173  31.871  1.00  0.00    -0.271 OA
ATOM      6  H3  UNL     1      24.273  15.805  34.099  1.00  0.00     0.163 HD
BRANCH   4   7
HETATM    7  C5  UNL     1      23.770  18.401  34.250  1.00  0.00     0.108 C 
HETATM    8  C6  UNL     1      23.647  17.361  35.363  1.00  0.00     0.049 C 
HETATM    9  C7  UNL     1      24.979  19.290  34.487  1.00  0.00     0.049 C 
BRANCH   7  10
HETATM   10  N2  UNL     1      22.552  19.143  34.169  1.00  0.00    -0.326 N 
HETATM   11  C4  UNL     1      21.318  18.468  34.047  1.00  0.00     0.317 C 
HETATM   12  N1  UNL     1      20.096  19.166  33.965  1.00  0.00    -0.339 N 
HETATM   13  O1  UNL     1      21.315  17.215  34.013  1.00  0.00    -0.247 OA
ATOM     14  H1  UNL     1      20.130  20.185  33.995  1.00  0.00     0.164 HD
ATOM     15  H2  UNL     1      22.574  20.162  34.198  1.00  0.00     0.165 HD
BRANCH  12  16
HETATM   16  C2  UNL     1      18.809  18.548  33.840  1.00  0.00     0.078 C 
HETATM   17  C1  UNL     1      18.697  17.637  32.651  1.00  0.00     0.032 C 
HETATM   18  C3  UNL     1      17.725  19.630  33.776  1.00  0.00     0.032 C 
ENDBRANCH  12  16
ENDBRANCH   7  10
ENDBRANCH   4   7
ENDBRANCH   1   3
BRANCH   1  19
HETATM   19  C11 UNL     1      24.160  14.046  32.217  1.00  0.00     0.240 C 
HETATM   20  O3  UNL     1      22.942  13.711  32.320  1.00  0.00    -0.271 OA
HETATM   21  N4  UNL     1      25.115  12.997  32.329  1.00  0.00    -0.354 N 
ATOM     22  H4  UNL     1      26.103  13.236  32.251  1.00  0.00     0.162 HD
BRANCH  21  23
HETATM   23  C12 UNL     1      24.769  11.627  32.546  1.00  0.00     0.092 C 
HETATM   24  C13 UNL     1      24.875  11.217  33.996  1.00  0.00     0.012 C 
HETATM   25  C14 UNL     1      26.303  11.073  34.451  1.00  0.00     0.011 C 
HETATM   26  C21 UNL     1      24.171   9.885  34.144  1.00  0.00     0.044 C 
HETATM   27  C15 UNL     1      26.997  10.026  33.587  1.00  0.00    -0.011 C 
HETATM   28  C16 UNL     1      26.988  10.543  32.176  1.00  0.00     0.011 C 
HETATM   29  C20 UNL     1      26.267   8.713  33.720  1.00  0.00     0.042 C 
HETATM   30  C17 UNL     1      25.556  10.660  31.722  1.00  0.00     0.012 C 
HETATM   31  C18 UNL     1      24.861   9.301  31.815  1.00  0.00     0.044 C 
HETATM   32  C19 UNL     1      24.842   8.857  33.250  1.00  0.00     0.059 C 
BRANCH  32  33
HETATM   33  O4  UNL     1      24.157   7.673  33.397  1.00  0.00    -0.390 OA
ATOM     34  H4  UNL     1      24.574   7.111  34.040  1.00  0.00     0.210 HD
ENDBRANCH  32  33
ENDBRANCH  21  23
ENDBRANCH   1  19
TORSDOF 7
ENDMDL
MODEL 4
REMARK VINA RESULT: -7.230917390      0.845      1.056
REMARK  7 active torsions:
REMARK  status: ('A' for Active; 'I' for Inactive)
REMARK    1  A    between atoms: C2_2  and  N1_4 
REMARK       I    between atoms: N1_4  and  C4_6 
REMARK       I    between atoms: C4_6  and  N2_8 
REMARK    2  A    between atoms: N2_8  and  C5_10 
REMARK    3  A    between atoms: C5_10  and  C8_13 
REMARK       I    between atoms: C8_13  and  N3_15 
REMARK    4  A    between atoms: N3_15  and  C9_17 
REMARK    5  A    between atoms: C9_17  and  C11_19 
REMARK       I    between atoms: C11_19  and  N4_21 
REMARK    6  A    between atoms: N4_21  and  C12_23 
REMARK    7  A    between atoms: C19_30  and  O4_31 
ROOT
HETATM    1  C9  UNL     1      25.519  14.710  30.768  1.00  0.00     0.172 C 
HETATM    2  C10 UNL     1      26.980  14.283  30.564  1.00  0.00     0.042 C 
ENDROOT
BRANCH   1   3
HETATM    3  N3  UNL     1      25.565  16.011  31.394  1.00  0.00    -0.346 N 
HETATM    4  C8  UNL     1      25.419  17.163  30.568  1.00  0.00     0.246 C 
HETATM    5  O2  UNL     1      25.252  17.072  29.324  1.00  0.00    -0.271 OA
ATOM      6  H3  UNL     1      25.699  16.103  32.401  1.00  0.00     0.163 HD
BRANCH   4   7
HETATM    7  C5  UNL     1      25.474  18.483  31.263  1.00  0.00     0.108 C 
HETATM    8  C6  UNL     1      26.912  18.628  31.760  1.00  0.00     0.049 C 
HETATM    9  C7  UNL     1      25.167  19.538  30.214  1.00  0.00     0.049 C 
BRANCH   7  10
HETATM   10  N2  UNL     1      24.585  18.548  32.380  1.00  0.00    -0.326 N 
HETATM   11  C4  UNL     1      23.240  18.142  32.239  1.00  0.00     0.317 C 
HETATM   12  N1  UNL     1      22.333  18.191  33.318  1.00  0.00    -0.339 N 
HETATM   13  O1  UNL     1      22.846  17.728  31.123  1.00  0.00    -0.247 OA
ATOM     14  H1  UNL     1      22.682  18.532  34.214  1.00  0.00     0.164 HD
ATOM     15  H2  UNL     1      24.923  18.887  33.280  1.00  0.00     0.165 HD
BRANCH  12  16
HETATM   16  C2  UNL     1      20.958  17.797  33.248  1.00  0.00     0.078 C 
HETATM   17  C1  UNL     1      20.085  18.500  34.247  1.00  0.00     0.032 C 
HETATM   18  C3  UNL     1      20.850  16.278  33.433  1.00  0.00     0.032 C 
ENDBRANCH  12  16
ENDBRANCH   7  10
ENDBRANCH   4   7
ENDBRANCH   1   3
BRANCH   1  19
HETATM   19  C11 UNL     1      24.806  13.758  31.630  1.00  0.00     0.240 C 
HETATM   20  O3  UNL     1      23.552  13.813  31.796  1.00  0.00    -0.271 OA
HETATM   21  N4  UNL     1      25.490  12.722  32.326  1.00  0.00    -0.354 N 
ATOM     22  H4  UNL     1      26.501  12.653  32.212  1.00  0.00     0.162 HD
BRANCH  21  23
HETATM   23  C12 UNL     1      24.843  11.773  33.176  1.00  0.00     0.092 C 
HETATM   24  C13 UNL     1      25.815  10.982  34.020  1.00  0.00     0.012 C 
HETATM   25  C14 UNL     1      26.572   9.956  33.219  1.00  0.00     0.011 C 
HETATM   26  C21 UNL     1      25.014  10.279  35.096  1.00  0.00     0.044 C 
HETATM   27  C15 UNL     1      25.578   8.996  32.575  1.00  0.00    -0.011 C 
HETATM   28  C16 UNL     1      24.725   9.807  31.641  1.00  0.00     0.011 C 
HETATM   29  C20 UNL     1      24.766   8.326  33.655  1.00  0.00     0.042 C 
HETATM   30  C17 UNL     1      23.953  10.813  32.455  1.00  0.00     0.012 C 
HETATM   31  C18 UNL     1      23.097  10.100  33.502  1.00  0.00     0.044 C 
HETATM   32  C19 UNL     1      23.998   9.355  34.445  1.00  0.00     0.059 C 
BRANCH  32  33
HETATM   33  O4  UNL     1      23.279   8.757  35.455  1.00  0.00    -0.390 OA
ATOM     34  H4  UNL     1      23.628   8.986  36.309  1.00  0.00     0.210 HD
ENDBRANCH  32  33
ENDBRANCH  21  23
ENDBRANCH   1  19
TORSDOF 7
ENDMDL
MODEL 5
REMARK VINA RESULT: -7.223071586      2.549      3.905
REMARK  7 active torsions:
REMARK  status: ('A' for Active; 'I' for Inactive)
REMARK    1  A    between atoms: C2_2  and  N1_4 
REMARK       I    between atoms: N1_4  and  C4_6 
REMARK       I    between atoms: C4_6  and  N2_8 
REMARK    2  A    between atoms: N2_8  and  C5_10 
REMARK    3  A    between atoms: C5_10  and  C8_13 
REMARK       I    between atoms: C8_13  and  N3_15 
REMARK    4  A    between atoms: N3_15  and  C9_17 
REMARK    5  A    between atoms: C9_17  and  C11_19 
REMARK       I    between atoms: C11_19  and  N4_21 
REMARK    6  A    between atoms: N4_21  and  C12_23 
REMARK    7  A    between atoms: C19_30  and  O4_31 
ROOT
HETATM    1  C9  UNL     1      23.854  11.761  33.449  1.00  0.00     0.172 C 
HETATM    2  C10 UNL     1      22.694  10.796  33.734  1.00  0.00     0.042 C 
ENDROOT
BRANCH   1   3
HETATM    3  N3  UNL     1      23.265  12.925  32.829  1.00  0.00    -0.346 N 
HETATM    4  C8  UNL     1      23.873  14.193  33.060  1.00  0.00     0.246 C 
HETATM    5  O2  UNL     1      24.896  14.318  33.782  1.00  0.00    -0.271 OA
ATOM      6  H3  UNL     1      22.436  12.841  32.240  1.00  0.00     0.163 HD
BRANCH   4   7
HETATM    7  C5  UNL     1      23.226  15.364  32.397  1.00  0.00     0.108 C 
HETATM    8  C6  UNL     1      24.033  16.585  32.837  1.00  0.00     0.049 C 
HETATM    9  C7  UNL     1      23.369  15.146  30.900  1.00  0.00     0.049 C 
BRANCH   7  10
HETATM   10  N2  UNL     1      21.866  15.534  32.797  1.00  0.00    -0.326 N 
HETATM   11  C4  UNL     1      21.255  16.804  32.710  1.00  0.00     0.317 C 
HETATM   12  N1  UNL     1      19.915  17.011  33.095  1.00  0.00    -0.339 N 
HETATM   13  O1  UNL     1      21.927  17.769  32.276  1.00  0.00    -0.247 OA
ATOM     14  H1  UNL     1      19.393  16.207  33.444  1.00  0.00     0.164 HD
ATOM     15  H2  UNL     1      21.334  14.737  33.148  1.00  0.00     0.165 HD
BRANCH  12  16
HETATM   16  C2  UNL     1      19.232  18.269  33.033  1.00  0.00     0.078 C 
HETATM   17  C1  UNL     1      19.319  19.059  34.308  1.00  0.00     0.032 C 
HETATM   18  C3  UNL     1      17.763  18.037  32.659  1.00  0.00     0.032 C 
ENDBRANCH  12  16
ENDBRANCH   7  10
ENDBRANCH   4   7
ENDBRANCH   1   3
BRANCH   1  19
HETATM   19  C11 UNL     1      24.839  11.149  32.547  1.00  0.00     0.240 C 
HETATM   20  O3  UNL     1      25.149  11.675  31.437  1.00  0.00    -0.271 OA
HETATM   21  N4  UNL     1      25.497   9.930  32.874  1.00  0.00    -0.354 N 
ATOM     22  H4  UNL     1      25.268   9.483  33.761  1.00  0.00     0.162 HD
BRANCH  21  23
HETATM   23  C12 UNL     1      26.460   9.296  32.031  1.00  0.00     0.092 C 
HETATM   24  C13 UNL     1      25.855   8.233  31.143  1.00  0.00     0.012 C 
HETATM   25  C14 UNL     1      25.494   6.985  31.905  1.00  0.00     0.011 C 
HETATM   26  C21 UNL     1      26.879   7.889  30.083  1.00  0.00     0.044 C 
HETATM   27  C15 UNL     1      26.749   6.425  32.565  1.00  0.00    -0.011 C 
HETATM   28  C16 UNL     1      27.235   7.463  33.538  1.00  0.00     0.011 C 
HETATM   29  C20 UNL     1      27.772   6.116  31.500  1.00  0.00     0.042 C 
HETATM   30  C17 UNL     1      27.617   8.698  32.764  1.00  0.00     0.012 C 
HETATM   31  C18 UNL     1      28.695   8.363  31.732  1.00  0.00     0.044 C 
HETATM   32  C19 UNL     1      28.141   7.371  30.750  1.00  0.00     0.059 C 
BRANCH  32  33
HETATM   33  O4  UNL     1      29.050   7.095  29.754  1.00  0.00    -0.390 OA
ATOM     34  H4  UNL     1      29.367   6.201  29.815  1.00  0.00     0.210 HD
ENDBRANCH  32  33
ENDBRANCH  21  23
ENDBRANCH   1  19
TORSDOF 7
ENDMDL
