MODEL 1
REMARK VINA RESULT: -9.617769970      0.000      0.000
REMARK  6 active torsions:
REMARK  status: ('A' for Active; 'I' for Inactive)
REMARK    1  A    between atoms: C2_2  and  C4_4 
REMARK    2  A    between atoms: C5_7  and  N2_8 
REMARK    3  A    between atoms: N3_11  and  C8_12 
REMARK    4  A    between atoms: C11_15  and  N4_16 
REMARK       I    between atoms: N4_16  and  C12_18 
REMARK    5  A    between atoms: C12_18  and  O2_20 
REMARK    6  A    between atoms: O2_20  and  C13_21 
ROOT
HETATM    1  N2  UNL     1      49.767   1.407   3.373  1.00  0.00    -0.197 N 
HETATM    2  C6  UNL     1      49.078   1.200   2.117  1.00  0.00     0.173 C 
HETATM    3  C7  UNL     1      48.564  -0.232   2.019  1.00  0.00     0.293 C 
HETATM    4  N3  UNL     1      47.588  -0.341   3.079  1.00  0.00     0.097 N 
HETATM    5  C20 UNL     1      48.237  -0.269   4.333  1.00  0.00     0.313 C 
HETATM    6  C21 UNL     1      49.531   0.445   4.410  1.00  0.00     0.237 C 
HETATM    7  C22 UNL     1      49.627   1.040   5.769  1.00  0.00     0.087 C 
HETATM    8  N5  UNL     1      49.685   1.489   6.837  1.00  0.00    -0.195 NA
ENDROOT
BRANCH   1   9
HETATM    9  C5  UNL     1      50.634   2.549   3.503  1.00  0.00     0.688 A 
HETATM   10  N1  UNL     1      50.337   3.709   2.984  1.00  0.00    -0.187 N 
HETATM   11  C4  UNL     1      51.162   4.721   3.128  1.00  0.00     0.088 A 
ATOM     12  H1  UNL     1      49.466   3.830   2.469  1.00  0.00     0.184 HD
HETATM   13  S1  UNL     1      52.428   4.030   4.036  1.00  0.00     0.016 SA
HETATM   14  N6  UNL     1      51.799   2.473   4.167  1.00  0.00    -0.159 N 
ATOM     15  H6  UNL     1      52.205   1.665   4.639  1.00  0.00     0.193 HD
BRANCH  11  16
HETATM   16  C2  UNL     1      50.959   6.108   2.592  1.00  0.00     0.037 C 
HETATM   17  C1  UNL     1      51.686   6.321   1.289  1.00  0.00     0.016 C 
HETATM   18  C3  UNL     1      49.501   6.361   2.392  1.00  0.00     0.016 C 
ENDBRANCH  11  16
ENDBRANCH   1   9
BRANCH   4  19
HETATM   19  C8  UNL     1      46.688  -1.426   2.920  1.00  0.00     0.223 C 
HETATM   20  C9  UNL     1      45.345  -1.258   3.579  1.00  0.00     0.038 C 
HETATM   21  C10 UNL     1      44.686  -2.618   3.675  1.00  0.00     0.027 C 
HETATM   22  C11 UNL     1      45.119  -3.559   2.573  1.00  0.00     0.086 C 
HETATM   23  C18 UNL     1      45.432  -2.850   1.290  1.00  0.00     0.027 C 
HETATM   24  C19 UNL     1      46.474  -1.766   1.477  1.00  0.00     0.038 C 
BRANCH  22  25
HETATM   25  N4  UNL     1      44.073  -4.514   2.352  1.00  0.00    -0.332 N 
HETATM   26  C12 UNL     1      43.987  -5.736   3.067  1.00  0.00     0.361 C 
HETATM   27  O1  UNL     1      44.879  -5.969   3.928  1.00  0.00    -0.238 OA
ATOM     28  H4  UNL     1      43.362  -4.307   1.652  1.00  0.00     0.165 HD
BRANCH  26  29
HETATM   29  O2  UNL     1      43.004  -6.671   2.885  1.00  0.00    -0.299 OA
BRANCH  29  30
HETATM   30  C13 UNL     1      43.050  -7.543   1.774  1.00  0.00     0.133 C 
HETATM   31  C14 UNL     1      44.470  -7.973   1.488  1.00  0.00     0.032 C 
HETATM   32  C15 UNL     1      44.369  -8.501   0.072  1.00  0.00     0.002 C 
HETATM   33  C16 UNL     1      43.148  -7.865  -0.544  1.00  0.00     0.002 C 
HETATM   34  C17 UNL     1      42.655  -6.851   0.491  1.00  0.00     0.032 C 
ENDBRANCH  29  30
ENDBRANCH  26  29
ENDBRANCH  22  25
ENDBRANCH   4  19
TORSDOF 6
ENDMDL
MODEL 2
REMARK VINA RESULT: -9.380102135      1.304      1.665
REMARK  6 active torsions:
REMARK  status: ('A' for Active; 'I' for Inactive)
REMARK    1  A    between atoms: C2_2  and  C4_4 
REMARK    2  A    between atoms: C5_7  and  N2_8 
REMARK    3  A    between atoms: N3_11  and  C8_12 
REMARK    4  A    between atoms: C11_15  and  N4_16 
REMARK       I    between atoms: N4_16  and  C12_18 
REMARK    5  A    between atoms: C12_18  and  O2_20 
REMARK    6  A    between atoms: O2_20  and  C13_21 
ROOT
HETATM    1  N2  UNL     1      49.313   2.073   2.341  1.00  0.00    -0.197 N 
HETATM    2  C6  UNL     1      48.175   1.849   1.475  1.00  0.00     0.173 C 
HETATM    3  C7  UNL     1      47.799   0.373   1.456  1.00  0.00     0.293 C 
HETATM    4  N3  UNL     1      47.384   0.086   2.810  1.00  0.00     0.097 N 
HETATM    5  C20 UNL     1      48.497   0.171   3.678  1.00  0.00     0.313 C 
HETATM    6  C21 UNL     1      49.630   1.035   3.278  1.00  0.00     0.237 C 
HETATM    7  C22 UNL     1      50.244   1.564   4.525  1.00  0.00     0.087 C 
HETATM    8  N5  UNL     1      50.712   1.958   5.509  1.00  0.00    -0.195 NA
ENDROOT
BRANCH   1   9
HETATM    9  C5  UNL     1      50.046   3.305   2.211  1.00  0.00     0.688 A 
HETATM   10  N1  UNL     1      50.345   4.047   3.241  1.00  0.00    -0.187 N 
HETATM   11  C4  UNL     1      51.013   5.165   3.071  1.00  0.00     0.088 A 
ATOM     12  H1  UNL     1      50.060   3.761   4.177  1.00  0.00     0.184 HD
HETATM   13  S1  UNL     1      51.246   5.195   1.383  1.00  0.00     0.016 SA
HETATM   14  N6  UNL     1      50.458   3.753   1.014  1.00  0.00    -0.159 N 
ATOM     15  H6  UNL     1      50.325   3.322   0.099  1.00  0.00     0.193 HD
BRANCH  11  16
HETATM   16  C2  UNL     1      51.428   6.119   4.153  1.00  0.00     0.037 C 
HETATM   17  C1  UNL     1      50.624   5.927   5.412  1.00  0.00     0.016 C 
HETATM   18  C3  UNL     1      52.878   5.933   4.458  1.00  0.00     0.016 C 
ENDBRANCH  11  16
ENDBRANCH   1   9
BRANCH   4  19
HETATM   19  C8  UNL     1      46.603  -1.093   2.934  1.00  0.00     0.223 C 
HETATM   20  C9  UNL     1      45.374  -0.970   3.795  1.00  0.00     0.038 C 
HETATM   21  C10 UNL     1      44.903  -2.363   4.156  1.00  0.00     0.027 C 
HETATM   22  C11 UNL     1      45.260  -3.393   3.108  1.00  0.00     0.086 C 
HETATM   23  C18 UNL     1      45.277  -2.832   1.719  1.00  0.00     0.027 C 
HETATM   24  C19 UNL     1      46.200  -1.637   1.598  1.00  0.00     0.038 C 
BRANCH  22  25
HETATM   25  N4  UNL     1      44.312  -4.466   3.183  1.00  0.00    -0.332 N 
HETATM   26  C12 UNL     1      44.654  -5.814   2.904  1.00  0.00     0.361 C 
HETATM   27  O1  UNL     1      45.849  -6.053   2.580  1.00  0.00    -0.238 OA
ATOM     28  H4  UNL     1      43.351  -4.251   3.447  1.00  0.00     0.165 HD
BRANCH  26  29
HETATM   29  O2  UNL     1      43.777  -6.863   2.965  1.00  0.00    -0.299 OA
BRANCH  29  30
HETATM   30  C13 UNL     1      43.091  -7.285   1.804  1.00  0.00     0.133 C 
HETATM   31  C14 UNL     1      43.995  -8.111   0.918  1.00  0.00     0.032 C 
HETATM   32  C15 UNL     1      43.263  -8.082  -0.407  1.00  0.00     0.002 C 
HETATM   33  C16 UNL     1      42.369  -6.867  -0.385  1.00  0.00     0.002 C 
HETATM   34  C17 UNL     1      42.727  -6.127   0.906  1.00  0.00     0.032 C 
ENDBRANCH  29  30
ENDBRANCH  26  29
ENDBRANCH  22  25
ENDBRANCH   4  19
TORSDOF 6
ENDMDL
MODEL 3
REMARK VINA RESULT: -9.318144647      1.426      1.676
REMARK  6 active torsions:
REMARK  status: ('A' for Active; 'I' for Inactive)
REMARK    1  A    between atoms: C2_2  and  C4_4 
REMARK    2  A    between atoms: C5_7  and  N2_8 
REMARK    3  A    between atoms: N3_11  and  C8_12 
REMARK    4  A    between atoms: C11_15  and  N4_16 
REMARK       I    between atoms: N4_16  and  C12_18 
REMARK    5  A    between atoms: C12_18  and  O2_20 
REMARK    6  A    between atoms: O2_20  and  C13_21 
ROOT
HETATM    1  N2  UNL     1      48.404   2.303   3.088  1.00  0.00    -0.197 N 
HETATM    2  C6  UNL     1      47.855   1.684   1.900  1.00  0.00     0.173 C 
HETATM    3  C7  UNL     1      47.685   0.184   2.108  1.00  0.00     0.293 C 
HETATM    4  N3  UNL     1      46.698   0.072   3.158  1.00  0.00     0.097 N 
HETATM    5  C20 UNL     1      47.239   0.552   4.372  1.00  0.00     0.313 C 
HETATM    6  C21 UNL     1      48.331   1.548   4.306  1.00  0.00     0.237 C 
HETATM    7  C22 UNL     1      48.210   2.418   5.506  1.00  0.00     0.087 C 
HETATM    8  N5  UNL     1      48.102   3.079   6.452  1.00  0.00    -0.195 NA
ENDROOT
BRANCH   1   9
HETATM    9  C5  UNL     1      48.981   3.617   2.977  1.00  0.00     0.688 A 
HETATM   10  N1  UNL     1      50.252   3.799   2.745  1.00  0.00    -0.187 N 
HETATM   11  C4  UNL     1      50.732   5.019   2.654  1.00  0.00     0.088 A 
ATOM     12  H1  UNL     1      50.872   2.997   2.633  1.00  0.00     0.184 HD
HETATM   13  S1  UNL     1      49.344   5.974   2.905  1.00  0.00     0.016 SA
HETATM   14  N6  UNL     1      48.234   4.724   3.111  1.00  0.00    -0.159 N 
ATOM     15  H6  UNL     1      47.233   4.792   3.294  1.00  0.00     0.193 HD
BRANCH  11  16
HETATM   16  C2  UNL     1      52.164   5.387   2.391  1.00  0.00     0.037 C 
HETATM   17  C1  UNL     1      52.287   6.456   1.337  1.00  0.00     0.016 C 
HETATM   18  C3  UNL     1      52.800   5.862   3.656  1.00  0.00     0.016 C 
ENDBRANCH  11  16
ENDBRANCH   1   9
BRANCH   4  19
HETATM   19  C8  UNL     1      46.077  -1.202   3.227  1.00  0.00     0.223 C 
HETATM   20  C9  UNL     1      44.739  -1.235   3.918  1.00  0.00     0.038 C 
HETATM   21  C10 UNL     1      44.421  -2.673   4.272  1.00  0.00     0.027 C 
HETATM   22  C11 UNL     1      45.052  -3.665   3.321  1.00  0.00     0.086 C 
HETATM   23  C18 UNL     1      45.176  -3.138   1.924  1.00  0.00     0.027 C 
HETATM   24  C19 UNL     1      45.934  -1.828   1.874  1.00  0.00     0.038 C 
BRANCH  22  25
HETATM   25  N4  UNL     1      44.258  -4.859   3.317  1.00  0.00    -0.332 N 
HETATM   26  C12 UNL     1      44.749  -6.105   2.848  1.00  0.00     0.361 C 
HETATM   27  O1  UNL     1      45.935  -6.138   2.422  1.00  0.00    -0.238 OA
ATOM     28  H4  UNL     1      43.301  -4.811   3.665  1.00  0.00     0.165 HD
BRANCH  26  29
HETATM   29  O2  UNL     1      44.022  -7.264   2.829  1.00  0.00    -0.299 OA
BRANCH  29  30
HETATM   30  C13 UNL     1      43.272  -7.615   1.683  1.00  0.00     0.133 C 
HETATM   31  C14 UNL     1      44.130  -8.365   0.690  1.00  0.00     0.032 C 
HETATM   32  C15 UNL     1      43.320  -8.255  -0.585  1.00  0.00     0.002 C 
HETATM   33  C16 UNL     1      42.417  -7.057  -0.425  1.00  0.00     0.002 C 
HETATM   34  C17 UNL     1      42.843  -6.403   0.892  1.00  0.00     0.032 C 
ENDBRANCH  29  30
ENDBRANCH  26  29
ENDBRANCH  22  25
ENDBRANCH   4  19
TORSDOF 6
ENDMDL
MODEL 4
REMARK VINA RESULT: -9.281041391      1.731      2.272
REMARK  6 active torsions:
REMARK  status: ('A' for Active; 'I' for Inactive)
REMARK    1  A    between atoms: C2_2  and  C4_4 
REMARK    2  A    between atoms: C5_7  and  N2_8 
REMARK    3  A    between atoms: N3_11  and  C8_12 
REMARK    4  A    between atoms: C11_15  and  N4_16 
REMARK       I    between atoms: N4_16  and  C12_18 
REMARK    5  A    between atoms: C12_18  and  O2_20 
REMARK    6  A    between atoms: O2_20  and  C13_21 
ROOT
HETATM    1  N2  UNL     1      49.323   2.567   3.220  1.00  0.00    -0.197 N 
HETATM    2  C6  UNL     1      49.798   1.241   2.883  1.00  0.00     0.173 C 
HETATM    3  C7  UNL     1      48.938   0.178   3.556  1.00  0.00     0.293 C 
HETATM    4  N3  UNL     1      47.630   0.340   2.964  1.00  0.00     0.097 N 
HETATM    5  C20 UNL     1      47.073   1.574   3.370  1.00  0.00     0.313 C 
HETATM    6  C21 UNL     1      47.996   2.665   3.755  1.00  0.00     0.237 C 
HETATM    7  C22 UNL     1      47.335   3.949   3.402  1.00  0.00     0.087 C 
HETATM    8  N5  UNL     1      46.798   4.938   3.125  1.00  0.00    -0.195 NA
ENDROOT
BRANCH   1   9
HETATM    9  C5  UNL     1      50.198   3.689   3.001  1.00  0.00     0.688 A 
HETATM   10  N1  UNL     1      50.729   4.358   3.986  1.00  0.00    -0.187 N 
HETATM   11  C4  UNL     1      51.520   5.376   3.735  1.00  0.00     0.088 A 
ATOM     12  H1  UNL     1      50.531   4.091   4.950  1.00  0.00     0.184 HD
HETATM   13  S1  UNL     1      51.532   5.414   2.032  1.00  0.00     0.016 SA
HETATM   14  N6  UNL     1      50.509   4.103   1.762  1.00  0.00    -0.159 N 
ATOM     15  H6  UNL     1      50.199   3.717   0.870  1.00  0.00     0.193 HD
BRANCH  11  16
HETATM   16  C2  UNL     1      52.202   6.238   4.758  1.00  0.00     0.037 C 
HETATM   17  C1  UNL     1      51.615   6.051   6.133  1.00  0.00     0.016 C 
HETATM   18  C3  UNL     1      53.660   5.917   4.794  1.00  0.00     0.016 C 
ENDBRANCH  11  16
ENDBRANCH   1   9
BRANCH   4  19
HETATM   19  C8  UNL     1      46.786  -0.791   3.119  1.00  0.00     0.223 C 
HETATM   20  C9  UNL     1      45.534  -0.562   3.923  1.00  0.00     0.038 C 
HETATM   21  C10 UNL     1      44.981  -1.909   4.340  1.00  0.00     0.027 C 
HETATM   22  C11 UNL     1      45.324  -3.011   3.362  1.00  0.00     0.086 C 
HETATM   23  C18 UNL     1      45.420  -2.528   1.947  1.00  0.00     0.027 C 
HETATM   24  C19 UNL     1      46.406  -1.388   1.800  1.00  0.00     0.038 C 
BRANCH  22  25
HETATM   25  N4  UNL     1      44.320  -4.031   3.456  1.00  0.00    -0.332 N 
HETATM   26  C12 UNL     1      44.588  -5.397   3.187  1.00  0.00     0.361 C 
HETATM   27  O1  UNL     1      45.765  -5.703   2.854  1.00  0.00    -0.238 OA
ATOM     28  H4  UNL     1      43.375  -3.762   3.727  1.00  0.00     0.165 HD
BRANCH  26  29
HETATM   29  O2  UNL     1      43.657  -6.398   3.267  1.00  0.00    -0.299 OA
BRANCH  29  30
HETATM   30  C13 UNL     1      43.071  -6.919   2.091  1.00  0.00     0.133 C 
HETATM   31  C14 UNL     1      43.982  -7.933   1.441  1.00  0.00     0.032 C 
HETATM   32  C15 UNL     1      43.415  -8.028   0.040  1.00  0.00     0.002 C 
HETATM   33  C16 UNL     1      42.651  -6.750  -0.207  1.00  0.00     0.002 C 
HETATM   34  C17 UNL     1      42.930  -5.870   1.013  1.00  0.00     0.032 C 
ENDBRANCH  29  30
ENDBRANCH  26  29
ENDBRANCH  22  25
ENDBRANCH   4  19
TORSDOF 6
ENDMDL
MODEL 5
REMARK VINA RESULT: -9.204091168      4.627      7.691
REMARK  6 active torsions:
REMARK  status: ('A' for Active; 'I' for Inactive)
REMARK    1  A    between atoms: C2_2  and  C4_4 
REMARK    2  A    between atoms: C5_7  and  N2_8 
REMARK    3  A    between atoms: N3_11  and  C8_12 
REMARK    4  A    between atoms: C11_15  and  N4_16 
REMARK       I    between atoms: N4_16  and  C12_18 
REMARK    5  A    between atoms: C12_18  and  O2_20 
REMARK    6  A    between atoms: O2_20  and  C13_21 
ROOT
HETATM    1  N2  UNL     1      45.094  -3.928   3.074  1.00  0.00    -0.197 N 
HETATM    2  C6  UNL     1      45.014  -5.323   3.454  1.00  0.00     0.173 C 
HETATM    3  C7  UNL     1      44.529  -6.169   2.284  1.00  0.00     0.293 C 
HETATM    4  N3  UNL     1      45.569  -6.043   1.288  1.00  0.00     0.097 N 
HETATM    5  C20 UNL     1      45.599  -4.718   0.796  1.00  0.00     0.313 C 
HETATM    6  C21 UNL     1      45.094  -3.636   1.670  1.00  0.00     0.237 C 
HETATM    7  C22 UNL     1      45.867  -2.408   1.346  1.00  0.00     0.087 C 
HETATM    8  N5  UNL     1      46.476  -1.461   1.072  1.00  0.00    -0.195 NA
ENDROOT
BRANCH   1   9
HETATM    9  C5  UNL     1      45.166  -2.934   4.113  1.00  0.00     0.688 A 
HETATM   10  N1  UNL     1      45.057  -1.659   3.863  1.00  0.00    -0.187 N 
HETATM   11  C4  UNL     1      45.132  -0.790   4.845  1.00  0.00     0.088 A 
ATOM     12  H1  UNL     1      44.913  -1.336   2.906  1.00  0.00     0.184 HD
HETATM   13  S1  UNL     1      45.368  -1.794   6.200  1.00  0.00     0.016 SA
HETATM   14  N6  UNL     1      45.353  -3.276   5.398  1.00  0.00    -0.159 N 
ATOM     15  H6  UNL     1      45.461  -4.210   5.794  1.00  0.00     0.193 HD
BRANCH  11  16
HETATM   16  C2  UNL     1      45.025   0.702   4.714  1.00  0.00     0.037 C 
HETATM   17  C1  UNL     1      44.580   1.350   5.999  1.00  0.00     0.016 C 
HETATM   18  C3  UNL     1      46.346   1.267   4.306  1.00  0.00     0.016 C 
ENDBRANCH  11  16
ENDBRANCH   1   9
BRANCH   4  19
HETATM   19  C8  UNL     1      45.543  -7.061   0.299  1.00  0.00     0.223 C 
HETATM   20  C9  UNL     1      44.178  -7.428  -0.219  1.00  0.00     0.038 C 
HETATM   21  C10 UNL     1      44.279  -8.766  -0.923  1.00  0.00     0.027 C 
HETATM   22  C11 UNL     1      45.646  -9.013  -1.518  1.00  0.00     0.086 C 
HETATM   23  C18 UNL     1      46.322  -7.756  -1.974  1.00  0.00     0.027 C 
HETATM   24  C19 UNL     1      46.425  -6.730  -0.865  1.00  0.00     0.038 C 
BRANCH  22  25
HETATM   25  N4  UNL     1      45.505  -9.913  -2.626  1.00  0.00    -0.332 N 
HETATM   26  C12 UNL     1      45.846 -11.287  -2.547  1.00  0.00     0.361 C 
HETATM   27  O1  UNL     1      46.291 -11.712  -1.446  1.00  0.00    -0.238 OA
ATOM     28  H4  UNL     1      45.143  -9.549  -3.507  1.00  0.00     0.165 HD
BRANCH  26  29
HETATM   29  O2  UNL     1      45.724 -12.175  -3.582  1.00  0.00    -0.299 OA
BRANCH  29  30
HETATM   30  C13 UNL     1      46.842 -12.486  -4.387  1.00  0.00     0.133 C 
HETATM   31  C14 UNL     1      47.530 -13.737  -3.889  1.00  0.00     0.032 C 
HETATM   32  C15 UNL     1      48.885 -13.650  -4.560  1.00  0.00     0.002 C 
HETATM   33  C16 UNL     1      49.109 -12.197  -4.902  1.00  0.00     0.002 C 
HETATM   34  C17 UNL     1      47.932 -11.448  -4.272  1.00  0.00     0.032 C 
ENDBRANCH  29  30
ENDBRANCH  26  29
ENDBRANCH  22  25
ENDBRANCH   4  19
TORSDOF 6
ENDMDL
