MODEL 1
REMARK VINA RESULT: -9.507368016      0.000      0.000
REMARK  6 active torsions:
REMARK  status: ('A' for Active; 'I' for Inactive)
REMARK    1  A    between atoms: N1_2  and  C2_4 
REMARK    2  A    between atoms: C4_6  and  C5_7 
REMARK    3  A    between atoms: C8_12  and  N3_13 
REMARK    4  A    between atoms: N5_22  and  C14_23 
REMARK    5  A    between atoms: C14_23  and  C15_24 
REMARK    6  A    between atoms: C15_24  and  C16_25 
ROOT
HETATM    1  C5  UNL     1      45.865  -9.632  -1.307  1.00  0.00     0.118 A 
HETATM    2  N2  UNL     1      44.707  -8.997  -1.115  1.00  0.00    -0.344 N 
ATOM      3  H2  UNL     1      43.860  -9.352  -1.559  1.00  0.00     0.167 HD
HETATM    4  C6  UNL     1      44.639  -7.875  -0.330  1.00  0.00     0.024 A 
HETATM    5  C7  UNL     1      45.763  -7.374   0.282  1.00  0.00     0.026 A 
HETATM    6  C8  UNL     1      46.953  -8.033   0.083  1.00  0.00     0.115 A 
HETATM    7  N4  UNL     1      46.925  -9.140  -0.715  1.00  0.00    -0.327 N 
ATOM      8  H4  UNL     1      47.808  -9.628  -0.863  1.00  0.00     0.169 HD
HETATM    9  C13 UNL     1      45.693  -6.116   1.100  1.00  0.00     0.166 C 
HETATM   10  N5  UNL     1      44.413  -5.547   0.909  1.00  0.00    -0.389 N 
HETATM   11  C22 UNL     1      43.291  -6.391   1.036  1.00  0.00     0.128 C 
HETATM   12  C23 UNL     1      43.266  -7.264  -0.197  1.00  0.00     0.077 C 
ENDROOT
BRANCH   1  13
HETATM   13  C4  UNL     1      45.949 -10.856  -2.166  1.00  0.00     0.017 A 
HETATM   14  C3  UNL     1      46.547 -10.868  -3.364  1.00  0.00     0.052 A 
HETATM   15  C2  UNL     1      46.557 -12.057  -4.053  1.00  0.00     0.070 A 
HETATM   16  S1  UNL     1      45.730 -13.115  -3.002  1.00  0.00    -0.084 SA
HETATM   17  C24 UNL     1      45.397 -12.037  -1.732  1.00  0.00     0.067 A 
BRANCH  15  18
HETATM   18  N1  UNL     1      47.135 -12.307  -5.344  1.00  0.00    -0.389 N 
HETATM   19  C1  UNL     1      48.436 -12.885  -5.422  1.00  0.00     0.147 C 
ATOM     20  H1  UNL     1      46.621 -12.075  -6.194  1.00  0.00     0.159 HD
ENDBRANCH  15  18
ENDBRANCH   1  13
BRANCH   6  21
HETATM   21  N3  UNL     1      48.152  -7.662   0.684  1.00  0.00    -0.363 N 
HETATM   22  C9  UNL     1      49.133  -6.950  -0.154  1.00  0.00     0.150 C 
HETATM   23  C10 UNL     1      50.311  -7.891  -0.250  1.00  0.00     0.187 C 
HETATM   24  O1  UNL     1      50.780  -8.212   0.985  1.00  0.00    -0.388 OA
HETATM   25  C11 UNL     1      50.129  -7.735   2.076  1.00  0.00     0.187 C 
HETATM   26  C12 UNL     1      48.599  -7.938   1.991  1.00  0.00     0.150 C 
ENDBRANCH   6  21
BRANCH  10  27
HETATM   27  C14 UNL     1      44.259  -4.173   0.741  1.00  0.00     0.059 C 
BRANCH  27  28
HETATM   28  C15 UNL     1      44.599  -3.314   1.908  1.00  0.00     0.049 C 
BRANCH  28  29
HETATM   29  C16 UNL     1      45.874  -2.547   1.744  1.00  0.00    -0.010 C 
HETATM   30  C17 UNL     1      46.209  -2.153   0.336  1.00  0.00     0.005 C 
HETATM   31  C18 UNL     1      46.857  -0.765   0.294  1.00  0.00     0.000 C 
HETATM   32  C19 UNL     1      47.884  -0.602   1.372  1.00  0.00     0.000 C 
HETATM   33  C20 UNL     1      47.338  -0.860   2.748  1.00  0.00     0.000 C 
HETATM   34  C21 UNL     1      45.899  -1.295   2.600  1.00  0.00     0.005 C 
ENDBRANCH  28  29
ENDBRANCH  27  28
ENDBRANCH  10  27
TORSDOF 6
ENDMDL
MODEL 2
REMARK VINA RESULT: -9.062107049      5.907     11.034
REMARK  6 active torsions:
REMARK  status: ('A' for Active; 'I' for Inactive)
REMARK    1  A    between atoms: N1_2  and  C2_4 
REMARK    2  A    between atoms: C4_6  and  C5_7 
REMARK    3  A    between atoms: C8_12  and  N3_13 
REMARK    4  A    between atoms: N5_22  and  C14_23 
REMARK    5  A    between atoms: C14_23  and  C15_24 
REMARK    6  A    between atoms: C15_24  and  C16_25 
ROOT
HETATM    1  C5  UNL     1      47.945   1.658   2.509  1.00  0.00     0.118 A 
HETATM    2  N2  UNL     1      47.708   0.988   1.380  1.00  0.00    -0.344 N 
ATOM      3  H2  UNL     1      48.008   1.382   0.489  1.00  0.00     0.167 HD
HETATM    4  C6  UNL     1      47.065  -0.224   1.401  1.00  0.00     0.024 A 
HETATM    5  C7  UNL     1      46.649  -0.781   2.586  1.00  0.00     0.026 A 
HETATM    6  C8  UNL     1      46.899  -0.088   3.747  1.00  0.00     0.115 A 
HETATM    7  N4  UNL     1      47.543   1.110   3.629  1.00  0.00    -0.327 N 
ATOM      8  H4  UNL     1      47.727   1.625   4.490  1.00  0.00     0.169 HD
HETATM    9  C13 UNL     1      45.902  -2.084   2.599  1.00  0.00     0.166 C 
HETATM   10  N5  UNL     1      45.584  -2.414   1.261  1.00  0.00    -0.389 N 
HETATM   11  C22 UNL     1      46.616  -2.340   0.302  1.00  0.00     0.128 C 
HETATM   12  C23 UNL     1      46.868  -0.871   0.052  1.00  0.00     0.077 C 
ENDROOT
BRANCH   1  13
HETATM   13  C4  UNL     1      48.643   2.983   2.497  1.00  0.00     0.017 A 
HETATM   14  C3  UNL     1      49.737   3.225   1.762  1.00  0.00     0.052 A 
HETATM   15  C2  UNL     1      50.283   4.484   1.839  1.00  0.00     0.070 A 
HETATM   16  S1  UNL     1      49.250   5.283   2.934  1.00  0.00    -0.084 SA
HETATM   17  C24 UNL     1      48.165   4.017   3.264  1.00  0.00     0.067 A 
BRANCH  15  18
HETATM   18  N1  UNL     1      51.444   4.970   1.147  1.00  0.00    -0.389 N 
HETATM   19  C1  UNL     1      51.880   6.308   1.377  1.00  0.00     0.147 C 
ATOM     20  H1  UNL     1      51.950   4.365   0.499  1.00  0.00     0.159 HD
ENDBRANCH  15  18
ENDBRANCH   1  13
BRANCH   6  21
HETATM   21  N3  UNL     1      46.578  -0.562   5.015  1.00  0.00    -0.363 N 
HETATM   22  C9  UNL     1      45.299  -0.115   5.597  1.00  0.00     0.150 C 
HETATM   23  C10 UNL     1      45.694   0.711   6.799  1.00  0.00     0.187 C 
HETATM   24  O1  UNL     1      46.461  -0.012   7.657  1.00  0.00    -0.388 OA
HETATM   25  C11 UNL     1      46.811  -1.278   7.314  1.00  0.00     0.187 C 
HETATM   26  C12 UNL     1      47.350  -1.373   5.868  1.00  0.00     0.150 C 
ENDBRANCH   6  21
BRANCH  10  27
HETATM   27  C14 UNL     1      44.334  -2.928   0.929  1.00  0.00     0.059 C 
BRANCH  27  28
HETATM   28  C15 UNL     1      43.939  -4.204   1.585  1.00  0.00     0.049 C 
BRANCH  28  29
HETATM   29  C16 UNL     1      44.054  -5.403   0.696  1.00  0.00    -0.010 C 
HETATM   30  C17 UNL     1      45.368  -6.123   0.758  1.00  0.00     0.005 C 
HETATM   31  C18 UNL     1      45.170  -7.639   0.642  1.00  0.00     0.000 C 
HETATM   32  C19 UNL     1      44.187  -7.985  -0.434  1.00  0.00     0.000 C 
HETATM   33  C20 UNL     1      42.854  -7.317  -0.250  1.00  0.00     0.000 C 
HETATM   34  C21 UNL     1      42.953  -6.413   0.957  1.00  0.00     0.005 C 
ENDBRANCH  28  29
ENDBRANCH  27  28
ENDBRANCH  10  27
TORSDOF 6
ENDMDL
MODEL 3
REMARK VINA RESULT: -9.056125820      0.881      1.542
REMARK  6 active torsions:
REMARK  status: ('A' for Active; 'I' for Inactive)
REMARK    1  A    between atoms: N1_2  and  C2_4 
REMARK    2  A    between atoms: C4_6  and  C5_7 
REMARK    3  A    between atoms: C8_12  and  N3_13 
REMARK    4  A    between atoms: N5_22  and  C14_23 
REMARK    5  A    between atoms: C14_23  and  C15_24 
REMARK    6  A    between atoms: C15_24  and  C16_25 
ROOT
HETATM    1  C5  UNL     1      45.934  -9.751  -1.400  1.00  0.00     0.118 A 
HETATM    2  N2  UNL     1      44.754  -9.163  -1.202  1.00  0.00    -0.344 N 
ATOM      3  H2  UNL     1      43.922  -9.537  -1.660  1.00  0.00     0.167 HD
HETATM    4  C6  UNL     1      44.641  -8.062  -0.391  1.00  0.00     0.024 A 
HETATM    5  C7  UNL     1      45.743  -7.536   0.240  1.00  0.00     0.026 A 
HETATM    6  C8  UNL     1      46.956  -8.148   0.034  1.00  0.00     0.115 A 
HETATM    7  N4  UNL     1      46.972  -9.236  -0.789  1.00  0.00    -0.327 N 
ATOM      8  H4  UNL     1      47.873  -9.690  -0.942  1.00  0.00     0.169 HD
HETATM    9  C13 UNL     1      45.623  -6.301   1.086  1.00  0.00     0.166 C 
HETATM   10  N5  UNL     1      44.325  -5.773   0.899  1.00  0.00    -0.389 N 
HETATM   11  C22 UNL     1      43.232  -6.659   0.998  1.00  0.00     0.128 C 
HETATM   12  C23 UNL     1      43.246  -7.504  -0.255  1.00  0.00     0.077 C 
ENDROOT
BRANCH   1  13
HETATM   13  C4  UNL     1      46.068 -10.952  -2.286  1.00  0.00     0.017 A 
HETATM   14  C3  UNL     1      46.727 -10.930  -3.452  1.00  0.00     0.052 A 
HETATM   15  C2  UNL     1      46.777 -12.100  -4.171  1.00  0.00     0.070 A 
HETATM   16  S1  UNL     1      45.900 -13.187  -3.194  1.00  0.00    -0.084 SA
HETATM   17  C24 UNL     1      45.497 -12.145  -1.914  1.00  0.00     0.067 A 
BRANCH  15  18
HETATM   18  N1  UNL     1      47.423 -12.314  -5.436  1.00  0.00    -0.389 N 
HETATM   19  C1  UNL     1      48.702 -12.943  -5.465  1.00  0.00     0.147 C 
ATOM     20  H1  UNL     1      46.972 -12.019  -6.303  1.00  0.00     0.159 HD
ENDBRANCH  15  18
ENDBRANCH   1  13
BRANCH   6  21
HETATM   21  N3  UNL     1      48.138  -7.749   0.652  1.00  0.00    -0.363 N 
HETATM   22  C9  UNL     1      49.124  -7.036  -0.179  1.00  0.00     0.150 C 
HETATM   23  C10 UNL     1      50.317  -7.961  -0.235  1.00  0.00     0.187 C 
HETATM   24  O1  UNL     1      50.767  -8.254   1.014  1.00  0.00    -0.388 OA
HETATM   25  C11 UNL     1      50.087  -7.769   2.084  1.00  0.00     0.187 C 
HETATM   26  C12 UNL     1      48.562  -7.996   1.972  1.00  0.00     0.150 C 
ENDBRANCH   6  21
BRANCH  10  27
HETATM   27  C14 UNL     1      44.123  -4.402   0.761  1.00  0.00     0.059 C 
BRANCH  27  28
HETATM   28  C15 UNL     1      45.233  -3.514   1.206  1.00  0.00     0.049 C 
BRANCH  28  29
HETATM   29  C16 UNL     1      44.970  -2.826   2.509  1.00  0.00    -0.010 C 
HETATM   30  C17 UNL     1      45.022  -3.706   3.722  1.00  0.00     0.005 C 
HETATM   31  C18 UNL     1      45.643  -2.967   4.912  1.00  0.00     0.000 C 
HETATM   32  C19 UNL     1      45.110  -1.572   5.033  1.00  0.00     0.000 C 
HETATM   33  C20 UNL     1      45.298  -0.760   3.783  1.00  0.00     0.000 C 
HETATM   34  C21 UNL     1      45.913  -1.659   2.736  1.00  0.00     0.005 C 
ENDBRANCH  28  29
ENDBRANCH  27  28
ENDBRANCH  10  27
TORSDOF 6
ENDMDL
MODEL 4
REMARK VINA RESULT: -9.000710053      6.290     10.941
REMARK  6 active torsions:
REMARK  status: ('A' for Active; 'I' for Inactive)
REMARK    1  A    between atoms: N1_2  and  C2_4 
REMARK    2  A    between atoms: C4_6  and  C5_7 
REMARK    3  A    between atoms: C8_12  and  N3_13 
REMARK    4  A    between atoms: N5_22  and  C14_23 
REMARK    5  A    between atoms: C14_23  and  C15_24 
REMARK    6  A    between atoms: C15_24  and  C16_25 
ROOT
HETATM    1  C5  UNL     1      47.962   1.629   2.867  1.00  0.00     0.118 A 
HETATM    2  N2  UNL     1      47.666   0.944   1.761  1.00  0.00    -0.344 N 
ATOM      3  H2  UNL     1      47.966   1.301   0.854  1.00  0.00     0.167 HD
HETATM    4  C6  UNL     1      46.964  -0.232   1.826  1.00  0.00     0.024 A 
HETATM    5  C7  UNL     1      46.546  -0.738   3.035  1.00  0.00     0.026 A 
HETATM    6  C8  UNL     1      46.857  -0.030   4.171  1.00  0.00     0.115 A 
HETATM    7  N4  UNL     1      47.558   1.130   4.009  1.00  0.00    -0.327 N 
ATOM      8  H4  UNL     1      47.787   1.656   4.853  1.00  0.00     0.169 HD
HETATM    9  C13 UNL     1      45.734  -2.000   3.096  1.00  0.00     0.166 C 
HETATM   10  N5  UNL     1      45.371  -2.346   1.775  1.00  0.00    -0.389 N 
HETATM   11  C22 UNL     1      46.383  -2.349   0.792  1.00  0.00     0.128 C 
HETATM   12  C23 UNL     1      46.704  -0.901   0.500  1.00  0.00     0.077 C 
ENDROOT
BRANCH   1  13
HETATM   13  C4  UNL     1      48.726   2.916   2.806  1.00  0.00     0.017 A 
HETATM   14  C3  UNL     1      49.689   3.151   1.904  1.00  0.00     0.052 A 
HETATM   15  C2  UNL     1      50.314   4.374   1.954  1.00  0.00     0.070 A 
HETATM   16  S1  UNL     1      49.536   5.149   3.257  1.00  0.00    -0.084 SA
HETATM   17  C24 UNL     1      48.451   3.920   3.702  1.00  0.00     0.067 A 
BRANCH  15  18
HETATM   18  N1  UNL     1      51.365   4.846   1.096  1.00  0.00    -0.389 N 
HETATM   19  C1  UNL     1      51.910   6.145   1.315  1.00  0.00     0.147 C 
ATOM     20  H1  UNL     1      51.718   4.259   0.339  1.00  0.00     0.159 HD
ENDBRANCH  15  18
ENDBRANCH   1  13
BRANCH   6  21
HETATM   21  N3  UNL     1      46.540  -0.455   5.458  1.00  0.00    -0.363 N 
HETATM   22  C9  UNL     1      47.528  -1.302   6.149  1.00  0.00     0.150 C 
HETATM   23  C10 UNL     1      46.837  -2.635   6.320  1.00  0.00     0.187 C 
HETATM   24  O1  UNL     1      45.669  -2.494   7.000  1.00  0.00    -0.388 OA
HETATM   25  C11 UNL     1      45.263  -1.248   7.353  1.00  0.00     0.187 C 
HETATM   26  C12 UNL     1      45.352  -0.241   6.183  1.00  0.00     0.150 C 
ENDBRANCH   6  21
BRANCH  10  27
HETATM   27  C14 UNL     1      44.089  -2.803   1.482  1.00  0.00     0.059 C 
BRANCH  27  28
HETATM   28  C15 UNL     1      43.950  -3.688   0.293  1.00  0.00     0.049 C 
BRANCH  28  29
HETATM   29  C16 UNL     1      43.955  -5.148   0.622  1.00  0.00    -0.010 C 
HETATM   30  C17 UNL     1      44.171  -5.479   2.069  1.00  0.00     0.005 C 
HETATM   31  C18 UNL     1      43.325  -6.687   2.488  1.00  0.00     0.000 C 
HETATM   32  C19 UNL     1      43.378  -7.779   1.464  1.00  0.00     0.000 C 
HETATM   33  C20 UNL     1      42.958  -7.323   0.096  1.00  0.00     0.000 C 
HETATM   34  C21 UNL     1      42.683  -5.839   0.168  1.00  0.00     0.005 C 
ENDBRANCH  28  29
ENDBRANCH  27  28
ENDBRANCH  10  27
TORSDOF 6
ENDMDL
MODEL 5
REMARK VINA RESULT: -8.926276678      6.158     11.019
REMARK  6 active torsions:
REMARK  status: ('A' for Active; 'I' for Inactive)
REMARK    1  A    between atoms: N1_2  and  C2_4 
REMARK    2  A    between atoms: C4_6  and  C5_7 
REMARK    3  A    between atoms: C8_12  and  N3_13 
REMARK    4  A    between atoms: N5_22  and  C14_23 
REMARK    5  A    between atoms: C14_23  and  C15_24 
REMARK    6  A    between atoms: C15_24  and  C16_25 
ROOT
HETATM    1  C5  UNL     1      47.942   1.678   2.572  1.00  0.00     0.118 A 
HETATM    2  N2  UNL     1      47.614   1.022   1.458  1.00  0.00    -0.344 N 
ATOM      3  H2  UNL     1      47.861   1.418   0.550  1.00  0.00     0.167 HD
HETATM    4  C6  UNL     1      46.949  -0.176   1.514  1.00  0.00     0.024 A 
HETATM    5  C7  UNL     1      46.602  -0.734   2.722  1.00  0.00     0.026 A 
HETATM    6  C8  UNL     1      46.945  -0.055   3.867  1.00  0.00     0.115 A 
HETATM    7  N4  UNL     1      47.605   1.130   3.713  1.00  0.00    -0.327 N 
ATOM      8  H4  UNL     1      47.858   1.634   4.563  1.00  0.00     0.169 HD
HETATM    9  C13 UNL     1      45.829  -2.021   2.777  1.00  0.00     0.166 C 
HETATM   10  N5  UNL     1      45.415  -2.333   1.462  1.00  0.00    -0.389 N 
HETATM   11  C22 UNL     1      46.380  -2.273   0.435  1.00  0.00     0.128 C 
HETATM   12  C23 UNL     1      46.646  -0.808   0.178  1.00  0.00     0.077 C 
ENDROOT
BRANCH   1  13
HETATM   13  C4  UNL     1      48.666   2.988   2.520  1.00  0.00     0.017 A 
HETATM   14  C3  UNL     1      49.738   3.200   1.745  1.00  0.00     0.052 A 
HETATM   15  C2  UNL     1      50.311   4.449   1.789  1.00  0.00     0.070 A 
HETATM   16  S1  UNL     1      49.333   5.280   2.911  1.00  0.00    -0.084 SA
HETATM   17  C24 UNL     1      48.236   4.040   3.293  1.00  0.00     0.067 A 
BRANCH  15  18
HETATM   18  N1  UNL     1      51.456   4.903   1.051  1.00  0.00    -0.389 N 
HETATM   19  C1  UNL     1      52.001   6.190   1.338  1.00  0.00     0.147 C 
ATOM     20  H1  UNL     1      51.875   4.314   0.331  1.00  0.00     0.159 HD
ENDBRANCH  15  18
ENDBRANCH   1  13
BRANCH   6  21
HETATM   21  N3  UNL     1      46.701  -0.532   5.151  1.00  0.00    -0.363 N 
HETATM   22  C9  UNL     1      45.508  -0.016   5.845  1.00  0.00     0.150 C 
HETATM   23  C10 UNL     1      46.054   0.760   7.021  1.00  0.00     0.187 C 
HETATM   24  O1  UNL     1      46.841  -0.027   7.801  1.00  0.00    -0.388 OA
HETATM   25  C11 UNL     1      47.079  -1.306   7.412  1.00  0.00     0.187 C 
HETATM   26  C12 UNL     1      47.488  -1.407   5.924  1.00  0.00     0.150 C 
ENDBRANCH   6  21
BRANCH  10  27
HETATM   27  C14 UNL     1      44.134  -2.818   1.212  1.00  0.00     0.059 C 
BRANCH  27  28
HETATM   28  C15 UNL     1      44.021  -3.940   0.240  1.00  0.00     0.049 C 
BRANCH  28  29
HETATM   29  C16 UNL     1      43.744  -5.266   0.876  1.00  0.00    -0.010 C 
HETATM   30  C17 UNL     1      42.739  -6.122   0.164  1.00  0.00     0.005 C 
HETATM   31  C18 UNL     1      43.131  -7.602   0.231  1.00  0.00     0.000 C 
HETATM   32  C19 UNL     1      43.591  -7.989   1.603  1.00  0.00     0.000 C 
HETATM   33  C20 UNL     1      44.729  -7.144   2.101  1.00  0.00     0.000 C 
HETATM   34  C21 UNL     1      45.008  -6.084   1.061  1.00  0.00     0.005 C 
ENDBRANCH  28  29
ENDBRANCH  27  28
ENDBRANCH  10  27
TORSDOF 6
ENDMDL
