MODEL 1
REMARK VINA RESULT: -5.917560653      0.000      0.000
REMARK  5 active torsions:
REMARK  status: ('A' for Active; 'I' for Inactive)
REMARK    1  A    between atoms: C5_7  and  C6_8 
REMARK    2  A    between atoms: C6_8  and  N2_10 
REMARK    3  A    between atoms: N2_10  and  C7_12 
REMARK    4  A    between atoms: C7_12  and  C8_13 
REMARK       I    between atoms: C8_13  and  N3_15 
REMARK    5  A    between atoms: N3_15  and  C9_17 
ROOT
HETATM    1  N2  UNL     1      22.356  15.666  31.169  1.00  0.00    -0.374 N 
ATOM      2  H2  UNL     1      21.532  15.653  30.570  1.00  0.00     0.160 HD
ENDROOT
BRANCH   1   3
HETATM    3  C6  UNL     1      22.236  15.456  32.552  1.00  0.00     0.096 C 
HETATM    4  S1  UNL     1      23.249  14.380  33.231  1.00  0.00    -0.063 SA
BRANCH   3   5
HETATM    5  C5  UNL     1      21.242  16.174  33.356  1.00  0.00     0.138 C 
HETATM    6  N1  UNL     1      21.720  17.425  33.814  1.00  0.00    -0.411 N 
HETATM    7  C4  UNL     1      20.787  18.495  33.878  1.00  0.00     0.115 C 
ATOM      8  H1  UNL     1      22.694  17.553  34.087  1.00  0.00     0.154 HD
HETATM    9  C3  UNL     1      19.507  17.970  34.473  1.00  0.00     0.023 C 
HETATM   10  C2  UNL     1      18.887  17.056  33.440  1.00  0.00    -0.015 C 
HETATM   11  C1  UNL     1      18.067  17.901  32.459  1.00  0.00     0.010 C 
HETATM   12  C13 UNL     1      19.875  16.202  32.733  1.00  0.00     0.036 C 
ENDBRANCH   3   5
ENDBRANCH   1   3
BRANCH   1  13
HETATM   13  C7  UNL     1      23.673  15.901  30.609  1.00  0.00     0.223 C 
BRANCH  13  14
HETATM   14  C8  UNL     1      24.119  17.309  30.881  1.00  0.00     0.235 C 
HETATM   15  O1  UNL     1      23.240  18.144  31.174  1.00  0.00    -0.272 OA
HETATM   16  N3  UNL     1      25.491  17.642  30.803  1.00  0.00    -0.352 N 
ATOM     17  H3  UNL     1      26.180  16.931  30.562  1.00  0.00     0.163 HD
BRANCH  16  18
HETATM   18  C9  UNL     1      25.903  18.995  31.067  1.00  0.00     0.022 C 
HETATM   19  C10 UNL     1      25.128  19.999  30.235  1.00  0.00     0.037 C 
HETATM   20  C11 UNL     1      27.375  19.190  30.730  1.00  0.00     0.037 C 
HETATM   21  C12 UNL     1      25.756  19.258  32.548  1.00  0.00     0.037 C 
ENDBRANCH  16  18
ENDBRANCH  13  14
ENDBRANCH   1  13
TORSDOF 5
ENDMDL
MODEL 2
REMARK VINA RESULT: -5.867138929      0.050      1.003
REMARK  5 active torsions:
REMARK  status: ('A' for Active; 'I' for Inactive)
REMARK    1  A    between atoms: C5_7  and  C6_8 
REMARK    2  A    between atoms: C6_8  and  N2_10 
REMARK    3  A    between atoms: N2_10  and  C7_12 
REMARK    4  A    between atoms: C7_12  and  C8_13 
REMARK       I    between atoms: C8_13  and  N3_15 
REMARK    5  A    between atoms: N3_15  and  C9_17 
ROOT
HETATM    1  N2  UNL     1      22.340  15.670  31.159  1.00  0.00    -0.374 N 
ATOM      2  H2  UNL     1      21.506  15.657  30.572  1.00  0.00     0.160 HD
ENDROOT
BRANCH   1   3
HETATM    3  C6  UNL     1      22.239  15.471  32.545  1.00  0.00     0.096 C 
HETATM    4  S1  UNL     1      23.272  14.412  33.221  1.00  0.00    -0.063 SA
BRANCH   3   5
HETATM    5  C5  UNL     1      21.248  16.185  33.356  1.00  0.00     0.138 C 
HETATM    6  N1  UNL     1      21.727  17.434  33.817  1.00  0.00    -0.411 N 
HETATM    7  C4  UNL     1      20.795  18.505  33.889  1.00  0.00     0.115 C 
ATOM      8  H1  UNL     1      22.702  17.562  34.087  1.00  0.00     0.154 HD
HETATM    9  C3  UNL     1      19.516  17.977  34.486  1.00  0.00     0.023 C 
HETATM   10  C2  UNL     1      18.893  17.067  33.451  1.00  0.00    -0.015 C 
HETATM   11  C1  UNL     1      18.070  17.916  32.476  1.00  0.00     0.010 C 
HETATM   12  C13 UNL     1      19.879  16.216  32.737  1.00  0.00     0.036 C 
ENDBRANCH   3   5
ENDBRANCH   1   3
BRANCH   1  13
HETATM   13  C7  UNL     1      23.649  15.893  30.577  1.00  0.00     0.223 C 
BRANCH  13  14
HETATM   14  C8  UNL     1      24.124  17.288  30.867  1.00  0.00     0.235 C 
HETATM   15  O1  UNL     1      23.262  18.137  31.175  1.00  0.00    -0.272 OA
HETATM   16  N3  UNL     1      25.501  17.596  30.785  1.00  0.00    -0.352 N 
ATOM     17  H3  UNL     1      26.175  16.875  30.531  1.00  0.00     0.163 HD
BRANCH  16  18
HETATM   18  C9  UNL     1      25.941  18.937  31.065  1.00  0.00     0.022 C 
HETATM   19  C10 UNL     1      25.737  19.311  32.520  1.00  0.00     0.037 C 
HETATM   20  C11 UNL     1      25.161  19.950  30.239  1.00  0.00     0.037 C 
HETATM   21  C12 UNL     1      27.390  19.059  30.650  1.00  0.00     0.037 C 
ENDBRANCH  16  18
ENDBRANCH  13  14
ENDBRANCH   1  13
TORSDOF 5
ENDMDL
MODEL 3
REMARK VINA RESULT: -5.769418514      3.859      5.680
REMARK  5 active torsions:
REMARK  status: ('A' for Active; 'I' for Inactive)
REMARK    1  A    between atoms: C5_7  and  C6_8 
REMARK    2  A    between atoms: C6_8  and  N2_10 
REMARK    3  A    between atoms: N2_10  and  C7_12 
REMARK    4  A    between atoms: C7_12  and  C8_13 
REMARK       I    between atoms: C8_13  and  N3_15 
REMARK    5  A    between atoms: N3_15  and  C9_17 
ROOT
HETATM    1  N2  UNL     1      22.990  14.288  31.947  1.00  0.00    -0.374 N 
ATOM      2  H2  UNL     1      22.730  13.512  31.339  1.00  0.00     0.160 HD
ENDROOT
BRANCH   1   3
HETATM    3  C6  UNL     1      22.809  15.615  31.527  1.00  0.00     0.096 C 
HETATM    4  S1  UNL     1      24.002  16.286  30.648  1.00  0.00    -0.063 SA
BRANCH   3   5
HETATM    5  C5  UNL     1      21.597  16.370  31.862  1.00  0.00     0.138 C 
HETATM    6  N1  UNL     1      20.491  15.527  32.121  1.00  0.00    -0.411 N 
HETATM    7  C4  UNL     1      19.584  15.935  33.136  1.00  0.00     0.115 C 
ATOM      8  H1  UNL     1      20.350  14.661  31.601  1.00  0.00     0.154 HD
HETATM    9  C3  UNL     1      19.322  17.410  32.970  1.00  0.00     0.023 C 
HETATM   10  C2  UNL     1      20.595  18.127  33.359  1.00  0.00    -0.015 C 
HETATM   11  C1  UNL     1      20.612  18.317  34.880  1.00  0.00     0.010 C 
HETATM   12  C13 UNL     1      21.828  17.452  32.879  1.00  0.00     0.036 C 
ENDBRANCH   3   5
ENDBRANCH   1   3
BRANCH   1  13
HETATM   13  C7  UNL     1      23.553  14.040  33.260  1.00  0.00     0.223 C 
BRANCH  13  14
HETATM   14  C8  UNL     1      23.567  12.568  33.558  1.00  0.00     0.235 C 
HETATM   15  O1  UNL     1      22.497  12.046  33.931  1.00  0.00    -0.272 OA
HETATM   16  N3  UNL     1      24.763  11.829  33.410  1.00  0.00    -0.352 N 
ATOM     17  H3  UNL     1      25.619  12.291  33.102  1.00  0.00     0.163 HD
BRANCH  16  18
HETATM   18  C9  UNL     1      24.762  10.420  33.700  1.00  0.00     0.022 C 
HETATM   19  C10 UNL     1      24.164  10.119  35.061  1.00  0.00     0.037 C 
HETATM   20  C11 UNL     1      26.179   9.865  33.711  1.00  0.00     0.037 C 
HETATM   21  C12 UNL     1      24.023   9.706  32.590  1.00  0.00     0.037 C 
ENDBRANCH  16  18
ENDBRANCH  13  14
ENDBRANCH   1  13
TORSDOF 5
ENDMDL
MODEL 4
REMARK VINA RESULT: -5.762391599      0.059      1.009
REMARK  5 active torsions:
REMARK  status: ('A' for Active; 'I' for Inactive)
REMARK    1  A    between atoms: C5_7  and  C6_8 
REMARK    2  A    between atoms: C6_8  and  N2_10 
REMARK    3  A    between atoms: N2_10  and  C7_12 
REMARK    4  A    between atoms: C7_12  and  C8_13 
REMARK       I    between atoms: C8_13  and  N3_15 
REMARK    5  A    between atoms: N3_15  and  C9_17 
ROOT
HETATM    1  N2  UNL     1      22.355  15.676  31.165  1.00  0.00    -0.374 N 
ATOM      2  H2  UNL     1      21.521  15.673  30.578  1.00  0.00     0.160 HD
ENDROOT
BRANCH   1   3
HETATM    3  C6  UNL     1      22.253  15.466  32.549  1.00  0.00     0.096 C 
HETATM    4  S1  UNL     1      23.274  14.387  33.214  1.00  0.00    -0.063 SA
BRANCH   3   5
HETATM    5  C5  UNL     1      21.273  16.186  33.368  1.00  0.00     0.138 C 
HETATM    6  N1  UNL     1      21.763  17.432  33.825  1.00  0.00    -0.411 N 
HETATM    7  C4  UNL     1      20.837  18.507  33.905  1.00  0.00     0.115 C 
ATOM      8  H1  UNL     1      22.741  17.553  34.088  1.00  0.00     0.154 HD
HETATM    9  C3  UNL     1      19.561  17.987  34.512  1.00  0.00     0.023 C 
HETATM   10  C2  UNL     1      18.924  17.081  33.482  1.00  0.00    -0.015 C 
HETATM   11  C1  UNL     1      18.098  17.935  32.514  1.00  0.00     0.010 C 
HETATM   12  C13 UNL     1      19.899  16.224  32.760  1.00  0.00     0.036 C 
ENDBRANCH   3   5
ENDBRANCH   1   3
BRANCH   1  13
HETATM   13  C7  UNL     1      23.666  15.897  30.585  1.00  0.00     0.223 C 
BRANCH  13  14
HETATM   14  C8  UNL     1      24.132  17.299  30.853  1.00  0.00     0.235 C 
HETATM   15  O1  UNL     1      23.267  18.143  31.164  1.00  0.00    -0.272 OA
HETATM   16  N3  UNL     1      25.505  17.619  30.749  1.00  0.00    -0.352 N 
ATOM     17  H3  UNL     1      26.182  16.900  30.493  1.00  0.00     0.163 HD
BRANCH  16  18
HETATM   18  C9  UNL     1      25.937  18.966  31.008  1.00  0.00     0.022 C 
HETATM   19  C10 UNL     1      27.412  19.158  30.711  1.00  0.00     0.037 C 
HETATM   20  C11 UNL     1      25.734  19.330  32.472  1.00  0.00     0.037 C 
HETATM   21  C12 UNL     1      25.073  19.908  30.200  1.00  0.00     0.037 C 
ENDBRANCH  16  18
ENDBRANCH  13  14
ENDBRANCH   1  13
TORSDOF 5
ENDMDL
MODEL 5
REMARK VINA RESULT: -5.725397059      3.664      5.369
REMARK  5 active torsions:
REMARK  status: ('A' for Active; 'I' for Inactive)
REMARK    1  A    between atoms: C5_7  and  C6_8 
REMARK    2  A    between atoms: C6_8  and  N2_10 
REMARK    3  A    between atoms: N2_10  and  C7_12 
REMARK    4  A    between atoms: C7_12  and  C8_13 
REMARK       I    between atoms: C8_13  and  N3_15 
REMARK    5  A    between atoms: N3_15  and  C9_17 
ROOT
HETATM    1  N2  UNL     1      22.479  14.707  32.536  1.00  0.00    -0.374 N 
ATOM      2  H2  UNL     1      21.889  14.047  32.028  1.00  0.00     0.160 HD
ENDROOT
BRANCH   1   3
HETATM    3  C6  UNL     1      22.171  16.076  32.547  1.00  0.00     0.096 C 
HETATM    4  S1  UNL     1      23.156  17.065  31.711  1.00  0.00    -0.063 SA
BRANCH   3   5
HETATM    5  C5  UNL     1      21.014  16.600  33.277  1.00  0.00     0.138 C 
HETATM    6  N1  UNL     1      21.276  17.854  33.877  1.00  0.00    -0.411 N 
HETATM    7  C4  UNL     1      20.214  18.798  33.908  1.00  0.00     0.115 C 
ATOM      8  H1  UNL     1      22.191  18.073  34.272  1.00  0.00     0.154 HD
HETATM    9  C3  UNL     1      18.953  18.077  34.308  1.00  0.00     0.023 C 
HETATM   10  C2  UNL     1      18.570  17.188  33.145  1.00  0.00    -0.015 C 
HETATM   11  C1  UNL     1      17.761  18.011  32.138  1.00  0.00     0.010 C 
HETATM   12  C13 UNL     1      19.729  16.520  32.500  1.00  0.00     0.036 C 
ENDBRANCH   3   5
ENDBRANCH   1   3
BRANCH   1  13
HETATM   13  C7  UNL     1      23.649  14.246  33.258  1.00  0.00     0.223 C 
BRANCH  13  14
HETATM   14  C8  UNL     1      23.570  12.765  33.498  1.00  0.00     0.235 C 
HETATM   15  O1  UNL     1      22.448  12.282  33.751  1.00  0.00    -0.272 OA
HETATM   16  N3  UNL     1      24.742  11.976  33.431  1.00  0.00    -0.352 N 
ATOM     17  H3  UNL     1      25.641  12.408  33.220  1.00  0.00     0.163 HD
BRANCH  16  18
HETATM   18  C9  UNL     1      24.652  10.560  33.663  1.00  0.00     0.022 C 
HETATM   19  C10 UNL     1      24.027  10.242  35.008  1.00  0.00     0.037 C 
HETATM   20  C11 UNL     1      26.032   9.919  33.660  1.00  0.00     0.037 C 
HETATM   21  C12 UNL     1      23.879   9.937  32.523  1.00  0.00     0.037 C 
ENDBRANCH  16  18
ENDBRANCH  13  14
ENDBRANCH   1  13
TORSDOF 5
ENDMDL
