MODEL 1
REMARK VINA RESULT: -0.228839048      0.000      0.000
REMARK  4 active torsions:
REMARK  status: ('A' for Active; 'I' for Inactive)
REMARK    1  A    between atoms: N3_8  and  S1_10 
REMARK    2  A    between atoms: S1_10  and  C4_13 
REMARK    3  A    between atoms: C9_18  and  C10_19 
REMARK    4  A    between atoms: C15_26  and  C16_27 
ROOT
HETATM    1  C4  UNL     1      -3.954 -10.448  30.054  1.00  0.00     0.080 A 
HETATM    2  C5  UNL     1      -5.158 -10.175  29.440  1.00  0.00     0.026 A 
HETATM    3  C6  UNL     1      -5.209  -9.412  28.270  1.00  0.00     0.014 A 
HETATM    4  C7  UNL     1      -4.048  -8.918  27.711  1.00  0.00    -0.025 A 
HETATM    5  C8  UNL     1      -4.116  -8.154  26.536  1.00  0.00     0.026 A 
HETATM    6  C9  UNL     1      -2.991  -7.659  25.966  1.00  0.00    -0.007 A 
HETATM    7  C23 UNL     1      -1.755  -7.928  26.580  1.00  0.00     0.014 A 
HETATM    8  C24 UNL     1      -1.712  -8.673  27.725  1.00  0.00     0.013 A 
HETATM    9  C25 UNL     1      -2.842  -9.185  28.317  1.00  0.00    -0.024 A 
HETATM   10  C26 UNL     1      -2.808  -9.943  29.476  1.00  0.00     0.037 A 
ENDROOT
BRANCH   6  11
HETATM   11  C10 UNL     1      -2.900  -6.920  24.706  1.00  0.00     0.066 A 
HETATM   12  C11 UNL     1      -2.584  -5.562  24.601  1.00  0.00     0.120 A 
HETATM   13  N4  UNL     1      -2.533  -5.204  23.326  1.00  0.00    -0.350 N 
HETATM   14  C12 UNL     1      -2.806  -6.288  22.595  1.00  0.00     0.111 A 
ATOM     15  H4  UNL     1      -2.325  -4.271  22.968  1.00  0.00     0.166 HD
HETATM   16  C13 UNL     1      -2.871  -6.489  21.231  1.00  0.00     0.050 A 
HETATM   17  N5  UNL     1      -3.029  -7.339  23.440  1.00  0.00    -0.305 N 
HETATM   18  C14 UNL     1      -3.158  -7.740  20.701  1.00  0.00     0.017 A 
HETATM   19  C15 UNL     1      -3.381  -8.806  21.538  1.00  0.00    -0.007 A 
HETATM   20  C22 UNL     1      -3.307  -8.562  22.908  1.00  0.00     0.111 A 
BRANCH  19  21
HETATM   21  C16 UNL     1      -3.679 -10.125  21.006  1.00  0.00     0.014 A 
HETATM   22  C17 UNL     1      -3.639 -10.330  19.622  1.00  0.00     0.018 A 
HETATM   23  C18 UNL     1      -3.905 -11.546  19.039  1.00  0.00     0.043 A 
HETATM   24  C19 UNL     1      -4.227 -12.621  19.845  1.00  0.00     0.119 A 
HETATM   25  F1  UNL     1      -4.498 -13.841  19.313  1.00  0.00    -0.206 F 
HETATM   26  C20 UNL     1      -4.268 -12.428  21.208  1.00  0.00     0.085 A 
HETATM   27  C21 UNL     1      -4.000 -11.205  21.790  1.00  0.00     0.130 A 
HETATM   28  F2  UNL     1      -4.043 -11.020  23.135  1.00  0.00    -0.205 F 
ENDBRANCH  19  21
ENDBRANCH   6  11
BRANCH   1  29
HETATM   29  S1  UNL     1      -3.900 -11.404  31.519  1.00  0.00     0.265 S 
HETATM   30  O1  UNL     1      -3.785 -12.871  31.171  1.00  0.00    -0.200 OA
HETATM   31  O2  UNL     1      -5.140 -11.197  32.342  1.00  0.00    -0.200 OA
BRANCH  29  32
HETATM   32  N3  UNL     1      -2.537 -10.994  32.489  1.00  0.00    -0.244 N 
HETATM   33  C3  UNL     1      -2.748 -10.609  33.724  1.00  0.00     0.254 A 
HETATM   34  N2  UNL     1      -1.816 -10.250  34.627  1.00  0.00    -0.262 N 
HETATM   35  O3  UNL     1      -3.903 -10.494  34.329  1.00  0.00    -0.264 OA
HETATM   36  N1  UNL     1      -2.430  -9.932  35.745  1.00  0.00    -0.280 N 
ATOM     37  H2  UNL     1      -0.809 -10.229  34.471  1.00  0.00     0.190 HD
HETATM   38  C2  UNL     1      -3.750 -10.084  35.563  1.00  0.00     0.138 A 
ATOM     39  H1  UNL     1      -1.979  -9.621  36.606  1.00  0.00     0.189 HD
HETATM   40  C1  UNL     1      -4.849  -9.850  36.524  1.00  0.00     0.099 C 
ATOM     41  H3  UNL     1      -1.591 -11.049  32.112  1.00  0.00     0.182 HD
ENDBRANCH  29  32
ENDBRANCH   1  29
TORSDOF 4
ENDMDL
MODEL 2
REMARK VINA RESULT: 2.258092715      6.217     11.581
REMARK  4 active torsions:
REMARK  status: ('A' for Active; 'I' for Inactive)
REMARK    1  A    between atoms: N3_8  and  S1_10 
REMARK    2  A    between atoms: S1_10  and  C4_13 
REMARK    3  A    between atoms: C9_18  and  C10_19 
REMARK    4  A    between atoms: C15_26  and  C16_27 
ROOT
HETATM    1  C4  UNL     1      -4.068  -9.992  18.818  1.00  0.00     0.080 A 
HETATM    2  C5  UNL     1      -4.145  -8.624  18.654  1.00  0.00     0.026 A 
HETATM    3  C6  UNL     1      -3.791  -7.758  19.691  1.00  0.00     0.014 A 
HETATM    4  C7  UNL     1      -3.356  -8.260  20.900  1.00  0.00    -0.025 A 
HETATM    5  C8  UNL     1      -3.004  -7.378  21.932  1.00  0.00     0.026 A 
HETATM    6  C9  UNL     1      -2.573  -7.846  23.127  1.00  0.00    -0.007 A 
HETATM    7  C23 UNL     1      -2.488  -9.237  23.311  1.00  0.00     0.014 A 
HETATM    8  C24 UNL     1      -2.838 -10.080  22.294  1.00  0.00     0.013 A 
HETATM    9  C25 UNL     1      -3.276  -9.624  21.073  1.00  0.00    -0.024 A 
HETATM   10  C26 UNL     1      -3.631 -10.470  20.035  1.00  0.00     0.037 A 
ENDROOT
BRANCH   6  11
HETATM   11  C10 UNL     1      -2.095  -7.049  24.259  1.00  0.00     0.066 A 
HETATM   12  C11 UNL     1      -1.385  -5.850  24.144  1.00  0.00     0.120 A 
HETATM   13  N4  UNL     1      -1.140  -5.348  25.346  1.00  0.00    -0.350 N 
HETATM   14  C12 UNL     1      -1.671  -6.184  26.242  1.00  0.00     0.111 A 
ATOM     15  H4  UNL     1      -0.638  -4.483  25.549  1.00  0.00     0.166 HD
HETATM   16  C13 UNL     1      -1.726  -6.144  27.621  1.00  0.00     0.050 A 
HETATM   17  N5  UNL     1      -2.257  -7.223  25.577  1.00  0.00    -0.305 N 
HETATM   18  C14 UNL     1      -2.368  -7.141  28.344  1.00  0.00     0.017 A 
HETATM   19  C15 UNL     1      -2.964  -8.190  27.689  1.00  0.00    -0.007 A 
HETATM   20  C22 UNL     1      -2.885  -8.194  26.298  1.00  0.00     0.111 A 
BRANCH  19  21
HETATM   21  C16 UNL     1      -3.644  -9.242  28.424  1.00  0.00     0.014 A 
HETATM   22  C17 UNL     1      -5.021  -9.138  28.654  1.00  0.00     0.018 A 
HETATM   23  C18 UNL     1      -5.739 -10.090  29.338  1.00  0.00     0.043 A 
HETATM   24  C19 UNL     1      -5.082 -11.204  29.826  1.00  0.00     0.119 A 
HETATM   25  F1  UNL     1      -5.750 -12.169  30.508  1.00  0.00    -0.206 F 
HETATM   26  C20 UNL     1      -3.727 -11.315  29.604  1.00  0.00     0.085 A 
HETATM   27  C21 UNL     1      -3.010 -10.356  28.916  1.00  0.00     0.130 A 
HETATM   28  F2  UNL     1      -1.674 -10.470  28.703  1.00  0.00    -0.205 F 
ENDBRANCH  19  21
ENDBRANCH   6  11
BRANCH   1  29
HETATM   29  S1  UNL     1      -4.515 -11.069  17.513  1.00  0.00     0.265 S 
HETATM   30  O1  UNL     1      -6.018 -11.227  17.469  1.00  0.00    -0.200 OA
HETATM   31  O2  UNL     1      -3.890 -12.423  17.695  1.00  0.00    -0.200 OA
BRANCH  29  32
HETATM   32  N3  UNL     1      -4.016 -10.448  15.985  1.00  0.00    -0.244 N 
HETATM   33  C3  UNL     1      -4.942 -10.130  15.112  1.00  0.00     0.254 A 
HETATM   34  N2  UNL     1      -4.748  -9.635  13.876  1.00  0.00    -0.262 N 
HETATM   35  O3  UNL     1      -6.238 -10.231  15.265  1.00  0.00    -0.264 OA
HETATM   36  N1  UNL     1      -5.924  -9.450  13.319  1.00  0.00    -0.280 N 
ATOM     37  H2  UNL     1      -3.845  -9.437  13.446  1.00  0.00     0.190 HD
HETATM   38  C2  UNL     1      -6.871  -9.825  14.193  1.00  0.00     0.138 A 
ATOM     39  H1  UNL     1      -6.090  -9.083  12.382  1.00  0.00     0.189 HD
HETATM   40  C1  UNL     1      -8.340  -9.805  14.029  1.00  0.00     0.099 C 
ATOM     41  H3  UNL     1      -3.027 -10.331  15.765  1.00  0.00     0.182 HD
ENDBRANCH  29  32
ENDBRANCH   1  29
TORSDOF 4
ENDMDL
MODEL 3
REMARK VINA RESULT: 2.292055969      5.683      9.793
REMARK  4 active torsions:
REMARK  status: ('A' for Active; 'I' for Inactive)
REMARK    1  A    between atoms: N3_8  and  S1_10 
REMARK    2  A    between atoms: S1_10  and  C4_13 
REMARK    3  A    between atoms: C9_18  and  C10_19 
REMARK    4  A    between atoms: C15_26  and  C16_27 
ROOT
HETATM    1  C4  UNL     1      -3.698  -9.763  19.044  1.00  0.00     0.080 A 
HETATM    2  C5  UNL     1      -4.222  -8.488  19.074  1.00  0.00     0.026 A 
HETATM    3  C6  UNL     1      -4.007  -7.650  20.171  1.00  0.00     0.014 A 
HETATM    4  C7  UNL     1      -3.264  -8.090  21.247  1.00  0.00    -0.025 A 
HETATM    5  C8  UNL     1      -3.056  -7.238  22.342  1.00  0.00     0.026 A 
HETATM    6  C9  UNL     1      -2.328  -7.645  23.409  1.00  0.00    -0.007 A 
HETATM    7  C23 UNL     1      -1.787  -8.943  23.395  1.00  0.00     0.014 A 
HETATM    8  C24 UNL     1      -2.002  -9.757  22.319  1.00  0.00     0.013 A 
HETATM    9  C25 UNL     1      -2.736  -9.362  21.227  1.00  0.00    -0.024 A 
HETATM   10  C26 UNL     1      -2.958 -10.180  20.130  1.00  0.00     0.037 A 
ENDROOT
BRANCH   6  11
HETATM   11  C10 UNL     1      -1.962  -6.842  24.577  1.00  0.00     0.066 A 
HETATM   12  C11 UNL     1      -1.298  -5.613  24.520  1.00  0.00     0.120 A 
HETATM   13  N4  UNL     1      -1.156  -5.115  25.740  1.00  0.00    -0.350 N 
HETATM   14  C12 UNL     1      -1.710  -5.983  26.592  1.00  0.00     0.111 A 
ATOM     15  H4  UNL     1      -0.706  -4.232  25.985  1.00  0.00     0.166 HD
HETATM   16  C13 UNL     1      -1.858  -5.962  27.964  1.00  0.00     0.050 A 
HETATM   17  N5  UNL     1      -2.204  -7.038  25.880  1.00  0.00    -0.305 N 
HETATM   18  C14 UNL     1      -2.503  -6.993  28.634  1.00  0.00     0.017 A 
HETATM   19  C15 UNL     1      -3.009  -8.059  27.931  1.00  0.00    -0.007 A 
HETATM   20  C22 UNL     1      -2.837  -8.043  26.548  1.00  0.00     0.111 A 
BRANCH  19  21
HETATM   21  C16 UNL     1      -3.690  -9.147  28.610  1.00  0.00     0.014 A 
HETATM   22  C17 UNL     1      -5.078  -9.085  28.781  1.00  0.00     0.018 A 
HETATM   23  C18 UNL     1      -5.799 -10.073  29.409  1.00  0.00     0.043 A 
HETATM   24  C19 UNL     1      -5.134 -11.181  29.898  1.00  0.00     0.119 A 
HETATM   25  F1  UNL     1      -5.803 -12.181  30.526  1.00  0.00    -0.206 F 
HETATM   26  C20 UNL     1      -3.768 -11.251  29.734  1.00  0.00     0.085 A 
HETATM   27  C21 UNL     1      -3.048 -10.256  29.101  1.00  0.00     0.130 A 
HETATM   28  F2  UNL     1      -1.701 -10.328  28.944  1.00  0.00    -0.205 F 
ENDBRANCH  19  21
ENDBRANCH   6  11
BRANCH   1  29
HETATM   29  S1  UNL     1      -3.973 -10.804  17.664  1.00  0.00     0.265 S 
HETATM   30  O1  UNL     1      -2.880 -10.599  16.640  1.00  0.00    -0.200 OA
HETATM   31  O2  UNL     1      -5.300 -10.509  17.024  1.00  0.00    -0.200 OA
BRANCH  29  32
HETATM   32  N3  UNL     1      -3.953 -12.466  18.117  1.00  0.00    -0.244 N 
HETATM   33  C3  UNL     1      -4.186 -12.771  19.371  1.00  0.00     0.254 A 
HETATM   34  N2  UNL     1      -4.211 -14.004  19.909  1.00  0.00    -0.262 N 
HETATM   35  O3  UNL     1      -4.440 -11.940  20.350  1.00  0.00    -0.264 OA
HETATM   36  N1  UNL     1      -4.479 -13.886  21.191  1.00  0.00    -0.280 N 
ATOM     37  H2  UNL     1      -4.051 -14.878  19.410  1.00  0.00     0.190 HD
HETATM   38  C2  UNL     1      -4.625 -12.583  21.476  1.00  0.00     0.138 A 
ATOM     39  H1  UNL     1      -4.562 -14.654  21.857  1.00  0.00     0.189 HD
HETATM   40  C1  UNL     1      -4.931 -11.949  22.776  1.00  0.00     0.099 C 
ATOM     41  H3  UNL     1      -3.764 -13.194  17.428  1.00  0.00     0.182 HD
ENDBRANCH  29  32
ENDBRANCH   1  29
TORSDOF 4
ENDMDL
MODEL 4
REMARK VINA RESULT: 2.573843630      5.633      9.646
REMARK  4 active torsions:
REMARK  status: ('A' for Active; 'I' for Inactive)
REMARK    1  A    between atoms: N3_8  and  S1_10 
REMARK    2  A    between atoms: S1_10  and  C4_13 
REMARK    3  A    between atoms: C9_18  and  C10_19 
REMARK    4  A    between atoms: C15_26  and  C16_27 
ROOT
HETATM    1  C4  UNL     1      -3.381  -9.967  19.451  1.00  0.00     0.080 A 
HETATM    2  C5  UNL     1      -2.037  -9.736  19.656  1.00  0.00     0.026 A 
HETATM    3  C6  UNL     1      -1.597  -8.997  20.757  1.00  0.00     0.014 A 
HETATM    4  C7  UNL     1      -2.506  -8.486  21.660  1.00  0.00    -0.025 A 
HETATM    5  C8  UNL     1      -2.049  -7.747  22.761  1.00  0.00     0.026 A 
HETATM    6  C9  UNL     1      -2.921  -7.236  23.663  1.00  0.00    -0.007 A 
HETATM    7  C23 UNL     1      -4.296  -7.463  23.469  1.00  0.00     0.014 A 
HETATM    8  C24 UNL     1      -4.719  -8.184  22.389  1.00  0.00     0.013 A 
HETATM    9  C25 UNL     1      -3.850  -8.711  21.464  1.00  0.00    -0.024 A 
HETATM   10  C26 UNL     1      -4.271  -9.446  20.367  1.00  0.00     0.037 A 
ENDROOT
BRANCH   6  11
HETATM   11  C10 UNL     1      -2.587  -6.520  24.896  1.00  0.00     0.066 A 
HETATM   12  C11 UNL     1      -2.064  -5.224  24.946  1.00  0.00     0.120 A 
HETATM   13  N4  UNL     1      -1.917  -4.841  26.206  1.00  0.00    -0.350 N 
HETATM   14  C12 UNL     1      -2.330  -5.848  26.980  1.00  0.00     0.111 A 
ATOM     15  H4  UNL     1      -1.554  -3.942  26.526  1.00  0.00     0.166 HD
HETATM   16  C13 UNL     1      -2.412  -5.984  28.351  1.00  0.00     0.050 A 
HETATM   17  N5  UNL     1      -2.742  -6.875  26.178  1.00  0.00    -0.305 N 
HETATM   18  C14 UNL     1      -2.907  -7.145  28.931  1.00  0.00     0.017 A 
HETATM   19  C15 UNL     1      -3.328  -8.183  28.137  1.00  0.00    -0.007 A 
HETATM   20  C22 UNL     1      -3.228  -8.007  26.759  1.00  0.00     0.111 A 
BRANCH  19  21
HETATM   21  C16 UNL     1      -3.853  -9.406  28.721  1.00  0.00     0.014 A 
HETATM   22  C17 UNL     1      -2.991 -10.489  28.933  1.00  0.00     0.018 A 
HETATM   23  C18 UNL     1      -3.407 -11.678  29.481  1.00  0.00     0.043 A 
HETATM   24  C19 UNL     1      -4.732 -11.823  29.844  1.00  0.00     0.119 A 
HETATM   25  F1  UNL     1      -5.188 -12.980  30.390  1.00  0.00    -0.206 F 
HETATM   26  C20 UNL     1      -5.587 -10.763  29.641  1.00  0.00     0.085 A 
HETATM   27  C21 UNL     1      -5.165  -9.569  29.089  1.00  0.00     0.130 A 
HETATM   28  F2  UNL     1      -6.013  -8.527  28.888  1.00  0.00    -0.205 F 
ENDBRANCH  19  21
ENDBRANCH   6  11
BRANCH   1  29
HETATM   29  S1  UNL     1      -3.922 -10.893  18.068  1.00  0.00     0.265 S 
HETATM   30  O1  UNL     1      -2.898 -10.807  16.959  1.00  0.00    -0.200 OA
HETATM   31  O2  UNL     1      -5.236 -10.376  17.555  1.00  0.00    -0.200 OA
BRANCH  29  32
HETATM   32  N3  UNL     1      -4.118 -12.559  18.463  1.00  0.00    -0.244 N 
HETATM   33  C3  UNL     1      -4.288 -12.881  19.723  1.00  0.00     0.254 A 
HETATM   34  N2  UNL     1      -4.456 -14.120  20.222  1.00  0.00    -0.262 N 
HETATM   35  O3  UNL     1      -4.329 -12.067  20.747  1.00  0.00    -0.264 OA
HETATM   36  N1  UNL     1      -4.593 -14.021  21.526  1.00  0.00    -0.280 N 
ATOM     37  H2  UNL     1      -4.473 -14.985  19.682  1.00  0.00     0.190 HD
HETATM   38  C2  UNL     1      -4.514 -12.726  21.864  1.00  0.00     0.138 A 
ATOM     39  H1  UNL     1      -4.736 -14.798  22.171  1.00  0.00     0.189 HD
HETATM   40  C1  UNL     1      -4.608 -12.113  23.206  1.00  0.00     0.099 C 
ATOM     41  H3  UNL     1      -4.101 -13.275  17.737  1.00  0.00     0.182 HD
ENDBRANCH  29  32
ENDBRANCH   1  29
TORSDOF 4
ENDMDL
MODEL 5
REMARK VINA RESULT: 2.775659107      2.870      3.893
REMARK  4 active torsions:
REMARK  status: ('A' for Active; 'I' for Inactive)
REMARK    1  A    between atoms: N3_8  and  S1_10 
REMARK    2  A    between atoms: S1_10  and  C4_13 
REMARK    3  A    between atoms: C9_18  and  C10_19 
REMARK    4  A    between atoms: C15_26  and  C16_27 
ROOT
HETATM    1  C4  UNL     1      -4.667  -8.096  28.291  1.00  0.00     0.080 A 
HETATM    2  C5  UNL     1      -5.471  -8.755  27.385  1.00  0.00     0.026 A 
HETATM    3  C6  UNL     1      -5.389  -8.474  26.019  1.00  0.00     0.014 A 
HETATM    4  C7  UNL     1      -4.499  -7.528  25.554  1.00  0.00    -0.025 A 
HETATM    5  C8  UNL     1      -4.429  -7.257  24.180  1.00  0.00     0.026 A 
HETATM    6  C9  UNL     1      -3.562  -6.334  23.698  1.00  0.00    -0.007 A 
HETATM    7  C23 UNL     1      -2.735  -5.653  24.609  1.00  0.00     0.014 A 
HETATM    8  C24 UNL     1      -2.821  -5.931  25.944  1.00  0.00     0.013 A 
HETATM    9  C25 UNL     1      -3.693  -6.864  26.451  1.00  0.00    -0.024 A 
HETATM   10  C26 UNL     1      -3.785  -7.155  27.803  1.00  0.00     0.037 A 
ENDROOT
BRANCH   6  11
HETATM   11  C10 UNL     1      -3.322  -6.008  22.292  1.00  0.00     0.066 A 
HETATM   12  C11 UNL     1      -3.001  -4.733  21.815  1.00  0.00     0.120 A 
HETATM   13  N4  UNL     1      -2.797  -4.775  20.506  1.00  0.00    -0.350 N 
HETATM   14  C12 UNL     1      -2.974  -6.039  20.115  1.00  0.00     0.111 A 
ATOM     15  H4  UNL     1      -2.551  -3.986  19.907  1.00  0.00     0.166 HD
HETATM   16  C13 UNL     1      -2.872  -6.646  18.879  1.00  0.00     0.050 A 
HETATM   17  N5  UNL     1      -3.293  -6.794  21.208  1.00  0.00    -0.305 N 
HETATM   18  C14 UNL     1      -3.086  -8.009  18.726  1.00  0.00     0.017 A 
HETATM   19  C15 UNL     1      -3.404  -8.781  19.817  1.00  0.00    -0.007 A 
HETATM   20  C22 UNL     1      -3.498  -8.131  21.046  1.00  0.00     0.111 A 
BRANCH  19  21
HETATM   21  C16 UNL     1      -3.629 -10.209  19.682  1.00  0.00     0.014 A 
HETATM   22  C17 UNL     1      -3.426 -11.042  20.789  1.00  0.00     0.018 A 
HETATM   23  C18 UNL     1      -3.618 -12.403  20.746  1.00  0.00     0.043 A 
HETATM   24  C19 UNL     1      -4.030 -12.985  19.563  1.00  0.00     0.119 A 
HETATM   25  F1  UNL     1      -4.233 -14.325  19.473  1.00  0.00    -0.206 F 
HETATM   26  C20 UNL     1      -4.233 -12.173  18.469  1.00  0.00     0.085 A 
HETATM   27  C21 UNL     1      -4.039 -10.807  18.516  1.00  0.00     0.130 A 
HETATM   28  F2  UNL     1      -4.239 -10.011  17.434  1.00  0.00    -0.205 F 
ENDBRANCH  19  21
ENDBRANCH   6  11
BRANCH   1  29
HETATM   29  S1  UNL     1      -4.776  -8.454  30.000  1.00  0.00     0.265 S 
HETATM   30  O1  UNL     1      -6.215  -8.358  30.454  1.00  0.00    -0.200 OA
HETATM   31  O2  UNL     1      -3.948  -7.494  30.806  1.00  0.00    -0.200 OA
BRANCH  29  32
HETATM   32  N3  UNL     1      -4.232 -10.052  30.344  1.00  0.00    -0.244 N 
HETATM   33  C3  UNL     1      -3.273 -10.554  29.604  1.00  0.00     0.254 A 
HETATM   34  N2  UNL     1      -2.720 -11.775  29.719  1.00  0.00    -0.262 N 
HETATM   35  O3  UNL     1      -2.660  -9.970  28.605  1.00  0.00    -0.264 OA
HETATM   36  N1  UNL     1      -1.794 -11.896  28.793  1.00  0.00    -0.280 N 
ATOM     37  H2  UNL     1      -2.976 -12.485  30.405  1.00  0.00     0.190 HD
HETATM   38  C2  UNL     1      -1.752 -10.757  28.086  1.00  0.00     0.138 A 
ATOM     39  H1  UNL     1      -1.208 -12.716  28.639  1.00  0.00     0.189 HD
HETATM   40  C1  UNL     1      -0.878 -10.410  26.944  1.00  0.00     0.099 C 
ATOM     41  H3  UNL     1      -4.645 -10.595  31.103  1.00  0.00     0.182 HD
ENDBRANCH  29  32
ENDBRANCH   1  29
TORSDOF 4
ENDMDL
