MODEL 1
REMARK VINA RESULT: -7.134316949      0.000      0.000
REMARK  1 active torsions:
REMARK  status: ('A' for Active; 'I' for Inactive)
REMARK    1  A    between atoms: N2_4  and  N3_6 
ROOT
HETATM    1  N3  UNL     1      16.169  17.999  10.187  1.00  0.00    -0.295 N 
ATOM      2  H3  UNL     1      15.795  17.388   9.461  1.00  0.00     0.187 HD
HETATM    3  C1  UNL     1      15.373  18.369  11.093  1.00  0.00     0.010 C 
HETATM    4  C2  UNL     1      13.958  18.019  11.222  1.00  0.00     0.060 C 
HETATM    5  C3  UNL     1      13.872  17.717  12.727  1.00  0.00     0.058 C 
HETATM    6  C4  UNL     1      14.874  18.646  13.312  1.00  0.00    -0.015 C 
HETATM    7  N4  UNL     1      15.009  18.895  14.552  1.00  0.00    -0.405 N 
ATOM      8  H41 UNL     1      15.697  19.532  14.954  1.00  0.00     0.155 HD
ATOM      9  H42 UNL     1      14.445  18.485  15.297  1.00  0.00     0.155 HD
HETATM   10  C5  UNL     1      15.697  19.242  12.225  1.00  0.00     0.106 C 
ENDROOT
BRANCH   1  11
HETATM   11  N2  UNL     1      17.502  18.346  10.092  1.00  0.00    -0.249 N 
HETATM   12  N1  UNL     1      17.940  18.776   8.974  1.00  0.00    -0.331 N 
ATOM     13  H12 UNL     1      17.307  18.856   8.178  1.00  0.00     0.178 HD
ATOM     14  H11 UNL     1      18.925  19.032   8.903  1.00  0.00     0.178 HD
ATOM     15  H2  UNL     1      18.123  18.260  10.896  1.00  0.00     0.207 HD
ENDBRANCH   1  11
TORSDOF 1
ENDMDL
MODEL 2
REMARK VINA RESULT: -6.550627342      1.465      1.772
REMARK  1 active torsions:
REMARK  status: ('A' for Active; 'I' for Inactive)
REMARK    1  A    between atoms: N2_4  and  N3_6 
ROOT
HETATM    1  N3  UNL     1      16.559  19.293  10.644  1.00  0.00    -0.295 N 
ATOM      2  H3  UNL     1      16.746  20.262  10.384  1.00  0.00     0.187 HD
HETATM    3  C1  UNL     1      15.734  19.099  11.579  1.00  0.00     0.010 C 
HETATM    4  C2  UNL     1      15.006  20.116  12.339  1.00  0.00     0.060 C 
HETATM    5  C3  UNL     1      13.601  19.494  12.381  1.00  0.00     0.058 C 
HETATM    6  C4  UNL     1      13.883  18.035  12.408  1.00  0.00    -0.015 C 
HETATM    7  N4  UNL     1      13.026  17.126  12.649  1.00  0.00    -0.405 N 
ATOM      8  H41 UNL     1      13.219  16.124  12.667  1.00  0.00     0.155 HD
ATOM      9  H42 UNL     1      12.039  17.289  12.852  1.00  0.00     0.155 HD
HETATM   10  C5  UNL     1      15.321  17.798  12.111  1.00  0.00     0.106 C 
ENDROOT
BRANCH   1  11
HETATM   11  N2  UNL     1      17.232  18.312   9.943  1.00  0.00    -0.249 N 
HETATM   12  N1  UNL     1      17.878  18.646   8.896  1.00  0.00    -0.331 N 
ATOM     13  H12 UNL     1      17.887  19.621   8.596  1.00  0.00     0.178 HD
ATOM     14  H11 UNL     1      18.374  17.921   8.378  1.00  0.00     0.178 HD
ATOM     15  H2  UNL     1      17.212  17.341  10.256  1.00  0.00     0.207 HD
ENDBRANCH   1  11
TORSDOF 1
ENDMDL
MODEL 3
REMARK VINA RESULT: -6.478272315      1.372      1.838
REMARK  1 active torsions:
REMARK  status: ('A' for Active; 'I' for Inactive)
REMARK    1  A    between atoms: N2_4  and  N3_6 
ROOT
HETATM    1  N3  UNL     1      17.052  18.495  11.018  1.00  0.00    -0.295 N 
ATOM      2  H3  UNL     1      17.974  18.465  11.454  1.00  0.00     0.187 HD
HETATM    3  C1  UNL     1      16.052  18.429  11.784  1.00  0.00     0.010 C 
HETATM    4  C2  UNL     1      16.063  18.314  13.243  1.00  0.00     0.060 C 
HETATM    5  C3  UNL     1      14.967  19.323  13.620  1.00  0.00     0.058 C 
HETATM    6  C4  UNL     1      14.021  19.232  12.477  1.00  0.00    -0.015 C 
HETATM    7  N4  UNL     1      12.856  19.741  12.446  1.00  0.00    -0.405 N 
ATOM      8  H41 UNL     1      12.207  19.678  11.661  1.00  0.00     0.155 HD
ATOM      9  H42 UNL     1      12.428  20.275  13.202  1.00  0.00     0.155 HD
HETATM   10  C5  UNL     1      14.645  18.454  11.374  1.00  0.00     0.106 C 
ENDROOT
BRANCH   1  11
HETATM   11  N2  UNL     1      17.011  18.604   9.642  1.00  0.00    -0.249 N 
HETATM   12  N1  UNL     1      18.112  18.690   9.005  1.00  0.00    -0.331 N 
ATOM     13  H12 UNL     1      18.995  18.678   9.515  1.00  0.00     0.178 HD
ATOM     14  H11 UNL     1      18.081  18.771   7.989  1.00  0.00     0.178 HD
ATOM     15  H2  UNL     1      16.120  18.615   9.147  1.00  0.00     0.207 HD
ENDBRANCH   1  11
TORSDOF 1
ENDMDL
MODEL 4
REMARK VINA RESULT: -6.448757428      1.773      3.813
REMARK  1 active torsions:
REMARK  status: ('A' for Active; 'I' for Inactive)
REMARK    1  A    between atoms: N2_4  and  N3_6 
ROOT
HETATM    1  N3  UNL     1      13.654  19.446  12.541  1.00  0.00    -0.295 N 
ATOM      2  H3  UNL     1      12.769  18.984  12.752  1.00  0.00     0.187 HD
HETATM    3  C1  UNL     1      14.620  18.710  12.202  1.00  0.00     0.010 C 
HETATM    4  C2  UNL     1      14.617  17.252  12.075  1.00  0.00     0.060 C 
HETATM    5  C3  UNL     1      15.385  17.075  10.756  1.00  0.00     0.058 C 
HETATM    6  C4  UNL     1      16.337  18.216  10.768  1.00  0.00    -0.015 C 
HETATM    7  N4  UNL     1      17.317  18.363   9.970  1.00  0.00    -0.405 N 
ATOM      8  H41 UNL     1      17.971  19.146   9.978  1.00  0.00     0.155 HD
ATOM      9  H42 UNL     1      17.567  17.716   9.222  1.00  0.00     0.155 HD
HETATM   10  C5  UNL     1      15.972  19.160  11.858  1.00  0.00     0.106 C 
ENDROOT
BRANCH   1  11
HETATM   11  N2  UNL     1      13.687  20.822  12.651  1.00  0.00    -0.249 N 
HETATM   12  N1  UNL     1      14.125  21.336  13.733  1.00  0.00    -0.331 N 
ATOM     13  H12 UNL     1      14.440  20.730  14.490  1.00  0.00     0.178 HD
ATOM     14  H11 UNL     1      14.148  22.352  13.815  1.00  0.00     0.178 HD
ATOM     15  H2  UNL     1      13.367  21.415  11.885  1.00  0.00     0.207 HD
ENDBRANCH   1  11
TORSDOF 1
ENDMDL
MODEL 5
REMARK VINA RESULT: -5.957300615      1.537      2.058
REMARK  1 active torsions:
REMARK  status: ('A' for Active; 'I' for Inactive)
REMARK    1  A    between atoms: N2_4  and  N3_6 
ROOT
HETATM    1  N3  UNL     1      17.320  18.804  10.431  1.00  0.00    -0.295 N 
ATOM      2  H3  UNL     1      18.009  19.464  10.793  1.00  0.00     0.187 HD
HETATM    3  C1  UNL     1      16.401  18.445  11.217  1.00  0.00     0.010 C 
HETATM    4  C2  UNL     1      16.206  18.872  12.602  1.00  0.00     0.060 C 
HETATM    5  C3  UNL     1      14.689  19.119  12.618  1.00  0.00     0.058 C 
HETATM    6  C4  UNL     1      14.177  18.110  11.654  1.00  0.00    -0.015 C 
HETATM    7  N4  UNL     1      12.952  17.805  11.492  1.00  0.00    -0.405 N 
ATOM      8  H41 UNL     1      12.601  17.112  10.830  1.00  0.00     0.155 HD
ATOM      9  H42 UNL     1      12.172  18.216  12.004  1.00  0.00     0.155 HD
HETATM   10  C5  UNL     1      15.314  17.511  10.907  1.00  0.00     0.106 C 
ENDROOT
BRANCH   1  11
HETATM   11  N2  UNL     1      17.478  18.383   9.126  1.00  0.00    -0.249 N 
HETATM   12  N1  UNL     1      18.528  18.738   8.494  1.00  0.00    -0.331 N 
ATOM     13  H12 UNL     1      19.225  19.320   8.958  1.00  0.00     0.178 HD
ATOM     14  H11 UNL     1      18.644  18.428   7.530  1.00  0.00     0.178 HD
ATOM     15  H2  UNL     1      16.771  17.802   8.676  1.00  0.00     0.207 HD
ENDBRANCH   1  11
TORSDOF 1
ENDMDL
