MODEL 1
REMARK VINA RESULT: -8.327665012      0.000      0.000
REMARK  5 active torsions:
REMARK  status: ('A' for Active; 'I' for Inactive)
REMARK    1  A    between atoms: C2_3  and  C3_4 
REMARK    2  A    between atoms: C3_4  and  N2_5 
REMARK       I    between atoms: N2_5  and  C4_7 
REMARK       I    between atoms: C4_7  and  N4_11 
REMARK    3  A    between atoms: N4_11  and  C5_13 
REMARK    4  A    between atoms: C5_13  and  C7_16 
REMARK    5  A    between atoms: C7_16  and  C8_17 
ROOT
HETATM    1  N1  UNL     1       6.361 -16.471  22.290  1.00  0.00    -0.197 NA
HETATM    2  C1  UNL     1       7.304 -16.477  22.985  1.00  0.00     0.060 C 
HETATM    3  C2  UNL     1       8.492 -16.477  23.842  1.00  0.00     0.144 C 
ENDROOT
BRANCH   3   4
HETATM    4  C3  UNL     1       8.223 -15.512  24.999  1.00  0.00     0.152 C 
BRANCH   4   5
HETATM    5  N2  UNL     1       9.464 -14.953  25.440  1.00  0.00    -0.226 N 
HETATM    6  C4  UNL     1      10.163 -14.003  24.652  1.00  0.00     0.668 C 
HETATM    7  N3  UNL     1      11.436 -13.906  24.673  1.00  0.00    -0.235 N 
HETATM    8  N4  UNL     1       9.445 -13.096  23.786  1.00  0.00    -0.209 N 
ATOM      9  H32 UNL     1      11.943 -14.546  25.284  1.00  0.00     0.174 HD
ATOM     10  H31 UNL     1      11.939 -13.222  24.106  1.00  0.00     0.174 HD
ATOM     11  H4  UNL     1       8.608 -13.414  23.298  1.00  0.00     0.179 HD
ATOM     12  H2  UNL     1       9.854 -15.244  26.336  1.00  0.00     0.177 HD
BRANCH   8  13
HETATM   13  C5  UNL     1       9.910 -11.750  23.612  1.00  0.00     0.211 C 
HETATM   14  C6  UNL     1       8.845 -10.791  23.935  1.00  0.00     0.085 C 
HETATM   15  N5  UNL     1       8.008 -10.027  24.210  1.00  0.00    -0.195 NA
BRANCH  13  16
HETATM   16  C7  UNL     1      10.326 -11.576  22.163  1.00  0.00     0.079 C 
BRANCH  16  17
HETATM   17  C8  UNL     1      11.755 -11.931  21.970  1.00  0.00    -0.055 A 
HETATM   18  C9  UNL     1      12.124 -13.091  21.324  1.00  0.00     0.007 A 
HETATM   19  C10 UNL     1      13.489 -13.360  21.177  1.00  0.00     0.001 A 
HETATM   20  C11 UNL     1      14.433 -12.482  21.670  1.00  0.00     0.000 A 
HETATM   21  C12 UNL     1      14.076 -11.317  22.319  1.00  0.00     0.001 A 
HETATM   22  C13 UNL     1      12.710 -11.066  22.455  1.00  0.00     0.007 A 
ENDBRANCH  16  17
ENDBRANCH  13  16
ENDBRANCH   8  13
ENDBRANCH   4   5
ENDBRANCH   3   4
TORSDOF 5
ENDMDL
MODEL 2
REMARK VINA RESULT: -8.300316268      0.050      1.134
REMARK  5 active torsions:
REMARK  status: ('A' for Active; 'I' for Inactive)
REMARK    1  A    between atoms: C2_3  and  C3_4 
REMARK    2  A    between atoms: C3_4  and  N2_5 
REMARK       I    between atoms: N2_5  and  C4_7 
REMARK       I    between atoms: C4_7  and  N4_11 
REMARK    3  A    between atoms: N4_11  and  C5_13 
REMARK    4  A    between atoms: C5_13  and  C7_16 
REMARK    5  A    between atoms: C7_16  and  C8_17 
ROOT
HETATM    1  N1  UNL     1       6.374 -16.468  22.293  1.00  0.00    -0.197 NA
HETATM    2  C1  UNL     1       7.317 -16.469  22.987  1.00  0.00     0.060 C 
HETATM    3  C2  UNL     1       8.506 -16.461  23.845  1.00  0.00     0.144 C 
ENDROOT
BRANCH   3   4
HETATM    4  C3  UNL     1       8.225 -15.508  25.010  1.00  0.00     0.152 C 
BRANCH   4   5
HETATM    5  N2  UNL     1       9.459 -14.939  25.455  1.00  0.00    -0.226 N 
HETATM    6  C4  UNL     1      10.152 -13.981  24.670  1.00  0.00     0.668 C 
HETATM    7  N3  UNL     1      11.424 -13.872  24.696  1.00  0.00    -0.235 N 
HETATM    8  N4  UNL     1       9.429 -13.080  23.803  1.00  0.00    -0.209 N 
ATOM      9  H32 UNL     1      11.934 -14.508  25.308  1.00  0.00     0.174 HD
ATOM     10  H31 UNL     1      11.922 -13.183  24.132  1.00  0.00     0.174 HD
ATOM     11  H4  UNL     1       8.596 -13.405  23.312  1.00  0.00     0.179 HD
ATOM     12  H2  UNL     1       9.849 -15.226  26.352  1.00  0.00     0.177 HD
BRANCH   8  13
HETATM   13  C5  UNL     1       9.882 -11.729  23.632  1.00  0.00     0.211 C 
HETATM   14  C6  UNL     1       8.805 -10.781  23.946  1.00  0.00     0.085 C 
HETATM   15  N5  UNL     1       7.959 -10.025  24.214  1.00  0.00    -0.195 NA
BRANCH  13  16
HETATM   16  C7  UNL     1      10.307 -11.552  22.186  1.00  0.00     0.079 C 
BRANCH  16  17
HETATM   17  C8  UNL     1      11.752 -11.850  22.013  1.00  0.00    -0.055 A 
HETATM   18  C9  UNL     1      12.721 -10.983  22.473  1.00  0.00     0.007 A 
HETATM   19  C10 UNL     1      14.063 -11.330  22.276  1.00  0.00     0.001 A 
HETATM   20  C11 UNL     1      14.396 -12.506  21.638  1.00  0.00     0.000 A 
HETATM   21  C12 UNL     1      13.435 -13.381  21.173  1.00  0.00     0.001 A 
HETATM   22  C13 UNL     1      12.103 -13.020  21.379  1.00  0.00     0.007 A 
ENDBRANCH  16  17
ENDBRANCH  13  16
ENDBRANCH   8  13
ENDBRANCH   4   5
ENDBRANCH   3   4
TORSDOF 5
ENDMDL
MODEL 3
REMARK VINA RESULT: -7.039117488      1.759      2.613
REMARK  5 active torsions:
REMARK  status: ('A' for Active; 'I' for Inactive)
REMARK    1  A    between atoms: C2_3  and  C3_4 
REMARK    2  A    between atoms: C3_4  and  N2_5 
REMARK       I    between atoms: N2_5  and  C4_7 
REMARK       I    between atoms: C4_7  and  N4_11 
REMARK    3  A    between atoms: N4_11  and  C5_13 
REMARK    4  A    between atoms: C5_13  and  C7_16 
REMARK    5  A    between atoms: C7_16  and  C8_17 
ROOT
HETATM    1  N1  UNL     1       4.237 -16.126  20.958  1.00  0.00    -0.197 NA
HETATM    2  C1  UNL     1       4.716 -16.465  21.971  1.00  0.00     0.060 C 
HETATM    3  C2  UNL     1       5.315 -16.905  23.234  1.00  0.00     0.144 C 
ENDROOT
BRANCH   3   4
HETATM    4  C3  UNL     1       6.818 -16.629  23.150  1.00  0.00     0.152 C 
BRANCH   4   5
HETATM    5  N2  UNL     1       7.281 -16.178  24.427  1.00  0.00    -0.226 N 
HETATM    6  C4  UNL     1       8.654 -15.908  24.657  1.00  0.00     0.668 C 
HETATM    7  N3  UNL     1       9.195 -16.063  25.804  1.00  0.00    -0.235 N 
HETATM    8  N4  UNL     1       9.502 -15.440  23.585  1.00  0.00    -0.209 N 
ATOM      9  H32 UNL     1       8.597 -16.394  26.561  1.00  0.00     0.174 HD
ATOM     10  H31 UNL     1      10.183 -15.869  25.970  1.00  0.00     0.174 HD
ATOM     11  H4  UNL     1       9.363 -15.790  22.638  1.00  0.00     0.179 HD
ATOM     12  H2  UNL     1       6.612 -16.048  25.185  1.00  0.00     0.177 HD
BRANCH   8  13
HETATM   13  C5  UNL     1      10.537 -14.483  23.853  1.00  0.00     0.211 C 
HETATM   14  C6  UNL     1       9.985 -13.121  23.880  1.00  0.00     0.085 C 
HETATM   15  N5  UNL     1       9.549 -12.041  23.923  1.00  0.00    -0.195 NA
BRANCH  13  16
HETATM   16  C7  UNL     1      11.574 -14.588  22.751  1.00  0.00     0.079 C 
BRANCH  16  17
HETATM   17  C8  UNL     1      12.637 -13.563  22.917  1.00  0.00    -0.055 A 
HETATM   18  C9  UNL     1      13.449 -13.548  24.031  1.00  0.00     0.007 A 
HETATM   19  C10 UNL     1      14.430 -12.554  24.120  1.00  0.00     0.001 A 
HETATM   20  C11 UNL     1      14.573 -11.620  23.115  1.00  0.00     0.000 A 
HETATM   21  C12 UNL     1      13.767 -11.625  21.994  1.00  0.00     0.001 A 
HETATM   22  C13 UNL     1      12.795 -12.623  21.923  1.00  0.00     0.007 A 
ENDBRANCH  16  17
ENDBRANCH  13  16
ENDBRANCH   8  13
ENDBRANCH   4   5
ENDBRANCH   3   4
TORSDOF 5
ENDMDL
MODEL 4
REMARK VINA RESULT: -6.993785641      1.697      2.457
REMARK  5 active torsions:
REMARK  status: ('A' for Active; 'I' for Inactive)
REMARK    1  A    between atoms: C2_3  and  C3_4 
REMARK    2  A    between atoms: C3_4  and  N2_5 
REMARK       I    between atoms: N2_5  and  C4_7 
REMARK       I    between atoms: C4_7  and  N4_11 
REMARK    3  A    between atoms: N4_11  and  C5_13 
REMARK    4  A    between atoms: C5_13  and  C7_16 
REMARK    5  A    between atoms: C7_16  and  C8_17 
ROOT
HETATM    1  N1  UNL     1       4.528 -16.108  21.007  1.00  0.00    -0.197 NA
HETATM    2  C1  UNL     1       4.945 -16.431  22.054  1.00  0.00     0.060 C 
HETATM    3  C2  UNL     1       5.463 -16.850  23.359  1.00  0.00     0.144 C 
ENDROOT
BRANCH   3   4
HETATM    4  C3  UNL     1       6.985 -16.696  23.319  1.00  0.00     0.152 C 
BRANCH   4   5
HETATM    5  N2  UNL     1       7.429 -16.131  24.556  1.00  0.00    -0.226 N 
HETATM    6  C4  UNL     1       8.785 -15.762  24.752  1.00  0.00     0.668 C 
HETATM    7  N3  UNL     1       9.343 -15.805  25.900  1.00  0.00    -0.235 N 
HETATM    8  N4  UNL     1       9.593 -15.317  23.641  1.00  0.00    -0.209 N 
ATOM      9  H32 UNL     1       8.772 -16.120  26.684  1.00  0.00     0.174 HD
ATOM     10  H31 UNL     1      10.318 -15.540  26.041  1.00  0.00     0.174 HD
ATOM     11  H4  UNL     1       9.470 -15.739  22.720  1.00  0.00     0.179 HD
ATOM     12  H2  UNL     1       6.759 -15.992  25.312  1.00  0.00     0.177 HD
BRANCH   8  13
HETATM   13  C5  UNL     1      10.569 -14.282  23.831  1.00  0.00     0.211 C 
HETATM   14  C6  UNL     1       9.928 -12.960  23.813  1.00  0.00     0.085 C 
HETATM   15  N5  UNL     1       9.421 -11.910  23.820  1.00  0.00    -0.195 NA
BRANCH  13  16
HETATM   16  C7  UNL     1      11.579 -14.371  22.702  1.00  0.00     0.079 C 
BRANCH  16  17
HETATM   17  C8  UNL     1      12.657 -13.362  22.868  1.00  0.00    -0.055 A 
HETATM   18  C9  UNL     1      12.784 -12.301  21.997  1.00  0.00     0.007 A 
HETATM   19  C10 UNL     1      13.823 -11.389  22.215  1.00  0.00     0.001 A 
HETATM   20  C11 UNL     1      14.690 -11.555  23.275  1.00  0.00     0.000 A 
HETATM   21  C12 UNL     1      14.572 -12.613  24.154  1.00  0.00     0.001 A 
HETATM   22  C13 UNL     1      13.531 -13.512  23.921  1.00  0.00     0.007 A 
ENDBRANCH  16  17
ENDBRANCH  13  16
ENDBRANCH   8  13
ENDBRANCH   4   5
ENDBRANCH   3   4
TORSDOF 5
ENDMDL
MODEL 5
REMARK VINA RESULT: -6.591220630      1.959      4.879
REMARK  5 active torsions:
REMARK  status: ('A' for Active; 'I' for Inactive)
REMARK    1  A    between atoms: C2_3  and  C3_4 
REMARK    2  A    between atoms: C3_4  and  N2_5 
REMARK       I    between atoms: N2_5  and  C4_7 
REMARK       I    between atoms: C4_7  and  N4_11 
REMARK    3  A    between atoms: N4_11  and  C5_13 
REMARK    4  A    between atoms: C5_13  and  C7_16 
REMARK    5  A    between atoms: C7_16  and  C8_17 
ROOT
HETATM    1  N1  UNL     1       6.659  -7.463  26.742  1.00  0.00    -0.197 NA
HETATM    2  C1  UNL     1       6.918  -7.867  25.674  1.00  0.00     0.060 C 
HETATM    3  C2  UNL     1       7.253  -8.362  24.335  1.00  0.00     0.144 C 
ENDROOT
BRANCH   3   4
HETATM    4  C3  UNL     1       8.108  -9.619  24.511  1.00  0.00     0.152 C 
BRANCH   4   5
HETATM    5  N2  UNL     1       8.476 -10.117  23.221  1.00  0.00    -0.226 N 
HETATM    6  C4  UNL     1       9.441 -11.147  23.079  1.00  0.00     0.668 C 
HETATM    7  N3  UNL     1      10.197 -11.234  22.053  1.00  0.00    -0.235 N 
HETATM    8  N4  UNL     1       9.603 -12.150  24.105  1.00  0.00    -0.209 N 
ATOM      9  H32 UNL     1      10.082 -10.525  21.328  1.00  0.00     0.174 HD
ATOM     10  H31 UNL     1      10.891 -11.974  21.950  1.00  0.00     0.174 HD
ATOM     11  H4  UNL     1       9.500 -11.894  25.087  1.00  0.00     0.179 HD
ATOM     12  H2  UNL     1       8.036  -9.725  22.389  1.00  0.00     0.177 HD
BRANCH   8  13
HETATM   13  C5  UNL     1       9.908 -13.505  23.745  1.00  0.00     0.211 C 
HETATM   14  C6  UNL     1       8.898 -14.423  24.287  1.00  0.00     0.085 C 
HETATM   15  N5  UNL     1       8.088 -15.153  24.699  1.00  0.00    -0.195 NA
BRANCH  13  16
HETATM   16  C7  UNL     1      11.269 -13.852  24.319  1.00  0.00     0.079 C 
BRANCH  16  17
HETATM   17  C8  UNL     1      12.362 -13.336  23.455  1.00  0.00    -0.055 A 
HETATM   18  C9  UNL     1      13.263 -12.402  23.921  1.00  0.00     0.007 A 
HETATM   19  C10 UNL     1      14.267 -11.963  23.051  1.00  0.00     0.001 A 
HETATM   20  C11 UNL     1      14.346 -12.456  21.765  1.00  0.00     0.000 A 
HETATM   21  C12 UNL     1      13.451 -13.392  21.288  1.00  0.00     0.001 A 
HETATM   22  C13 UNL     1      12.456 -13.819  22.169  1.00  0.00     0.007 A 
ENDBRANCH  16  17
ENDBRANCH  13  16
ENDBRANCH   8  13
ENDBRANCH   4   5
ENDBRANCH   3   4
TORSDOF 5
ENDMDL
