MODEL 1
REMARK VINA RESULT: -9.195195255      0.000      0.000
REMARK  10 active torsions:
REMARK  status: ('A' for Active; 'I' for Inactive)
REMARK       I    between atoms: N1_2  and  C2_4 
REMARK    1  A    between atoms: C2_4  and  C3_6 
REMARK    2  A    between atoms: C3_6  and  O2_7 
REMARK    3  A    between atoms: O2_7  and  C4_8 
REMARK    4  A    between atoms: C4_8  and  C5_10 
REMARK    5  A    between atoms: C5_10  and  C6_11 
REMARK    6  A    between atoms: C6_11  and  C7_12 
REMARK    7  A    between atoms: C20_25  and  O4_26 
REMARK    8  A    between atoms: C21_28  and  C22_29 
REMARK    9  A    between atoms: N2_30  and  N3_32 
REMARK   10  A    between atoms: N3_32  and  C23_34 
ROOT
HETATM    1  C7  UNL     1      15.415  17.983  32.608  1.00  0.00    -0.002 C 
HETATM    2  C8  UNL     1      14.425  18.095  33.757  1.00  0.00     0.024 C 
HETATM    3  C9  UNL     1      16.714  18.544  32.951  1.00  0.00    -0.013 C 
HETATM    4  C10 UNL     1      17.967  17.774  33.087  1.00  0.00     0.001 C 
HETATM    5  C11 UNL     1      18.399  16.656  32.267  1.00  0.00    -0.061 C 
HETATM    6  C12 UNL     1      17.837  16.902  30.834  1.00  0.00    -0.016 C 
HETATM    7  C13 UNL     1      18.725  16.118  29.867  1.00  0.00     0.020 C 
HETATM    8  C14 UNL     1      18.063  18.305  30.395  1.00  0.00     0.020 C 
HETATM    9  C15 UNL     1      16.487  16.340  31.025  1.00  0.00     0.027 C 
HETATM   10  C16 UNL     1      16.634  14.812  30.843  1.00  0.00     0.011 C 
HETATM   11  C17 UNL     1      17.778  14.271  31.594  1.00  0.00     0.017 C 
HETATM   12  C18 UNL     1      18.390  15.232  32.627  1.00  0.00     0.007 C 
HETATM   13  C19 UNL     1      19.848  14.714  32.768  1.00  0.00     0.023 C 
HETATM   14  C20 UNL     1      17.757  14.754  33.907  1.00  0.00     0.143 C 
HETATM   15  C21 UNL     1      16.263  14.559  33.831  1.00  0.00     0.078 C 
HETATM   16  C24 UNL     1      15.677  15.852  33.466  1.00  0.00    -0.010 C 
HETATM   17  C25 UNL     1      15.650  16.515  32.191  1.00  0.00    -0.066 C 
ENDROOT
BRANCH   1  18
HETATM   18  C6  UNL     1      14.595  18.595  31.499  1.00  0.00     0.027 C 
BRANCH  18  19
HETATM   19  C5  UNL     1      14.975  19.955  31.061  1.00  0.00     0.112 C 
BRANCH  19  20
HETATM   20  C4  UNL     1      13.881  20.916  31.371  1.00  0.00     0.259 C 
HETATM   21  O3  UNL     1      12.770  20.451  31.719  1.00  0.00    -0.265 OA
BRANCH  20  22
HETATM   22  O2  UNL     1      14.026  22.279  31.298  1.00  0.00    -0.312 OA
BRANCH  22  23
HETATM   23  C3  UNL     1      15.114  22.931  30.678  1.00  0.00     0.281 C 
BRANCH  23  24
HETATM   24  C2  UNL     1      14.733  23.234  29.276  1.00  0.00     0.241 C 
HETATM   25  N1  UNL     1      15.687  23.711  28.336  1.00  0.00    -0.364 N 
HETATM   26  C1  UNL     1      15.357  24.014  26.978  1.00  0.00     0.149 C 
ATOM     27  H1  UNL     1      16.650  23.842  28.644  1.00  0.00     0.161 HD
HETATM   28  O1  UNL     1      13.551  23.082  28.874  1.00  0.00    -0.271 OA
ENDBRANCH  23  24
ENDBRANCH  22  23
ENDBRANCH  20  22
ENDBRANCH  19  20
ENDBRANCH  18  19
ENDBRANCH   1  18
BRANCH  15  29
HETATM   29  C22 UNL     1      15.831  14.288  35.266  1.00  0.00     0.091 C 
HETATM   30  N2  UNL     1      15.050  15.000  35.939  1.00  0.00    -0.313 N 
ATOM     31  H2  UNL     1      14.647  15.843  35.529  1.00  0.00     0.185 HD
BRANCH  30  32
HETATM   32  N3  UNL     1      14.732  14.640  37.250  1.00  0.00    -0.279 N 
ATOM     33  H3  UNL     1      15.402  14.839  37.993  1.00  0.00     0.189 HD
BRANCH  32  34
HETATM   34  C23 UNL     1      13.508  14.005  37.583  1.00  0.00     0.199 C 
HETATM   35  N4  UNL     1      12.456  13.816  36.645  1.00  0.00    -0.068 NA
HETATM   36  S1  UNL     1      13.264  13.460  39.098  1.00  0.00    -0.043 SA
ENDBRANCH  32  34
ENDBRANCH  30  32
ENDBRANCH  15  29
BRANCH  14  37
HETATM   37  O4  UNL     1      18.253  15.244  35.065  1.00  0.00    -0.393 OA
ATOM     38  H4  UNL     1      17.682  15.231  35.824  1.00  0.00     0.210 HD
ENDBRANCH  14  37
TORSDOF 10
ENDMDL
MODEL 2
REMARK VINA RESULT: -9.076644784      2.765      3.953
REMARK  10 active torsions:
REMARK  status: ('A' for Active; 'I' for Inactive)
REMARK       I    between atoms: N1_2  and  C2_4 
REMARK    1  A    between atoms: C2_4  and  C3_6 
REMARK    2  A    between atoms: C3_6  and  O2_7 
REMARK    3  A    between atoms: O2_7  and  C4_8 
REMARK    4  A    between atoms: C4_8  and  C5_10 
REMARK    5  A    between atoms: C5_10  and  C6_11 
REMARK    6  A    between atoms: C6_11  and  C7_12 
REMARK    7  A    between atoms: C20_25  and  O4_26 
REMARK    8  A    between atoms: C21_28  and  C22_29 
REMARK    9  A    between atoms: N2_30  and  N3_32 
REMARK   10  A    between atoms: N3_32  and  C23_34 
ROOT
HETATM    1  C7  UNL     1      17.319  18.854  31.932  1.00  0.00    -0.002 C 
HETATM    2  C8  UNL     1      18.493  18.705  32.887  1.00  0.00     0.024 C 
HETATM    3  C9  UNL     1      17.699  18.577  30.554  1.00  0.00    -0.013 C 
HETATM    4  C10 UNL     1      17.214  17.439  29.747  1.00  0.00     0.001 C 
HETATM    5  C11 UNL     1      15.874  16.879  29.742  1.00  0.00    -0.061 C 
HETATM    6  C12 UNL     1      14.890  18.056  30.022  1.00  0.00    -0.016 C 
HETATM    7  C13 UNL     1      13.533  17.647  29.453  1.00  0.00     0.020 C 
HETATM    8  C14 UNL     1      15.224  19.250  29.200  1.00  0.00     0.020 C 
HETATM    9  C15 UNL     1      14.966  18.064  31.495  1.00  0.00     0.027 C 
HETATM   10  C16 UNL     1      13.989  16.967  31.975  1.00  0.00     0.011 C 
HETATM   11  C17 UNL     1      14.156  15.709  31.228  1.00  0.00     0.017 C 
HETATM   12  C18 UNL     1      15.430  15.628  30.369  1.00  0.00     0.007 C 
HETATM   13  C19 UNL     1      15.049  14.595  29.273  1.00  0.00     0.023 C 
HETATM   14  C20 UNL     1      16.349  14.828  31.255  1.00  0.00     0.143 C 
HETATM   15  C21 UNL     1      16.415  15.310  32.684  1.00  0.00     0.078 C 
HETATM   16  C24 UNL     1      16.879  16.700  32.650  1.00  0.00    -0.010 C 
HETATM   17  C25 UNL     1      16.164  17.893  32.286  1.00  0.00    -0.066 C 
ENDROOT
BRANCH   1  18
HETATM   18  C6  UNL     1      16.839  20.229  32.324  1.00  0.00     0.027 C 
BRANCH  18  19
HETATM   19  C5  UNL     1      17.613  21.378  31.807  1.00  0.00     0.112 C 
BRANCH  19  20
HETATM   20  C4  UNL     1      16.692  22.407  31.251  1.00  0.00     0.259 C 
HETATM   21  O3  UNL     1      16.539  23.471  31.898  1.00  0.00    -0.265 OA
BRANCH  20  22
HETATM   22  O2  UNL     1      16.004  22.254  30.073  1.00  0.00    -0.312 OA
BRANCH  22  23
HETATM   23  C3  UNL     1      14.890  23.033  29.696  1.00  0.00     0.281 C 
BRANCH  23  24
HETATM   24  C2  UNL     1      13.663  22.235  29.942  1.00  0.00     0.241 C 
HETATM   25  N1  UNL     1      13.469  21.531  31.162  1.00  0.00    -0.364 N 
HETATM   26  C1  UNL     1      12.301  20.752  31.434  1.00  0.00     0.149 C 
ATOM     27  H1  UNL     1      14.195  21.585  31.876  1.00  0.00     0.161 HD
HETATM   28  O1  UNL     1      12.755  22.153  29.077  1.00  0.00    -0.271 OA
ENDBRANCH  23  24
ENDBRANCH  22  23
ENDBRANCH  20  22
ENDBRANCH  19  20
ENDBRANCH  18  19
ENDBRANCH   1  18
BRANCH  15  29
HETATM   29  C22 UNL     1      17.541  14.503  33.316  1.00  0.00     0.091 C 
HETATM   30  N2  UNL     1      17.655  13.257  33.276  1.00  0.00    -0.313 N 
ATOM     31  H2  UNL     1      16.956  12.695  32.789  1.00  0.00     0.185 HD
BRANCH  30  32
HETATM   32  N3  UNL     1      18.739  12.635  33.898  1.00  0.00    -0.279 N 
ATOM     33  H3  UNL     1      19.685  12.927  33.651  1.00  0.00     0.189 HD
BRANCH  32  34
HETATM   34  C23 UNL     1      18.571  11.609  34.864  1.00  0.00     0.199 C 
HETATM   35  N4  UNL     1      19.630  10.755  35.276  1.00  0.00    -0.068 NA
HETATM   36  S1  UNL     1      17.112  11.373  35.549  1.00  0.00    -0.043 SA
ENDBRANCH  32  34
ENDBRANCH  30  32
ENDBRANCH  15  29
BRANCH  14  37
HETATM   37  O4  UNL     1      17.498  14.374  30.707  1.00  0.00    -0.393 OA
ATOM     38  H4  UNL     1      17.827  13.538  31.016  1.00  0.00     0.210 HD
ENDBRANCH  14  37
TORSDOF 10
ENDMDL
MODEL 3
REMARK VINA RESULT: -9.035548489      2.719      3.788
REMARK  10 active torsions:
REMARK  status: ('A' for Active; 'I' for Inactive)
REMARK       I    between atoms: N1_2  and  C2_4 
REMARK    1  A    between atoms: C2_4  and  C3_6 
REMARK    2  A    between atoms: C3_6  and  O2_7 
REMARK    3  A    between atoms: O2_7  and  C4_8 
REMARK    4  A    between atoms: C4_8  and  C5_10 
REMARK    5  A    between atoms: C5_10  and  C6_11 
REMARK    6  A    between atoms: C6_11  and  C7_12 
REMARK    7  A    between atoms: C20_25  and  O4_26 
REMARK    8  A    between atoms: C21_28  and  C22_29 
REMARK    9  A    between atoms: N2_30  and  N3_32 
REMARK   10  A    between atoms: N3_32  and  C23_34 
ROOT
HETATM    1  C7  UNL     1      17.311  18.990  31.999  1.00  0.00    -0.002 C 
HETATM    2  C8  UNL     1      18.512  18.799  32.912  1.00  0.00     0.024 C 
HETATM    3  C9  UNL     1      17.644  18.747  30.603  1.00  0.00    -0.013 C 
HETATM    4  C10 UNL     1      17.119  17.638  29.780  1.00  0.00     0.001 C 
HETATM    5  C11 UNL     1      15.771  17.096  29.802  1.00  0.00    -0.061 C 
HETATM    6  C12 UNL     1      14.813  18.278  30.144  1.00  0.00    -0.016 C 
HETATM    7  C13 UNL     1      13.433  17.902  29.608  1.00  0.00     0.020 C 
HETATM    8  C14 UNL     1      15.138  19.489  29.345  1.00  0.00     0.020 C 
HETATM    9  C15 UNL     1      14.934  18.244  31.614  1.00  0.00     0.027 C 
HETATM   10  C16 UNL     1      13.958  17.146  32.094  1.00  0.00     0.011 C 
HETATM   11  C17 UNL     1      14.084  15.908  31.308  1.00  0.00     0.017 C 
HETATM   12  C18 UNL     1      15.330  15.834  30.408  1.00  0.00     0.007 C 
HETATM   13  C19 UNL     1      14.901  14.836  29.297  1.00  0.00     0.023 C 
HETATM   14  C20 UNL     1      16.264  14.998  31.243  1.00  0.00     0.143 C 
HETATM   15  C21 UNL     1      16.381  15.439  32.681  1.00  0.00     0.078 C 
HETATM   16  C24 UNL     1      16.863  16.824  32.671  1.00  0.00    -0.010 C 
HETATM   17  C25 UNL     1      16.154  18.035  32.363  1.00  0.00    -0.066 C 
ENDROOT
BRANCH   1  18
HETATM   18  C6  UNL     1      16.863  20.360  32.443  1.00  0.00     0.027 C 
BRANCH  18  19
HETATM   19  C5  UNL     1      17.473  21.517  31.754  1.00  0.00     0.112 C 
BRANCH  19  20
HETATM   20  C4  UNL     1      16.413  22.446  31.275  1.00  0.00     0.259 C 
HETATM   21  O3  UNL     1      15.645  22.952  32.128  1.00  0.00    -0.265 OA
BRANCH  20  22
HETATM   22  O2  UNL     1      16.232  22.776  29.955  1.00  0.00    -0.312 OA
BRANCH  22  23
HETATM   23  C3  UNL     1      15.085  23.421  29.446  1.00  0.00     0.281 C 
BRANCH  23  24
HETATM   24  C2  UNL     1      15.077  23.254  27.972  1.00  0.00     0.241 C 
HETATM   25  N1  UNL     1      15.535  22.056  27.358  1.00  0.00    -0.364 N 
HETATM   26  C1  UNL     1      15.543  21.860  25.942  1.00  0.00     0.149 C 
ATOM     27  H1  UNL     1      15.874  21.303  27.956  1.00  0.00     0.161 HD
HETATM   28  O1  UNL     1      14.665  24.170  27.215  1.00  0.00    -0.271 OA
ENDBRANCH  23  24
ENDBRANCH  22  23
ENDBRANCH  20  22
ENDBRANCH  19  20
ENDBRANCH  18  19
ENDBRANCH   1  18
BRANCH  15  29
HETATM   29  C22 UNL     1      17.515  14.600  33.256  1.00  0.00     0.091 C 
HETATM   30  N2  UNL     1      17.592  13.351  33.210  1.00  0.00    -0.313 N 
ATOM     31  H2  UNL     1      16.854  12.810  32.760  1.00  0.00     0.185 HD
BRANCH  30  32
HETATM   32  N3  UNL     1      18.689  12.699  33.777  1.00  0.00    -0.279 N 
ATOM     33  H3  UNL     1      19.627  12.941  33.457  1.00  0.00     0.189 HD
BRANCH  32  34
HETATM   34  C23 UNL     1      18.543  11.708  34.782  1.00  0.00     0.199 C 
HETATM   35  N4  UNL     1      19.605  10.851  35.182  1.00  0.00    -0.068 NA
HETATM   36  S1  UNL     1      17.109  11.519  35.531  1.00  0.00    -0.043 SA
ENDBRANCH  32  34
ENDBRANCH  30  32
ENDBRANCH  15  29
BRANCH  14  37
HETATM   37  O4  UNL     1      17.389  14.544  30.647  1.00  0.00    -0.393 OA
ATOM     38  H4  UNL     1      17.593  13.622  30.746  1.00  0.00     0.210 HD
ENDBRANCH  14  37
TORSDOF 10
ENDMDL
MODEL 4
REMARK VINA RESULT: -9.024154449      3.953      9.032
REMARK  10 active torsions:
REMARK  status: ('A' for Active; 'I' for Inactive)
REMARK       I    between atoms: N1_2  and  C2_4 
REMARK    1  A    between atoms: C2_4  and  C3_6 
REMARK    2  A    between atoms: C3_6  and  O2_7 
REMARK    3  A    between atoms: O2_7  and  C4_8 
REMARK    4  A    between atoms: C4_8  and  C5_10 
REMARK    5  A    between atoms: C5_10  and  C6_11 
REMARK    6  A    between atoms: C6_11  and  C7_12 
REMARK    7  A    between atoms: C20_25  and  O4_26 
REMARK    8  A    between atoms: C21_28  and  C22_29 
REMARK    9  A    between atoms: N2_30  and  N3_32 
REMARK   10  A    between atoms: N3_32  and  C23_34 
ROOT
HETATM    1  C7  UNL     1      17.329  17.652  31.420  1.00  0.00    -0.002 C 
HETATM    2  C8  UNL     1      18.423  18.246  30.546  1.00  0.00     0.024 C 
HETATM    3  C9  UNL     1      17.071  18.466  32.598  1.00  0.00    -0.013 C 
HETATM    4  C10 UNL     1      15.819  19.203  32.871  1.00  0.00     0.001 C 
HETATM    5  C11 UNL     1      14.465  18.760  32.586  1.00  0.00    -0.061 C 
HETATM    6  C12 UNL     1      14.456  17.208  32.736  1.00  0.00    -0.016 C 
HETATM    7  C13 UNL     1      13.013  16.798  33.027  1.00  0.00     0.020 C 
HETATM    8  C14 UNL     1      15.157  16.778  33.975  1.00  0.00     0.020 C 
HETATM    9  C15 UNL     1      14.939  16.851  31.389  1.00  0.00     0.027 C 
HETATM   10  C16 UNL     1      13.698  16.897  30.468  1.00  0.00     0.011 C 
HETATM   11  C17 UNL     1      12.899  18.116  30.673  1.00  0.00     0.017 C 
HETATM   12  C18 UNL     1      13.591  19.215  31.498  1.00  0.00     0.007 C 
HETATM   13  C19 UNL     1      12.397  20.020  32.082  1.00  0.00     0.023 C 
HETATM   14  C20 UNL     1      14.099  20.137  30.420  1.00  0.00     0.143 C 
HETATM   15  C21 UNL     1      14.832  19.443  29.299  1.00  0.00     0.078 C 
HETATM   16  C24 UNL     1      15.970  18.739  29.897  1.00  0.00    -0.010 C 
HETATM   17  C25 UNL     1      15.992  17.520  30.658  1.00  0.00    -0.066 C 
ENDROOT
BRANCH   1  18
HETATM   18  C6  UNL     1      17.852  16.245  31.571  1.00  0.00     0.027 C 
BRANCH  18  19
HETATM   19  C5  UNL     1      19.235  15.996  31.113  1.00  0.00     0.112 C 
BRANCH  19  20
HETATM   20  C4  UNL     1      19.857  14.915  31.927  1.00  0.00     0.259 C 
HETATM   21  O3  UNL     1      21.107  14.818  31.920  1.00  0.00    -0.265 OA
BRANCH  20  22
HETATM   22  O2  UNL     1      19.135  14.024  32.681  1.00  0.00    -0.312 OA
BRANCH  22  23
HETATM   23  C3  UNL     1      19.224  13.918  34.086  1.00  0.00     0.281 C 
BRANCH  23  24
HETATM   24  C2  UNL     1      18.594  12.637  34.493  1.00  0.00     0.241 C 
HETATM   25  N1  UNL     1      19.379  11.506  34.851  1.00  0.00    -0.364 N 
HETATM   26  C1  UNL     1      18.808  10.257  35.248  1.00  0.00     0.149 C 
ATOM     27  H1  UNL     1      20.395  11.591  34.825  1.00  0.00     0.161 HD
HETATM   28  O1  UNL     1      17.344  12.508  34.532  1.00  0.00    -0.271 OA
ENDBRANCH  23  24
ENDBRANCH  22  23
ENDBRANCH  20  22
ENDBRANCH  19  20
ENDBRANCH  18  19
ENDBRANCH   1  18
BRANCH  15  29
HETATM   29  C22 UNL     1      15.423  20.570  28.462  1.00  0.00     0.091 C 
HETATM   30  N2  UNL     1      14.813  21.222  27.584  1.00  0.00    -0.313 N 
ATOM     31  H2  UNL     1      13.835  21.013  27.380  1.00  0.00     0.185 HD
BRANCH  30  32
HETATM   32  N3  UNL     1      15.470  22.236  26.885  1.00  0.00    -0.279 N 
ATOM     33  H3  UNL     1      16.081  21.983  26.107  1.00  0.00     0.189 HD
BRANCH  32  34
HETATM   34  C23 UNL     1      15.318  23.606  27.218  1.00  0.00     0.199 C 
HETATM   35  N4  UNL     1      15.388  24.088  28.554  1.00  0.00    -0.068 NA
HETATM   36  S1  UNL     1      15.051  24.702  26.043  1.00  0.00    -0.043 SA
ENDBRANCH  32  34
ENDBRANCH  30  32
ENDBRANCH  15  29
BRANCH  14  37
HETATM   37  O4  UNL     1      14.571  21.343  30.807  1.00  0.00    -0.393 OA
ATOM     38  H4  UNL     1      14.072  21.815  31.463  1.00  0.00     0.210 HD
ENDBRANCH  14  37
TORSDOF 10
ENDMDL
MODEL 5
REMARK VINA RESULT: -8.947026644      1.737      1.893
REMARK  10 active torsions:
REMARK  status: ('A' for Active; 'I' for Inactive)
REMARK       I    between atoms: N1_2  and  C2_4 
REMARK    1  A    between atoms: C2_4  and  C3_6 
REMARK    2  A    between atoms: C3_6  and  O2_7 
REMARK    3  A    between atoms: O2_7  and  C4_8 
REMARK    4  A    between atoms: C4_8  and  C5_10 
REMARK    5  A    between atoms: C5_10  and  C6_11 
REMARK    6  A    between atoms: C6_11  and  C7_12 
REMARK    7  A    between atoms: C20_25  and  O4_26 
REMARK    8  A    between atoms: C21_28  and  C22_29 
REMARK    9  A    between atoms: N2_30  and  N3_32 
REMARK   10  A    between atoms: N3_32  and  C23_34 
ROOT
HETATM    1  C7  UNL     1      14.666  17.573  32.722  1.00  0.00    -0.002 C 
HETATM    2  C8  UNL     1      13.964  17.096  33.984  1.00  0.00     0.024 C 
HETATM    3  C9  UNL     1      15.720  18.533  33.015  1.00  0.00    -0.013 C 
HETATM    4  C10 UNL     1      17.165  18.306  32.806  1.00  0.00     0.001 C 
HETATM    5  C11 UNL     1      17.787  17.598  31.701  1.00  0.00    -0.061 C 
HETATM    6  C12 UNL     1      16.890  17.836  30.448  1.00  0.00    -0.016 C 
HETATM    7  C13 UNL     1      17.777  17.634  29.221  1.00  0.00     0.020 C 
HETATM    8  C14 UNL     1      16.503  19.266  30.320  1.00  0.00     0.020 C 
HETATM    9  C15 UNL     1      15.901  16.766  30.678  1.00  0.00     0.027 C 
HETATM   10  C16 UNL     1      16.542  15.471  30.130  1.00  0.00     0.011 C 
HETATM   11  C17 UNL     1      17.934  15.307  30.581  1.00  0.00     0.017 C 
HETATM   12  C18 UNL     1      18.363  16.248  31.721  1.00  0.00     0.007 C 
HETATM   13  C19 UNL     1      19.904  16.328  31.548  1.00  0.00     0.023 C 
HETATM   14  C20 UNL     1      18.223  15.356  32.926  1.00  0.00     0.143 C 
HETATM   15  C21 UNL     1      16.916  14.606  33.001  1.00  0.00     0.078 C 
HETATM   16  C24 UNL     1      15.844  15.606  33.024  1.00  0.00    -0.010 C 
HETATM   17  C25 UNL     1      15.318  16.404  31.951  1.00  0.00    -0.066 C 
ENDROOT
BRANCH   1  18
HETATM   18  C6  UNL     1      13.471  17.986  31.900  1.00  0.00     0.027 C 
BRANCH  18  19
HETATM   19  C5  UNL     1      12.873  19.302  32.209  1.00  0.00     0.112 C 
BRANCH  19  20
HETATM   20  C4  UNL     1      12.982  20.204  31.029  1.00  0.00     0.259 C 
HETATM   21  O3  UNL     1      12.866  19.697  29.888  1.00  0.00    -0.265 OA
BRANCH  20  22
HETATM   22  O2  UNL     1      13.202  21.556  31.125  1.00  0.00    -0.312 OA
BRANCH  22  23
HETATM   23  C3  UNL     1      14.457  22.172  30.941  1.00  0.00     0.281 C 
BRANCH  23  24
HETATM   24  C2  UNL     1      14.475  22.791  29.592  1.00  0.00     0.241 C 
HETATM   25  N1  UNL     1      15.696  23.138  28.952  1.00  0.00    -0.364 N 
HETATM   26  C1  UNL     1      15.752  23.737  27.654  1.00  0.00     0.149 C 
ATOM     27  H1  UNL     1      16.572  22.952  29.440  1.00  0.00     0.161 HD
HETATM   28  O1  UNL     1      13.408  23.032  28.972  1.00  0.00    -0.271 OA
ENDBRANCH  23  24
ENDBRANCH  22  23
ENDBRANCH  20  22
ENDBRANCH  19  20
ENDBRANCH  18  19
ENDBRANCH   1  18
BRANCH  15  29
HETATM   29  C22 UNL     1      16.917  13.955  34.378  1.00  0.00     0.091 C 
HETATM   30  N2  UNL     1      16.900  12.723  34.602  1.00  0.00    -0.313 N 
ATOM     31  H2  UNL     1      16.883  12.063  33.824  1.00  0.00     0.185 HD
BRANCH  30  32
HETATM   32  N3  UNL     1      16.904  12.252  35.916  1.00  0.00    -0.279 N 
ATOM     33  H3  UNL     1      17.655  12.544  36.543  1.00  0.00     0.189 HD
BRANCH  32  34
HETATM   34  C23 UNL     1      15.900  11.380  36.410  1.00  0.00     0.199 C 
HETATM   35  N4  UNL     1      16.114   9.988  36.603  1.00  0.00    -0.068 NA
HETATM   36  S1  UNL     1      14.428  11.968  36.782  1.00  0.00    -0.043 SA
ENDBRANCH  32  34
ENDBRANCH  30  32
ENDBRANCH  15  29
BRANCH  14  37
HETATM   37  O4  UNL     1      18.740  15.804  34.092  1.00  0.00    -0.393 OA
ATOM     38  H4  UNL     1      19.620  16.161  34.070  1.00  0.00     0.210 HD
ENDBRANCH  14  37
TORSDOF 10
ENDMDL
