MODEL 1
REMARK VINA RESULT: -8.372418788      0.000      0.000
REMARK  9 active torsions:
REMARK  status: ('A' for Active; 'I' for Inactive)
REMARK    1  A    between atoms: S1_2  and  C2_3 
REMARK    2  A    between atoms: C2_3  and  C3_4 
REMARK    3  A    between atoms: C3_4  and  N1_5 
REMARK    4  A    between atoms: N1_5  and  C4_7 
REMARK    5  A    between atoms: C4_7  and  C5_8 
REMARK    6  A    between atoms: C5_8  and  C7_10 
REMARK    7  A    between atoms: C5_8  and  C9_14 
REMARK    8  A    between atoms: C7_10  and  C8_11 
REMARK    9  A    between atoms: C26_32  and  O3_33 
ROOT
HETATM    1  C9  UNL     1      10.891  71.156   3.306  1.00  0.00     0.008 C 
HETATM    2  C10 UNL     1      12.300  71.540   3.739  1.00  0.00     0.007 C 
HETATM    3  C11 UNL     1      12.146  73.037   3.889  1.00  0.00     0.019 C 
HETATM    4  C12 UNL     1      10.799  73.246   4.568  1.00  0.00     0.032 C 
HETATM    5  C13 UNL     1      10.268  74.584   4.079  1.00  0.00     0.137 C 
HETATM    6  O2  UNL     1       9.260  74.829   4.747  1.00  0.00    -0.297 OA
HETATM    7  C14 UNL     1      10.558  75.648   3.103  1.00  0.00     0.085 C 
HETATM    8  C15 UNL     1      11.823  76.288   3.579  1.00  0.00     0.005 A 
HETATM    9  C16 UNL     1      11.527  76.475   5.087  1.00  0.00    -0.001 A 
HETATM   10  C17 UNL     1      12.440  75.588   5.821  1.00  0.00     0.011 C 
HETATM   11  C18 UNL     1      12.019  74.375   6.445  1.00  0.00    -0.004 C 
HETATM   12  C19 UNL     1      11.765  74.660   7.941  1.00  0.00    -0.001 C 
HETATM   13  C20 UNL     1      10.363  75.017   8.250  1.00  0.00     0.006 C 
HETATM   14  C21 UNL     1      10.434  75.698   9.613  1.00  0.00     0.007 C 
HETATM   15  C22 UNL     1      10.859  74.693  10.623  1.00  0.00     0.005 C 
HETATM   16  C23 UNL     1      11.396  75.498  11.785  1.00  0.00    -0.017 C 
HETATM   17  C24 UNL     1      12.471  76.468  11.467  1.00  0.00     0.018 C 
HETATM   18  C25 UNL     1      10.203  76.357  12.260  1.00  0.00     0.018 C 
HETATM   19  C26 UNL     1      11.714  74.633  12.983  1.00  0.00     0.126 C 
HETATM   20  C27 UNL     1      12.353  73.346  12.629  1.00  0.00     0.033 C 
HETATM   21  C28 UNL     1      12.815  73.342  11.202  1.00  0.00     0.013 C 
HETATM   22  C29 UNL     1      11.670  73.542  10.188  1.00  0.00    -0.032 C 
HETATM   23  C30 UNL     1      10.850  72.263  10.470  1.00  0.00     0.016 C 
HETATM   24  C31 UNL     1      12.260  73.553   8.811  1.00  0.00    -0.032 C 
HETATM   25  C32 UNL     1      13.786  73.773   8.932  1.00  0.00     0.016 C 
HETATM   26  C33 UNL     1      12.122  72.314   7.992  1.00  0.00     0.011 C 
HETATM   27  C34 UNL     1      11.045  72.305   6.950  1.00  0.00     0.007 C 
HETATM   28  C35 UNL     1      10.933  73.452   6.019  1.00  0.00     0.007 C 
HETATM   29  C36 UNL     1      12.041  77.566   4.177  1.00  0.00    -0.039 A 
HETATM   30  C37 UNL     1      11.153  78.748   3.851  1.00  0.00     0.015 C 
HETATM   31  C38 UNL     1      13.497  78.005   4.364  1.00  0.00     0.015 C 
HETATM   32  C39 UNL     1       9.984  72.165   3.946  1.00  0.00    -0.028 C 
HETATM   33  C40 UNL     1       9.233  72.749   2.701  1.00  0.00     0.016 C 
HETATM   34  C41 UNL     1       8.823  71.698   4.740  1.00  0.00     0.016 C 
ENDROOT
BRANCH   1  35
HETATM   35  C5  UNL     1      10.753  69.714   3.311  1.00  0.00    -0.000 C 
HETATM   36  C6  UNL     1       9.977  69.502   1.923  1.00  0.00     0.021 C 
BRANCH  35  37
HETATM   37  C4  UNL     1      11.945  68.856   3.005  1.00  0.00     0.065 C 
BRANCH  37  38
HETATM   38  N1  UNL     1      12.169  68.262   1.786  1.00  0.00    -0.401 N 
ATOM     39  H1  UNL     1      11.430  68.352   1.089  1.00  0.00     0.158 HD
BRANCH  38  40
HETATM   40  C3  UNL     1      13.301  67.551   1.407  1.00  0.00     0.129 C 
BRANCH  40  41
HETATM   41  C2  UNL     1      13.773  67.912  -0.011  1.00  0.00     0.093 C 
BRANCH  41  42
HETATM   42  S1  UNL     1      12.461  68.873  -0.802  1.00  0.00    -0.172 SA
HETATM   43  C1  UNL     1      12.851  69.208  -2.528  1.00  0.00     0.089 C 
ENDBRANCH  41  42
ENDBRANCH  40  41
ENDBRANCH  38  40
ENDBRANCH  37  38
ENDBRANCH  35  37
BRANCH  35  44
HETATM   44  C7  UNL     1       9.829  69.014   4.223  1.00  0.00     0.114 C 
BRANCH  44  45
HETATM   45  C8  UNL     1      10.352  68.349   5.425  1.00  0.00     0.232 C 
HETATM   46  N2  UNL     1       9.930  67.048   5.771  1.00  0.00    -0.062 NA
HETATM   47  O1  UNL     1      11.202  68.868   6.225  1.00  0.00    -0.277 OA
ENDBRANCH  44  45
ENDBRANCH  35  44
ENDBRANCH   1  35
BRANCH  19  48
HETATM   48  O3  UNL     1      10.588  74.366  13.764  1.00  0.00    -0.395 OA
ATOM     49  H3  UNL     1      10.783  73.804  14.505  1.00  0.00     0.210 HD
ENDBRANCH  19  48
TORSDOF 9
ENDMDL
MODEL 2
REMARK VINA RESULT: -8.238510750      2.612      5.846
REMARK  9 active torsions:
REMARK  status: ('A' for Active; 'I' for Inactive)
REMARK    1  A    between atoms: S1_2  and  C2_3 
REMARK    2  A    between atoms: C2_3  and  C3_4 
REMARK    3  A    between atoms: C3_4  and  N1_5 
REMARK    4  A    between atoms: N1_5  and  C4_7 
REMARK    5  A    between atoms: C4_7  and  C5_8 
REMARK    6  A    between atoms: C5_8  and  C7_10 
REMARK    7  A    between atoms: C5_8  and  C9_14 
REMARK    8  A    between atoms: C7_10  and  C8_11 
REMARK    9  A    between atoms: C26_32  and  O3_33 
ROOT
HETATM    1  C9  UNL     1       9.923  69.830   2.838  1.00  0.00     0.008 C 
HETATM    2  C10 UNL     1       8.685  70.459   3.463  1.00  0.00     0.007 C 
HETATM    3  C11 UNL     1       8.718  69.829   4.838  1.00  0.00     0.019 C 
HETATM    4  C12 UNL     1      10.179  69.856   5.266  1.00  0.00     0.032 C 
HETATM    5  C13 UNL     1      10.389  68.655   6.175  1.00  0.00     0.137 C 
HETATM    6  O2  UNL     1      11.522  68.764   6.650  1.00  0.00    -0.297 OA
HETATM    7  C14 UNL     1       9.701  67.445   6.657  1.00  0.00     0.085 C 
HETATM    8  C15 UNL     1       8.585  67.943   7.519  1.00  0.00     0.005 A 
HETATM    9  C16 UNL     1       9.311  69.000   8.388  1.00  0.00    -0.001 A 
HETATM   10  C17 UNL     1       8.768  70.313   8.014  1.00  0.00     0.011 C 
HETATM   11  C18 UNL     1       9.487  71.261   7.225  1.00  0.00    -0.004 C 
HETATM   12  C19 UNL     1      10.161  72.275   8.175  1.00  0.00    -0.001 C 
HETATM   13  C20 UNL     1      11.543  71.910   8.554  1.00  0.00     0.006 C 
HETATM   14  C21 UNL     1      11.825  72.733   9.806  1.00  0.00     0.007 C 
HETATM   15  C22 UNL     1      11.842  74.173   9.433  1.00  0.00     0.005 C 
HETATM   16  C23 UNL     1      11.609  74.923  10.725  1.00  0.00    -0.017 C 
HETATM   17  C24 UNL     1      10.393  74.551  11.486  1.00  0.00     0.018 C 
HETATM   18  C25 UNL     1      12.793  74.525  11.635  1.00  0.00     0.018 C 
HETATM   19  C26 UNL     1      11.771  76.416  10.559  1.00  0.00     0.126 C 
HETATM   20  C27 UNL     1      11.193  76.935   9.299  1.00  0.00     0.033 C 
HETATM   21  C28 UNL     1      10.316  75.912   8.640  1.00  0.00     0.013 C 
HETATM   22  C29 UNL     1      11.063  74.617   8.264  1.00  0.00    -0.032 C 
HETATM   23  C30 UNL     1      12.060  75.187   7.230  1.00  0.00     0.016 C 
HETATM   24  C31 UNL     1      10.078  73.670   7.650  1.00  0.00    -0.032 C 
HETATM   25  C32 UNL     1       8.650  74.156   7.990  1.00  0.00     0.016 C 
HETATM   26  C33 UNL     1      10.087  73.534   6.164  1.00  0.00     0.011 C 
HETATM   27  C34 UNL     1      10.783  72.335   5.595  1.00  0.00     0.007 C 
HETATM   28  C35 UNL     1      10.480  70.995   6.149  1.00  0.00     0.007 C 
HETATM   29  C36 UNL     1       8.428  67.904   8.939  1.00  0.00    -0.039 A 
HETATM   30  C37 UNL     1       9.042  66.795   9.767  1.00  0.00     0.015 C 
HETATM   31  C38 UNL     1       7.064  68.320   9.498  1.00  0.00     0.015 C 
HETATM   32  C39 UNL     1      10.872  69.591   3.974  1.00  0.00    -0.028 C 
HETATM   33  C40 UNL     1      11.135  68.051   3.847  1.00  0.00     0.016 C 
HETATM   34  C41 UNL     1      12.264  70.090   3.876  1.00  0.00     0.016 C 
ENDROOT
BRANCH   1  35
HETATM   35  C5  UNL     1      10.207  70.467   1.568  1.00  0.00    -0.000 C 
HETATM   36  C6  UNL     1       8.736  70.965   1.167  1.00  0.00     0.021 C 
BRANCH  35  37
HETATM   37  C4  UNL     1      10.882  71.807   1.548  1.00  0.00     0.065 C 
BRANCH  37  38
HETATM   38  N1  UNL     1      10.213  73.001   1.421  1.00  0.00    -0.401 N 
ATOM     39  H1  UNL     1       9.605  73.102   0.608  1.00  0.00     0.158 HD
BRANCH  38  40
HETATM   40  C3  UNL     1      10.280  74.084   2.288  1.00  0.00     0.129 C 
BRANCH  40  41
HETATM   41  C2  UNL     1      10.728  75.374   1.580  1.00  0.00     0.093 C 
BRANCH  41  42
HETATM   42  S1  UNL     1      12.373  75.800   2.197  1.00  0.00    -0.172 SA
HETATM   43  C1  UNL     1      12.866  74.707   3.542  1.00  0.00     0.089 C 
ENDBRANCH  41  42
ENDBRANCH  40  41
ENDBRANCH  38  40
ENDBRANCH  37  38
ENDBRANCH  35  37
BRANCH  35  44
HETATM   44  C7  UNL     1      10.549  69.695   0.358  1.00  0.00     0.114 C 
BRANCH  44  45
HETATM   45  C8  UNL     1      11.951  69.355   0.080  1.00  0.00     0.232 C 
HETATM   46  N2  UNL     1      12.455  69.392  -1.238  1.00  0.00    -0.062 NA
HETATM   47  O1  UNL     1      12.801  69.012   0.970  1.00  0.00    -0.277 OA
ENDBRANCH  44  45
ENDBRANCH  35  44
ENDBRANCH   1  35
BRANCH  19  48
HETATM   48  O3  UNL     1      13.105  76.822  10.633  1.00  0.00    -0.395 OA
ATOM     49  H3  UNL     1      13.470  77.031   9.781  1.00  0.00     0.210 HD
ENDBRANCH  19  48
TORSDOF 9
ENDMDL
MODEL 3
REMARK VINA RESULT: -8.014813347      2.730      6.804
REMARK  9 active torsions:
REMARK  status: ('A' for Active; 'I' for Inactive)
REMARK    1  A    between atoms: S1_2  and  C2_3 
REMARK    2  A    between atoms: C2_3  and  C3_4 
REMARK    3  A    between atoms: C3_4  and  N1_5 
REMARK    4  A    between atoms: N1_5  and  C4_7 
REMARK    5  A    between atoms: C4_7  and  C5_8 
REMARK    6  A    between atoms: C5_8  and  C7_10 
REMARK    7  A    between atoms: C5_8  and  C9_14 
REMARK    8  A    between atoms: C7_10  and  C8_11 
REMARK    9  A    between atoms: C26_32  and  O3_33 
ROOT
HETATM    1  C9  UNL     1      10.273  72.001   5.104  1.00  0.00     0.008 C 
HETATM    2  C10 UNL     1       9.381  73.156   4.671  1.00  0.00     0.007 C 
HETATM    3  C11 UNL     1       9.942  74.274   5.521  1.00  0.00     0.019 C 
HETATM    4  C12 UNL     1      11.455  74.106   5.473  1.00  0.00     0.032 C 
HETATM    5  C13 UNL     1      11.993  74.631   6.795  1.00  0.00     0.137 C 
HETATM    6  O2  UNL     1      13.223  74.646   6.695  1.00  0.00    -0.297 OA
HETATM    7  C14 UNL     1      11.539  75.114   8.110  1.00  0.00     0.085 C 
HETATM    8  C15 UNL     1      10.850  76.413   7.838  1.00  0.00     0.005 A 
HETATM    9  C16 UNL     1      11.864  77.111   6.899  1.00  0.00    -0.001 A 
HETATM   10  C17 UNL     1      11.228  77.218   5.579  1.00  0.00     0.011 C 
HETATM   11  C18 UNL     1      11.590  76.399   4.466  1.00  0.00    -0.004 C 
HETATM   12  C19 UNL     1      12.587  77.184   3.588  1.00  0.00    -0.001 C 
HETATM   13  C20 UNL     1      14.005  76.931   3.922  1.00  0.00     0.006 C 
HETATM   14  C21 UNL     1      14.758  78.105   3.305  1.00  0.00     0.007 C 
HETATM   15  C22 UNL     1      14.638  78.021   1.826  1.00  0.00     0.005 C 
HETATM   16  C23 UNL     1      14.931  79.416   1.322  1.00  0.00    -0.017 C 
HETATM   17  C24 UNL     1      14.105  80.505   1.894  1.00  0.00     0.018 C 
HETATM   18  C25 UNL     1      16.373  79.714   1.791  1.00  0.00     0.018 C 
HETATM   19  C26 UNL     1      15.025  79.473  -0.186  1.00  0.00     0.126 C 
HETATM   20  C27 UNL     1      14.007  78.648  -0.872  1.00  0.00     0.033 C 
HETATM   21  C28 UNL     1      12.936  78.203   0.079  1.00  0.00     0.013 C 
HETATM   22  C29 UNL     1      13.469  77.342   1.241  1.00  0.00    -0.032 C 
HETATM   23  C30 UNL     1      13.989  76.125   0.442  1.00  0.00     0.016 C 
HETATM   24  C31 UNL     1      12.316  76.993   2.132  1.00  0.00    -0.032 C 
HETATM   25  C32 UNL     1      11.136  77.936   1.803  1.00  0.00     0.016 C 
HETATM   26  C33 UNL     1      11.745  75.619   2.013  1.00  0.00     0.011 C 
HETATM   27  C34 UNL     1      12.157  74.620   3.051  1.00  0.00     0.007 C 
HETATM   28  C35 UNL     1      12.083  74.995   4.483  1.00  0.00     0.007 C 
HETATM   29  C36 UNL     1      11.258  77.751   8.126  1.00  0.00    -0.039 A 
HETATM   30  C37 UNL     1      12.137  78.065   9.318  1.00  0.00     0.015 C 
HETATM   31  C38 UNL     1      10.221  78.856   7.899  1.00  0.00     0.015 C 
HETATM   32  C39 UNL     1      11.588  72.622   5.471  1.00  0.00    -0.028 C 
HETATM   33  C40 UNL     1      11.771  72.128   6.947  1.00  0.00     0.016 C 
HETATM   34  C41 UNL     1      12.836  72.089   4.875  1.00  0.00     0.016 C 
ENDROOT
BRANCH   1  35
HETATM   35  C5  UNL     1      10.046  70.857   4.245  1.00  0.00    -0.000 C 
HETATM   36  C6  UNL     1       8.537  71.146   3.784  1.00  0.00     0.021 C 
BRANCH  35  37
HETATM   37  C4  UNL     1      10.667  70.823   2.880  1.00  0.00     0.065 C 
BRANCH  37  38
HETATM   38  N1  UNL     1      11.705  69.993   2.529  1.00  0.00    -0.401 N 
ATOM     39  H1  UNL     1      12.639  70.275   2.830  1.00  0.00     0.158 HD
BRANCH  38  40
HETATM   40  C3  UNL     1      11.613  68.810   1.808  1.00  0.00     0.129 C 
BRANCH  40  41
HETATM   41  C2  UNL     1      12.820  67.885   2.041  1.00  0.00     0.093 C 
BRANCH  41  42
HETATM   42  S1  UNL     1      13.632  67.626   0.447  1.00  0.00    -0.172 SA
HETATM   43  C1  UNL     1      12.848  68.602  -0.849  1.00  0.00     0.089 C 
ENDBRANCH  41  42
ENDBRANCH  40  41
ENDBRANCH  38  40
ENDBRANCH  37  38
ENDBRANCH  35  37
BRANCH  35  44
HETATM   44  C7  UNL     1       9.887  69.490   4.777  1.00  0.00     0.114 C 
BRANCH  44  45
HETATM   45  C8  UNL     1      10.933  68.913   5.633  1.00  0.00     0.232 C 
HETATM   46  N2  UNL     1      10.598  68.227   6.819  1.00  0.00    -0.062 NA
HETATM   47  O1  UNL     1      12.185  68.977   5.385  1.00  0.00    -0.277 OA
ENDBRANCH  44  45
ENDBRANCH  35  44
ENDBRANCH   1  35
BRANCH  19  48
HETATM   48  O3  UNL     1      16.286  79.102  -0.657  1.00  0.00    -0.395 OA
ATOM     49  H3  UNL     1      16.775  79.836  -1.011  1.00  0.00     0.210 HD
ENDBRANCH  19  48
TORSDOF 9
ENDMDL
MODEL 4
REMARK VINA RESULT: -7.906483252      0.979      1.093
REMARK  9 active torsions:
REMARK  status: ('A' for Active; 'I' for Inactive)
REMARK    1  A    between atoms: S1_2  and  C2_3 
REMARK    2  A    between atoms: C2_3  and  C3_4 
REMARK    3  A    between atoms: C3_4  and  N1_5 
REMARK    4  A    between atoms: N1_5  and  C4_7 
REMARK    5  A    between atoms: C4_7  and  C5_8 
REMARK    6  A    between atoms: C5_8  and  C7_10 
REMARK    7  A    between atoms: C5_8  and  C9_14 
REMARK    8  A    between atoms: C7_10  and  C8_11 
REMARK    9  A    between atoms: C26_32  and  O3_33 
ROOT
HETATM    1  C9  UNL     1      11.068  71.194   3.337  1.00  0.00     0.008 C 
HETATM    2  C10 UNL     1      12.461  71.500   3.868  1.00  0.00     0.007 C 
HETATM    3  C11 UNL     1      12.488  73.006   3.724  1.00  0.00     0.019 C 
HETATM    4  C12 UNL     1      11.117  73.486   4.179  1.00  0.00     0.032 C 
HETATM    5  C13 UNL     1      10.817  74.753   3.394  1.00  0.00     0.137 C 
HETATM    6  O2  UNL     1       9.785  75.231   3.873  1.00  0.00    -0.297 OA
HETATM    7  C14 UNL     1      11.341  75.570   2.286  1.00  0.00     0.085 C 
HETATM    8  C15 UNL     1      12.623  76.150   2.795  1.00  0.00     0.005 A 
HETATM    9  C16 UNL     1      12.199  76.658   4.195  1.00  0.00    -0.001 A 
HETATM   10  C17 UNL     1      12.909  75.836   5.186  1.00  0.00     0.011 C 
HETATM   11  C18 UNL     1      12.272  74.820   5.961  1.00  0.00    -0.004 C 
HETATM   12  C19 UNL     1      11.903  75.417   7.336  1.00  0.00    -0.001 C 
HETATM   13  C20 UNL     1      10.535  75.976   7.396  1.00  0.00     0.006 C 
HETATM   14  C21 UNL     1      10.552  76.897   8.611  1.00  0.00     0.007 C 
HETATM   15  C22 UNL     1      10.737  76.068   9.832  1.00  0.00     0.005 C 
HETATM   16  C23 UNL     1      11.250  77.020  10.888  1.00  0.00    -0.017 C 
HETATM   17  C24 UNL     1      12.468  77.788  10.538  1.00  0.00     0.018 C 
HETATM   18  C25 UNL     1      10.135  78.079  11.045  1.00  0.00     0.018 C 
HETATM   19  C26 UNL     1      11.327  76.376  12.253  1.00  0.00     0.126 C 
HETATM   20  C27 UNL     1      11.828  74.983  12.220  1.00  0.00     0.033 C 
HETATM   21  C28 UNL     1      12.430  74.652  10.887  1.00  0.00     0.013 C 
HETATM   22  C29 UNL     1      11.432  74.774   9.718  1.00  0.00    -0.032 C 
HETATM   23  C30 UNL     1      10.429  73.669  10.121  1.00  0.00     0.016 C 
HETATM   24  C31 UNL     1      12.158  74.453   8.447  1.00  0.00    -0.032 C 
HETATM   25  C32 UNL     1      13.679  74.527   8.718  1.00  0.00     0.016 C 
HETATM   26  C33 UNL     1      11.945  73.101   7.855  1.00  0.00     0.011 C 
HETATM   27  C34 UNL     1      10.990  73.005   6.704  1.00  0.00     0.007 C 
HETATM   28  C35 UNL     1      11.125  73.955   5.574  1.00  0.00     0.007 C 
HETATM   29  C36 UNL     1      12.942  77.489   3.175  1.00  0.00    -0.039 A 
HETATM   30  C37 UNL     1      12.253  78.674   2.531  1.00  0.00     0.015 C 
HETATM   31  C38 UNL     1      14.415  77.796   3.462  1.00  0.00     0.015 C 
HETATM   32  C39 UNL     1      10.237  72.399   3.665  1.00  0.00    -0.028 C 
HETATM   33  C40 UNL     1       9.701  72.808   2.250  1.00  0.00     0.016 C 
HETATM   34  C41 UNL     1       8.949  72.223   4.377  1.00  0.00     0.016 C 
ENDROOT
BRANCH   1  35
HETATM   35  C5  UNL     1      10.743  69.804   3.585  1.00  0.00    -0.000 C 
HETATM   36  C6  UNL     1       9.865  69.484   2.281  1.00  0.00     0.021 C 
BRANCH  35  37
HETATM   37  C4  UNL     1      11.793  68.752   3.379  1.00  0.00     0.065 C 
BRANCH  37  38
HETATM   38  N1  UNL     1      12.050  68.151   2.170  1.00  0.00    -0.401 N 
ATOM     39  H1  UNL     1      11.321  68.219   1.459  1.00  0.00     0.158 HD
BRANCH  38  40
HETATM   40  C3  UNL     1      13.201  67.459   1.817  1.00  0.00     0.129 C 
BRANCH  40  41
HETATM   41  C2  UNL     1      13.715  67.849   0.420  1.00  0.00     0.093 C 
BRANCH  41  42
HETATM   42  S1  UNL     1      12.411  68.790  -0.405  1.00  0.00    -0.172 SA
HETATM   43  C1  UNL     1      12.766  68.992  -2.159  1.00  0.00     0.089 C 
ENDBRANCH  41  42
ENDBRANCH  40  41
ENDBRANCH  38  40
ENDBRANCH  37  38
ENDBRANCH  35  37
BRANCH  35  44
HETATM   44  C7  UNL     1       9.793  69.391   4.635  1.00  0.00     0.114 C 
BRANCH  44  45
HETATM   45  C8  UNL     1      10.232  68.481   5.702  1.00  0.00     0.232 C 
HETATM   46  N2  UNL     1       9.857  67.121   5.690  1.00  0.00    -0.062 NA
HETATM   47  O1  UNL     1      10.965  68.827   6.689  1.00  0.00    -0.277 OA
ENDBRANCH  44  45
ENDBRANCH  35  44
ENDBRANCH   1  35
BRANCH  19  48
HETATM   48  O3  UNL     1      10.101  76.389  12.921  1.00  0.00    -0.395 OA
ATOM     49  H3  UNL     1      10.186  76.642  13.833  1.00  0.00     0.210 HD
ENDBRANCH  19  48
TORSDOF 9
ENDMDL
MODEL 5
REMARK VINA RESULT: -7.891086544      2.685      5.639
REMARK  9 active torsions:
REMARK  status: ('A' for Active; 'I' for Inactive)
REMARK    1  A    between atoms: S1_2  and  C2_3 
REMARK    2  A    between atoms: C2_3  and  C3_4 
REMARK    3  A    between atoms: C3_4  and  N1_5 
REMARK    4  A    between atoms: N1_5  and  C4_7 
REMARK    5  A    between atoms: C4_7  and  C5_8 
REMARK    6  A    between atoms: C5_8  and  C7_10 
REMARK    7  A    between atoms: C5_8  and  C9_14 
REMARK    8  A    between atoms: C7_10  and  C8_11 
REMARK    9  A    between atoms: C26_32  and  O3_33 
ROOT
HETATM    1  C9  UNL     1       9.749  69.858   3.309  1.00  0.00     0.008 C 
HETATM    2  C10 UNL     1       8.574  70.753   3.678  1.00  0.00     0.007 C 
HETATM    3  C11 UNL     1       8.438  70.440   5.152  1.00  0.00     0.019 C 
HETATM    4  C12 UNL     1       9.861  70.384   5.692  1.00  0.00     0.032 C 
HETATM    5  C13 UNL     1       9.850  69.394   6.846  1.00  0.00     0.137 C 
HETATM    6  O2  UNL     1      10.957  69.467   7.386  1.00  0.00    -0.297 OA
HETATM    7  C14 UNL     1       8.975  68.412   7.509  1.00  0.00     0.085 C 
HETATM    8  C15 UNL     1       7.888  69.217   8.147  1.00  0.00     0.005 A 
HETATM    9  C16 UNL     1       8.698  70.343   8.835  1.00  0.00    -0.001 A 
HETATM   10  C17 UNL     1       8.364  71.599   8.148  1.00  0.00     0.011 C 
HETATM   11  C18 UNL     1       9.252  72.257   7.244  1.00  0.00    -0.004 C 
HETATM   12  C19 UNL     1       9.999  73.365   8.017  1.00  0.00    -0.001 C 
HETATM   13  C20 UNL     1      11.293  72.928   8.583  1.00  0.00     0.006 C 
HETATM   14  C21 UNL     1      11.610  73.966   9.655  1.00  0.00     0.007 C 
HETATM   15  C22 UNL     1      11.846  75.276   8.992  1.00  0.00     0.005 C 
HETATM   16  C23 UNL     1      11.641  76.313  10.073  1.00  0.00    -0.017 C 
HETATM   17  C24 UNL     1      10.342  76.267  10.785  1.00  0.00     0.018 C 
HETATM   18  C25 UNL     1      12.703  75.985  11.146  1.00  0.00     0.018 C 
HETATM   19  C26 UNL     1      12.015  77.703   9.612  1.00  0.00     0.126 C 
HETATM   20  C27 UNL     1      11.590  77.999   8.225  1.00  0.00     0.033 C 
HETATM   21  C28 UNL     1      10.622  76.970   7.721  1.00  0.00     0.013 C 
HETATM   22  C29 UNL     1      11.207  75.543   7.692  1.00  0.00    -0.032 C 
HETATM   23  C30 UNL     1      12.332  75.748   6.653  1.00  0.00     0.016 C 
HETATM   24  C31 UNL     1      10.140  74.611   7.206  1.00  0.00    -0.032 C 
HETATM   25  C32 UNL     1       8.774  75.328   7.309  1.00  0.00     0.016 C 
HETATM   26  C33 UNL     1      10.219  74.153   5.788  1.00  0.00     0.011 C 
HETATM   27  C34 UNL     1      10.778  72.783   5.546  1.00  0.00     0.007 C 
HETATM   28  C35 UNL     1      10.261  71.644   6.339  1.00  0.00     0.007 C 
HETATM   29  C36 UNL     1       7.643  69.510   9.523  1.00  0.00    -0.039 A 
HETATM   30  C37 UNL     1       8.048  68.543  10.616  1.00  0.00     0.015 C 
HETATM   31  C38 UNL     1       6.317  70.199   9.861  1.00  0.00     0.015 C 
HETATM   32  C39 UNL     1      10.587  69.760   4.550  1.00  0.00    -0.028 C 
HETATM   33  C40 UNL     1      10.644  68.210   4.772  1.00  0.00     0.016 C 
HETATM   34  C41 UNL     1      12.038  70.054   4.473  1.00  0.00     0.016 C 
ENDROOT
BRANCH   1  35
HETATM   35  C5  UNL     1      10.194  70.162   1.965  1.00  0.00    -0.000 C 
HETATM   36  C6  UNL     1       8.801  70.601   1.301  1.00  0.00     0.021 C 
BRANCH  35  37
HETATM   37  C4  UNL     1      10.947  71.433   1.705  1.00  0.00     0.065 C 
BRANCH  37  38
HETATM   38  N1  UNL     1      10.352  72.613   1.325  1.00  0.00    -0.401 N 
ATOM     39  H1  UNL     1      10.029  72.673   0.360  1.00  0.00     0.158 HD
BRANCH  38  40
HETATM   40  C3  UNL     1      10.146  73.731   2.123  1.00  0.00     0.129 C 
BRANCH  40  41
HETATM   41  C2  UNL     1      10.478  75.042   1.392  1.00  0.00     0.093 C 
BRANCH  41  42
HETATM   42  S1  UNL     1      11.665  75.954   2.404  1.00  0.00    -0.172 SA
HETATM   43  C1  UNL     1      12.900  74.850   3.112  1.00  0.00     0.089 C 
ENDBRANCH  41  42
ENDBRANCH  40  41
ENDBRANCH  38  40
ENDBRANCH  37  38
ENDBRANCH  35  37
BRANCH  35  44
HETATM   44  C7  UNL     1      10.604  69.111   1.014  1.00  0.00     0.114 C 
BRANCH  44  45
HETATM   45  C8  UNL     1      12.019  68.725   0.916  1.00  0.00     0.232 C 
HETATM   46  N2  UNL     1      12.781  69.060  -0.222  1.00  0.00    -0.062 NA
HETATM   47  O1  UNL     1      12.656  68.083   1.819  1.00  0.00    -0.277 OA
ENDBRANCH  44  45
ENDBRANCH  35  44
ENDBRANCH   1  35
BRANCH  19  48
HETATM   48  O3  UNL     1      13.385  77.951   9.717  1.00  0.00    -0.395 OA
ATOM     49  H3  UNL     1      13.618  78.832   9.447  1.00  0.00     0.210 HD
ENDBRANCH  19  48
TORSDOF 9
ENDMDL
