MODEL 1
REMARK VINA RESULT: -8.791169652      0.000      0.000
REMARK  13 active torsions:
REMARK  status: ('A' for Active; 'I' for Inactive)
REMARK    1  A    between atoms: C2_2  and  S1_3 
REMARK    2  A    between atoms: S1_3  and  N1_6 
REMARK    3  A    between atoms: N1_6  and  C3_8 
REMARK    4  A    between atoms: C3_8  and  C4_9 
REMARK    5  A    between atoms: C4_9  and  C5_10 
REMARK    6  A    between atoms: C5_10  and  C6_11 
REMARK    7  A    between atoms: C6_11  and  N2_12 
REMARK    8  A    between atoms: C6_11  and  C7_17 
REMARK    9  A    between atoms: C6_11  and  C13_23 
REMARK   10  A    between atoms: C17_27  and  C18_28 
REMARK   11  A    between atoms: C19_29  and  C20_30 
REMARK   12  A    between atoms: C20_30  and  O3_32 
REMARK   13  A    between atoms: C20_30  and  C22_34 
ROOT
HETATM    1  C22 UNL     1      21.320 -16.332  25.392  1.00  0.00     0.174 C 
HETATM    2  C23 UNL     1      22.329 -16.780  24.430  1.00  0.00     0.063 C 
HETATM    3  N4  UNL     1      23.124 -17.140  23.679  1.00  0.00    -0.197 NA
ENDROOT
BRANCH   1   4
HETATM    4  C20 UNL     1      21.248 -14.829  25.306  1.00  0.00     0.129 C 
HETATM    5  C21 UNL     1      20.571 -14.275  26.545  1.00  0.00     0.061 C 
BRANCH   4   6
HETATM    6  C19 UNL     1      20.496 -14.499  24.094  1.00  0.00    -0.062 C 
HETATM    7  C18 UNL     1      19.880 -14.205  23.079  1.00  0.00    -0.064 C 
BRANCH   7   8
HETATM    8  C17 UNL     1      19.159 -13.835  21.895  1.00  0.00     0.018 A 
HETATM    9  C16 UNL     1      19.817 -13.458  20.720  1.00  0.00     0.020 A 
HETATM   10  C15 UNL     1      19.124 -13.104  19.591  1.00  0.00     0.002 A 
HETATM   11  C14 UNL     1      17.753 -13.120  19.609  1.00  0.00     0.010 A 
HETATM   12  C13 UNL     1      17.029 -13.487  20.751  1.00  0.00    -0.023 A 
HETATM   13  C24 UNL     1      17.785 -13.830  21.847  1.00  0.00     0.030 A 
BRANCH  12  14
HETATM   14  C6  UNL     1      15.588 -13.469  20.651  1.00  0.00     0.099 C 
BRANCH  14  15
HETATM   15  C5  UNL     1      14.810 -13.602  21.909  1.00  0.00     0.044 C 
BRANCH  15  16
HETATM   16  C4  UNL     1      13.416 -14.131  21.643  1.00  0.00     0.023 C 
BRANCH  16  17
HETATM   17  C3  UNL     1      12.351 -13.081  21.738  1.00  0.00     0.132 C 
BRANCH  17  18
HETATM   18  N1  UNL     1      12.307 -12.440  23.020  1.00  0.00    -0.316 N 
ATOM     19  H1  UNL     1      12.394 -12.935  23.908  1.00  0.00     0.172 HD
BRANCH  18  20
HETATM   20  S1  UNL     1      12.089 -10.730  22.881  1.00  0.00     0.247 S 
HETATM   21  O1  UNL     1      11.243 -10.371  21.692  1.00  0.00    -0.201 OA
HETATM   22  O2  UNL     1      13.465 -10.132  22.643  1.00  0.00    -0.201 OA
BRANCH  20  23
HETATM   23  C2  UNL     1      11.482 -10.051  24.357  1.00  0.00     0.121 C 
HETATM   24  C1  UNL     1      11.851  -8.843  24.734  1.00  0.00     0.025 C 
ENDBRANCH  20  23
ENDBRANCH  18  20
ENDBRANCH  17  18
ENDBRANCH  16  17
ENDBRANCH  15  16
ENDBRANCH  14  15
BRANCH  14  25
HETATM   25  N2  UNL     1      15.141 -12.283  19.985  1.00  0.00    -0.324 N 
HETATM   26  N3  UNL     1      15.025 -11.177  20.529  1.00  0.00    -0.348 N 
ATOM     27  H32 UNL     1      15.268 -11.124  21.518  1.00  0.00     0.176 HD
ATOM     28  H31 UNL     1      14.706 -10.332  20.055  1.00  0.00     0.176 HD
ATOM     29  H2  UNL     1      14.903 -12.354  18.996  1.00  0.00     0.181 HD
ENDBRANCH  14  25
BRANCH  14  30
HETATM   30  C7  UNL     1      15.218 -14.625  19.754  1.00  0.00    -0.024 A 
HETATM   31  C8  UNL     1      14.620 -14.320  18.549  1.00  0.00     0.010 A 
HETATM   32  C9  UNL     1      14.245 -15.307  17.672  1.00  0.00     0.001 A 
HETATM   33  C10 UNL     1      14.458 -16.618  17.976  1.00  0.00     0.000 A 
HETATM   34  C11 UNL     1      15.055 -16.924  19.178  1.00  0.00     0.001 A 
HETATM   35  C12 UNL     1      15.427 -15.929  20.053  1.00  0.00     0.010 A 
ENDBRANCH  14  30
ENDBRANCH  12  14
ENDBRANCH   7   8
ENDBRANCH   4   6
BRANCH   4  36
HETATM   36  O3  UNL     1      22.539 -14.272  25.280  1.00  0.00    -0.377 OA
ATOM     37  H3  UNL     1      22.818 -13.997  26.146  1.00  0.00     0.211 HD
ENDBRANCH   4  36
ENDBRANCH   1   4
TORSDOF 13
ENDMDL
MODEL 2
REMARK VINA RESULT: -8.608453887      1.217      1.659
REMARK  13 active torsions:
REMARK  status: ('A' for Active; 'I' for Inactive)
REMARK    1  A    between atoms: C2_2  and  S1_3 
REMARK    2  A    between atoms: S1_3  and  N1_6 
REMARK    3  A    between atoms: N1_6  and  C3_8 
REMARK    4  A    between atoms: C3_8  and  C4_9 
REMARK    5  A    between atoms: C4_9  and  C5_10 
REMARK    6  A    between atoms: C5_10  and  C6_11 
REMARK    7  A    between atoms: C6_11  and  N2_12 
REMARK    8  A    between atoms: C6_11  and  C7_17 
REMARK    9  A    between atoms: C6_11  and  C13_23 
REMARK   10  A    between atoms: C17_27  and  C18_28 
REMARK   11  A    between atoms: C19_29  and  C20_30 
REMARK   12  A    between atoms: C20_30  and  O3_32 
REMARK   13  A    between atoms: C20_30  and  C22_34 
ROOT
HETATM    1  C22 UNL     1      20.738 -14.335  26.155  1.00  0.00     0.174 C 
HETATM    2  C23 UNL     1      19.858 -15.397  26.649  1.00  0.00     0.063 C 
HETATM    3  N4  UNL     1      19.168 -16.228  27.047  1.00  0.00    -0.197 NA
ENDROOT
BRANCH   1   4
HETATM    4  C20 UNL     1      21.420 -14.853  24.916  1.00  0.00     0.129 C 
HETATM    5  C21 UNL     1      22.807 -14.247  24.802  1.00  0.00     0.061 C 
BRANCH   4   6
HETATM    6  C19 UNL     1      20.582 -14.486  23.773  1.00  0.00    -0.062 C 
HETATM    7  C18 UNL     1      19.884 -14.200  22.811  1.00  0.00    -0.064 C 
BRANCH   7   8
HETATM    8  C17 UNL     1      19.081 -13.879  21.665  1.00  0.00     0.018 A 
HETATM    9  C16 UNL     1      19.651 -13.442  20.465  1.00  0.00     0.020 A 
HETATM   10  C15 UNL     1      18.881 -13.135  19.374  1.00  0.00     0.002 A 
HETATM   11  C14 UNL     1      17.517 -13.258  19.456  1.00  0.00     0.010 A 
HETATM   12  C13 UNL     1      16.879 -13.690  20.627  1.00  0.00    -0.023 A 
HETATM   13  C24 UNL     1      17.711 -13.981  21.682  1.00  0.00     0.030 A 
BRANCH  12  14
HETATM   14  C6  UNL     1      15.438 -13.784  20.593  1.00  0.00     0.099 C 
BRANCH  14  15
HETATM   15  C5  UNL     1      14.745 -14.156  21.853  1.00  0.00     0.044 C 
BRANCH  15  16
HETATM   16  C4  UNL     1      13.253 -14.310  21.638  1.00  0.00     0.023 C 
BRANCH  16  17
HETATM   17  C3  UNL     1      12.427 -13.695  22.727  1.00  0.00     0.132 C 
BRANCH  17  18
HETATM   18  N1  UNL     1      11.453 -12.764  22.235  1.00  0.00    -0.316 N 
ATOM     19  H1  UNL     1      10.607 -13.036  21.735  1.00  0.00     0.172 HD
BRANCH  18  20
HETATM   20  S1  UNL     1      11.884 -11.128  22.592  1.00  0.00     0.247 S 
HETATM   21  O1  UNL     1      11.550 -10.203  21.456  1.00  0.00    -0.201 OA
HETATM   22  O2  UNL     1      13.395 -11.100  22.757  1.00  0.00    -0.201 OA
BRANCH  20  23
HETATM   23  C2  UNL     1      11.195 -10.609  24.096  1.00  0.00     0.121 C 
HETATM   24  C1  UNL     1      11.553  -9.458  24.631  1.00  0.00     0.025 C 
ENDBRANCH  20  23
ENDBRANCH  18  20
ENDBRANCH  17  18
ENDBRANCH  16  17
ENDBRANCH  15  16
ENDBRANCH  14  15
BRANCH  14  25
HETATM   25  N2  UNL     1      14.861 -12.562  20.122  1.00  0.00    -0.324 N 
HETATM   26  N3  UNL     1      15.124 -11.441  20.579  1.00  0.00    -0.348 N 
ATOM     27  H32 UNL     1      15.799 -11.405  21.342  1.00  0.00     0.176 HD
ATOM     28  H31 UNL     1      14.712 -10.570  20.243  1.00  0.00     0.176 HD
ATOM     29  H2  UNL     1      14.187 -12.618  19.358  1.00  0.00     0.181 HD
ENDBRANCH  14  25
BRANCH  14  30
HETATM   30  C7  UNL     1      15.112 -14.835  19.560  1.00  0.00    -0.024 A 
HETATM   31  C8  UNL     1      15.373 -16.148  19.895  1.00  0.00     0.010 A 
HETATM   32  C9  UNL     1      15.113 -17.170  19.016  1.00  0.00     0.001 A 
HETATM   33  C10 UNL     1      14.587 -16.906  17.787  1.00  0.00     0.000 A 
HETATM   34  C11 UNL     1      14.326 -15.597  17.451  1.00  0.00     0.001 A 
HETATM   35  C12 UNL     1      14.590 -14.577  18.338  1.00  0.00     0.010 A 
ENDBRANCH  14  30
ENDBRANCH  12  14
ENDBRANCH   7   8
ENDBRANCH   4   6
BRANCH   4  36
HETATM   36  O3  UNL     1      21.605 -16.245  24.997  1.00  0.00    -0.377 OA
ATOM     37  H3  UNL     1      21.884 -16.511  25.865  1.00  0.00     0.211 HD
ENDBRANCH   4  36
ENDBRANCH   1   4
TORSDOF 13
ENDMDL
MODEL 3
REMARK VINA RESULT: -8.326018181      1.259      1.687
REMARK  13 active torsions:
REMARK  status: ('A' for Active; 'I' for Inactive)
REMARK    1  A    between atoms: C2_2  and  S1_3 
REMARK    2  A    between atoms: S1_3  and  N1_6 
REMARK    3  A    between atoms: N1_6  and  C3_8 
REMARK    4  A    between atoms: C3_8  and  C4_9 
REMARK    5  A    between atoms: C4_9  and  C5_10 
REMARK    6  A    between atoms: C5_10  and  C6_11 
REMARK    7  A    between atoms: C6_11  and  N2_12 
REMARK    8  A    between atoms: C6_11  and  C7_17 
REMARK    9  A    between atoms: C6_11  and  C13_23 
REMARK   10  A    between atoms: C17_27  and  C18_28 
REMARK   11  A    between atoms: C19_29  and  C20_30 
REMARK   12  A    between atoms: C20_30  and  O3_32 
REMARK   13  A    between atoms: C20_30  and  C22_34 
ROOT
HETATM    1  C22 UNL     1      20.526 -14.653  26.718  1.00  0.00     0.174 C 
HETATM    2  C23 UNL     1      21.588 -14.254  25.792  1.00  0.00     0.063 C 
HETATM    3  N4  UNL     1      22.423 -13.932  25.068  1.00  0.00    -0.197 NA
ENDROOT
BRANCH   1   4
HETATM    4  C20 UNL     1      19.758 -15.775  26.070  1.00  0.00     0.129 C 
HETATM    5  C21 UNL     1      20.646 -17.000  25.947  1.00  0.00     0.061 C 
BRANCH   4   6
HETATM    6  C19 UNL     1      19.320 -15.300  24.756  1.00  0.00    -0.062 C 
HETATM    7  C18 UNL     1      18.958 -14.883  23.666  1.00  0.00    -0.064 C 
BRANCH   7   8
HETATM    8  C17 UNL     1      18.521 -14.372  22.397  1.00  0.00     0.018 A 
HETATM    9  C16 UNL     1      19.429 -14.017  21.394  1.00  0.00     0.020 A 
HETATM   10  C15 UNL     1      19.007 -13.529  20.184  1.00  0.00     0.002 A 
HETATM   11  C14 UNL     1      17.664 -13.384  19.947  1.00  0.00     0.010 A 
HETATM   12  C13 UNL     1      16.700 -13.719  20.907  1.00  0.00    -0.023 A 
HETATM   13  C24 UNL     1      17.191 -14.203  22.097  1.00  0.00     0.030 A 
BRANCH  12  14
HETATM   14  C6  UNL     1      15.315 -13.527  20.542  1.00  0.00     0.099 C 
BRANCH  14  15
HETATM   15  C5  UNL     1      14.294 -13.706  21.606  1.00  0.00     0.044 C 
BRANCH  15  16
HETATM   16  C4  UNL     1      12.891 -13.670  21.037  1.00  0.00     0.023 C 
BRANCH  16  17
HETATM   17  C3  UNL     1      11.873 -13.123  21.991  1.00  0.00     0.132 C 
BRANCH  17  18
HETATM   18  N1  UNL     1      12.454 -12.349  23.049  1.00  0.00    -0.316 N 
ATOM     19  H1  UNL     1      12.997 -12.747  23.814  1.00  0.00     0.172 HD
BRANCH  18  20
HETATM   20  S1  UNL     1      12.123 -10.661  22.872  1.00  0.00     0.247 S 
HETATM   21  O1  UNL     1      11.300 -10.380  21.645  1.00  0.00    -0.201 OA
HETATM   22  O2  UNL     1      13.462  -9.971  22.675  1.00  0.00    -0.201 OA
BRANCH  20  23
HETATM   23  C2  UNL     1      11.413 -10.004  24.311  1.00  0.00     0.121 C 
HETATM   24  C1  UNL     1      11.794  -8.826  24.763  1.00  0.00     0.025 C 
ENDBRANCH  20  23
ENDBRANCH  18  20
ENDBRANCH  17  18
ENDBRANCH  16  17
ENDBRANCH  15  16
ENDBRANCH  14  15
BRANCH  14  25
HETATM   25  N2  UNL     1      15.119 -12.233  19.962  1.00  0.00    -0.324 N 
HETATM   26  N3  UNL     1      15.002 -11.185  20.612  1.00  0.00    -0.348 N 
ATOM     27  H32 UNL     1      15.052 -11.267  21.627  1.00  0.00     0.176 HD
ATOM     28  H31 UNL     1      14.862 -10.263  20.199  1.00  0.00     0.176 HD
ATOM     29  H2  UNL     1      15.072 -12.170  18.945  1.00  0.00     0.181 HD
ENDBRANCH  14  25
BRANCH  14  30
HETATM   30  C7  UNL     1      15.027 -14.530  19.453  1.00  0.00    -0.024 A 
HETATM   31  C8  UNL     1      15.035 -15.864  19.808  1.00  0.00     0.010 A 
HETATM   32  C9  UNL     1      14.788 -16.847  18.882  1.00  0.00     0.001 A 
HETATM   33  C10 UNL     1      14.527 -16.522  17.584  1.00  0.00     0.000 A 
HETATM   34  C11 UNL     1      14.519 -15.193  17.228  1.00  0.00     0.001 A 
HETATM   35  C12 UNL     1      14.768 -14.213  18.162  1.00  0.00     0.010 A 
ENDBRANCH  14  30
ENDBRANCH  12  14
ENDBRANCH   7   8
ENDBRANCH   4   6
BRANCH   4  36
HETATM   36  O3  UNL     1      18.669 -16.158  26.871  1.00  0.00    -0.377 OA
ATOM     37  H3  UNL     1      18.955 -16.567  27.679  1.00  0.00     0.211 HD
ENDBRANCH   4  36
ENDBRANCH   1   4
TORSDOF 13
ENDMDL
MODEL 4
REMARK VINA RESULT: -8.228643392      3.012      7.791
REMARK  13 active torsions:
REMARK  status: ('A' for Active; 'I' for Inactive)
REMARK    1  A    between atoms: C2_2  and  S1_3 
REMARK    2  A    between atoms: S1_3  and  N1_6 
REMARK    3  A    between atoms: N1_6  and  C3_8 
REMARK    4  A    between atoms: C3_8  and  C4_9 
REMARK    5  A    between atoms: C4_9  and  C5_10 
REMARK    6  A    between atoms: C5_10  and  C6_11 
REMARK    7  A    between atoms: C6_11  and  N2_12 
REMARK    8  A    between atoms: C6_11  and  C7_17 
REMARK    9  A    between atoms: C6_11  and  C13_23 
REMARK   10  A    between atoms: C17_27  and  C18_28 
REMARK   11  A    between atoms: C19_29  and  C20_30 
REMARK   12  A    between atoms: C20_30  and  O3_32 
REMARK   13  A    between atoms: C20_30  and  C22_34 
ROOT
HETATM    1  C22 UNL     1      13.219 -10.577  22.178  1.00  0.00     0.174 C 
HETATM    2  C23 UNL     1      12.085 -10.877  23.054  1.00  0.00     0.063 C 
HETATM    3  N4  UNL     1      11.197 -11.109  23.750  1.00  0.00    -0.197 NA
ENDROOT
BRANCH   1   4
HETATM    4  C20 UNL     1      13.331 -11.702  21.181  1.00  0.00     0.129 C 
HETATM    5  C21 UNL     1      12.281 -12.757  21.477  1.00  0.00     0.061 C 
BRANCH   4   6
HETATM    6  C19 UNL     1      14.684 -12.249  21.295  1.00  0.00    -0.062 C 
HETATM    7  C18 UNL     1      15.816 -12.705  21.368  1.00  0.00    -0.064 C 
BRANCH   7   8
HETATM    8  C17 UNL     1      17.141 -13.255  21.433  1.00  0.00     0.018 A 
HETATM    9  C16 UNL     1      18.179 -12.770  20.631  1.00  0.00     0.020 A 
HETATM   10  C15 UNL     1      19.442 -13.298  20.695  1.00  0.00     0.002 A 
HETATM   11  C14 UNL     1      19.700 -14.327  21.564  1.00  0.00     0.010 A 
HETATM   12  C13 UNL     1      18.707 -14.862  22.396  1.00  0.00    -0.023 A 
HETATM   13  C24 UNL     1      17.463 -14.286  22.282  1.00  0.00     0.030 A 
BRANCH  12  14
HETATM   14  C6  UNL     1      19.096 -15.942  23.273  1.00  0.00     0.099 C 
BRANCH  14  15
HETATM   15  C5  UNL     1      18.046 -16.913  23.675  1.00  0.00     0.044 C 
BRANCH  15  16
HETATM   16  C4  UNL     1      17.770 -17.914  22.573  1.00  0.00     0.023 C 
BRANCH  16  17
HETATM   17  C3  UNL     1      16.330 -18.322  22.484  1.00  0.00     0.132 C 
BRANCH  17  18
HETATM   18  N1  UNL     1      15.429 -17.309  22.948  1.00  0.00    -0.316 N 
ATOM     19  H1  UNL     1      15.625 -16.688  23.734  1.00  0.00     0.172 HD
BRANCH  18  20
HETATM   20  S1  UNL     1      13.972 -17.264  22.019  1.00  0.00     0.247 S 
HETATM   21  O1  UNL     1      13.024 -16.210  22.520  1.00  0.00    -0.201 OA
HETATM   22  O2  UNL     1      13.286 -18.605  22.214  1.00  0.00    -0.201 OA
BRANCH  20  23
HETATM   23  C2  UNL     1      14.309 -17.102  20.326  1.00  0.00     0.121 C 
HETATM   24  C1  UNL     1      15.035 -16.094  19.885  1.00  0.00     0.025 C 
ENDBRANCH  20  23
ENDBRANCH  18  20
ENDBRANCH  17  18
ENDBRANCH  16  17
ENDBRANCH  15  16
ENDBRANCH  14  15
BRANCH  14  25
HETATM   25  N2  UNL     1      20.185 -16.683  22.712  1.00  0.00    -0.324 N 
HETATM   26  N3  UNL     1      21.108 -17.179  23.372  1.00  0.00    -0.348 N 
ATOM     27  H32 UNL     1      21.075 -17.041  24.382  1.00  0.00     0.176 HD
ATOM     28  H31 UNL     1      21.884 -17.707  22.973  1.00  0.00     0.176 HD
ATOM     29  H2  UNL     1      20.201 -16.811  21.701  1.00  0.00     0.181 HD
ENDBRANCH  14  25
BRANCH  14  30
HETATM   30  C7  UNL     1      19.626 -15.291  24.527  1.00  0.00    -0.024 A 
HETATM   31  C8  UNL     1      19.332 -15.906  25.727  1.00  0.00     0.010 A 
HETATM   32  C9  UNL     1      19.769 -15.383  26.919  1.00  0.00     0.001 A 
HETATM   33  C10 UNL     1      20.508 -14.237  26.940  1.00  0.00     0.000 A 
HETATM   34  C11 UNL     1      20.801 -13.623  25.744  1.00  0.00     0.001 A 
HETATM   35  C12 UNL     1      20.359 -14.153  24.553  1.00  0.00     0.010 A 
ENDBRANCH  14  30
ENDBRANCH  12  14
ENDBRANCH   7   8
ENDBRANCH   4   6
BRANCH   4  36
HETATM   36  O3  UNL     1      13.068 -11.239  19.880  1.00  0.00    -0.377 OA
ATOM     37  H3  UNL     1      13.250 -10.310  19.796  1.00  0.00     0.211 HD
ENDBRANCH   4  36
ENDBRANCH   1   4
TORSDOF 13
ENDMDL
MODEL 5
REMARK VINA RESULT: -8.171594048      2.993      7.500
REMARK  13 active torsions:
REMARK  status: ('A' for Active; 'I' for Inactive)
REMARK    1  A    between atoms: C2_2  and  S1_3 
REMARK    2  A    between atoms: S1_3  and  N1_6 
REMARK    3  A    between atoms: N1_6  and  C3_8 
REMARK    4  A    between atoms: C3_8  and  C4_9 
REMARK    5  A    between atoms: C4_9  and  C5_10 
REMARK    6  A    between atoms: C5_10  and  C6_11 
REMARK    7  A    between atoms: C6_11  and  N2_12 
REMARK    8  A    between atoms: C6_11  and  C7_17 
REMARK    9  A    between atoms: C6_11  and  C13_23 
REMARK   10  A    between atoms: C17_27  and  C18_28 
REMARK   11  A    between atoms: C19_29  and  C20_30 
REMARK   12  A    between atoms: C20_30  and  O3_32 
REMARK   13  A    between atoms: C20_30  and  C22_34 
ROOT
HETATM    1  C22 UNL     1      11.990 -12.229  22.119  1.00  0.00     0.174 C 
HETATM    2  C23 UNL     1      11.390 -11.936  23.422  1.00  0.00     0.063 C 
HETATM    3  N4  UNL     1      10.911 -11.709  24.444  1.00  0.00    -0.197 NA
ENDROOT
BRANCH   1   4
HETATM    4  C20 UNL     1      13.043 -11.184  21.860  1.00  0.00     0.129 C 
HETATM    5  C21 UNL     1      12.635 -10.326  20.677  1.00  0.00     0.061 C 
BRANCH   4   6
HETATM    6  C19 UNL     1      14.300 -11.889  21.599  1.00  0.00    -0.062 C 
HETATM    7  C18 UNL     1      15.360 -12.462  21.391  1.00  0.00    -0.064 C 
BRANCH   7   8
HETATM    8  C17 UNL     1      16.616 -13.111  21.142  1.00  0.00     0.018 A 
HETATM    9  C16 UNL     1      17.466 -12.697  20.111  1.00  0.00     0.020 A 
HETATM   10  C15 UNL     1      18.665 -13.319  19.876  1.00  0.00     0.002 A 
HETATM   11  C14 UNL     1      19.043 -14.374  20.666  1.00  0.00     0.010 A 
HETATM   12  C13 UNL     1      18.240 -14.842  21.716  1.00  0.00    -0.023 A 
HETATM   13  C24 UNL     1      17.053 -14.172  21.897  1.00  0.00     0.030 A 
BRANCH  12  14
HETATM   14  C6  UNL     1      18.745 -15.957  22.483  1.00  0.00     0.099 C 
BRANCH  14  15
HETATM   15  C5  UNL     1      17.780 -17.019  22.866  1.00  0.00     0.044 C 
BRANCH  15  16
HETATM   16  C4  UNL     1      17.194 -17.699  21.646  1.00  0.00     0.023 C 
BRANCH  16  17
HETATM   17  C3  UNL     1      15.800 -18.207  21.857  1.00  0.00     0.132 C 
BRANCH  17  18
HETATM   18  N1  UNL     1      14.978 -17.300  22.602  1.00  0.00    -0.316 N 
ATOM     19  H1  UNL     1      15.171 -17.011  23.561  1.00  0.00     0.172 HD
BRANCH  18  20
HETATM   20  S1  UNL     1      13.620 -16.753  21.681  1.00  0.00     0.247 S 
HETATM   21  O1  UNL     1      13.088 -15.444  22.195  1.00  0.00    -0.201 OA
HETATM   22  O2  UNL     1      12.519 -17.783  21.872  1.00  0.00    -0.201 OA
BRANCH  20  23
HETATM   23  C2  UNL     1      13.986 -16.702  19.987  1.00  0.00     0.121 C 
HETATM   24  C1  UNL     1      14.518 -15.621  19.453  1.00  0.00     0.025 C 
ENDBRANCH  20  23
ENDBRANCH  18  20
ENDBRANCH  17  18
ENDBRANCH  16  17
ENDBRANCH  15  16
ENDBRANCH  14  15
BRANCH  14  25
HETATM   25  N2  UNL     1      19.839 -16.584  21.805  1.00  0.00    -0.324 N 
HETATM   26  N3  UNL     1      20.589 -17.426  22.317  1.00  0.00    -0.348 N 
ATOM     27  H32 UNL     1      20.401 -17.679  23.287  1.00  0.00     0.176 HD
ATOM     28  H31 UNL     1      21.368 -17.873  21.834  1.00  0.00     0.176 HD
ATOM     29  H2  UNL     1      20.012 -16.320  20.836  1.00  0.00     0.181 HD
ENDBRANCH  14  25
BRANCH  14  30
HETATM   30  C7  UNL     1      19.311 -15.369  23.752  1.00  0.00    -0.024 A 
HETATM   31  C8  UNL     1      18.846 -15.883  24.945  1.00  0.00     0.010 A 
HETATM   32  C9  UNL     1      19.302 -15.406  26.149  1.00  0.00     0.001 A 
HETATM   33  C10 UNL     1      20.230 -14.408  26.190  1.00  0.00     0.000 A 
HETATM   34  C11 UNL     1      20.694 -13.895  25.001  1.00  0.00     0.001 A 
HETATM   35  C12 UNL     1      20.232 -14.378  23.797  1.00  0.00     0.010 A 
ENDBRANCH  14  30
ENDBRANCH  12  14
ENDBRANCH   7   8
ENDBRANCH   4   6
BRANCH   4  36
HETATM   36  O3  UNL     1      13.157 -10.313  22.957  1.00  0.00    -0.377 OA
ATOM     37  H3  UNL     1      12.571 -10.560  23.662  1.00  0.00     0.211 HD
ENDBRANCH   4  36
ENDBRANCH   1   4
TORSDOF 13
ENDMDL
