MODEL 1
REMARK VINA RESULT: -9.086121566      0.000      0.000
REMARK  13 active torsions:
REMARK  status: ('A' for Active; 'I' for Inactive)
REMARK    1  A    between atoms: C2_2  and  C3_3 
REMARK    2  A    between atoms: C3_3  and  N1_4 
REMARK       I    between atoms: N1_4  and  C4_6 
REMARK    3  A    between atoms: C4_6  and  C5_8 
REMARK    4  A    between atoms: C5_8  and  C6_9 
REMARK    5  A    between atoms: C7_10  and  C8_11 
REMARK    6  A    between atoms: C8_11  and  C9_12 
REMARK    7  A    between atoms: C9_12  and  C10_13 
REMARK    8  A    between atoms: C10_13  and  O2_14 
REMARK    9  A    between atoms: O2_14  and  C11_15 
REMARK   10  A    between atoms: C18_22  and  C19_23 
REMARK   11  A    between atoms: C19_23  and  C20_24 
REMARK   12  A    between atoms: C24_30  and  O5_31 
REMARK   13  A    between atoms: C31_39  and  O6_40 
ROOT
HETATM    1  C11 UNL     1      12.012  23.841   4.198  1.00  0.00     0.151 C 
HETATM    2  C12 UNL     1      11.854  24.207   5.635  1.00  0.00     0.040 C 
HETATM    3  C13 UNL     1      13.013  23.557   6.295  1.00  0.00     0.003 C 
HETATM    4  C14 UNL     1      12.763  23.078   7.702  1.00  0.00     0.033 C 
HETATM    5  C15 UNL     1      14.086  22.601   8.186  1.00  0.00    -0.022 C 
HETATM    6  C16 UNL     1      14.927  22.055   7.330  1.00  0.00    -0.070 C 
HETATM    7  C17 UNL     1      14.685  21.855   5.872  1.00  0.00     0.031 C 
HETATM    8  C18 UNL     1      15.017  20.435   5.554  1.00  0.00     0.005 C 
HETATM    9  C21 UNL     1      16.363  20.047   6.073  1.00  0.00     0.011 C 
HETATM   10  C22 UNL     1      17.092  21.126   6.814  1.00  0.00     0.001 C 
HETATM   11  C23 UNL     1      18.387  20.601   7.329  1.00  0.00     0.037 C 
HETATM   12  C24 UNL     1      18.312  19.671   8.475  1.00  0.00     0.118 C 
HETATM   13  C25 UNL     1      17.239  19.935   9.472  1.00  0.00     0.033 C 
HETATM   14  C26 UNL     1      15.972  20.497   8.885  1.00  0.00     0.016 C 
HETATM   15  C27 UNL     1      16.238  21.615   7.928  1.00  0.00    -0.017 C 
HETATM   16  C28 UNL     1      16.856  22.764   8.694  1.00  0.00     0.020 C 
HETATM   17  C29 UNL     1      13.367  22.333   5.427  1.00  0.00    -0.004 C 
HETATM   18  C30 UNL     1      12.237  21.370   5.570  1.00  0.00     0.019 C 
HETATM   19  C31 UNL     1      13.324  23.042   4.093  1.00  0.00     0.156 C 
ENDROOT
BRANCH   1  20
HETATM   20  O2  UNL     1      12.040  24.900   3.317  1.00  0.00    -0.383 OA
BRANCH  20  21
HETATM   21  C10 UNL     1      11.391  24.476   2.140  1.00  0.00     0.168 C 
BRANCH  21  22
HETATM   22  C9  UNL     1       9.991  24.036   2.550  1.00  0.00     0.030 C 
BRANCH  22  23
HETATM   23  C8  UNL     1       9.076  25.212   2.634  1.00  0.00     0.029 C 
BRANCH  23  24
HETATM   24  C7  UNL     1       8.278  25.390   3.835  1.00  0.00    -0.030 C 
HETATM   25  C6  UNL     1       8.022  26.578   4.614  1.00  0.00    -0.022 C 
BRANCH  25  26
HETATM   26  C5  UNL     1       9.002  27.487   5.185  1.00  0.00     0.129 C 
BRANCH  26  27
HETATM   27  C4  UNL     1       9.155  27.502   6.674  1.00  0.00     0.221 C 
HETATM   28  N1  UNL     1       9.342  26.290   7.325  1.00  0.00    -0.361 N 
ATOM     29  H1  UNL     1       9.357  25.491   6.692  1.00  0.00     0.162 HD
HETATM   30  O1  UNL     1       9.103  28.593   7.232  1.00  0.00    -0.273 OA
BRANCH  28  31
HETATM   31  C3  UNL     1       9.516  25.930   8.685  1.00  0.00     0.122 C 
BRANCH  31  32
HETATM   32  C2  UNL     1      10.868  25.705   9.238  1.00  0.00     0.015 C 
HETATM   33  C1  UNL     1      11.927  26.640   8.779  1.00  0.00     0.006 C 
ENDBRANCH  31  32
ENDBRANCH  28  31
ENDBRANCH  26  27
ENDBRANCH  25  26
ENDBRANCH  23  24
ENDBRANCH  22  23
ENDBRANCH  21  22
ENDBRANCH  20  21
ENDBRANCH   1  20
BRANCH  19  34
HETATM   34  O6  UNL     1      14.408  23.876   3.946  1.00  0.00    -0.392 OA
ATOM     35  H6  UNL     1      15.206  23.383   3.800  1.00  0.00     0.210 HD
ENDBRANCH  19  34
BRANCH   8  36
HETATM   36  C19 UNL     1      14.981  20.090   4.096  1.00  0.00     0.118 C 
BRANCH  36  37
HETATM   37  C20 UNL     1      15.236  18.638   3.907  1.00  0.00     0.172 C 
HETATM   38  O3  UNL     1      16.101  18.304   3.025  1.00  0.00    -0.648 OA
HETATM   39  O4  UNL     1      14.632  17.619   4.586  1.00  0.00    -0.648 OA
ENDBRANCH  36  37
ENDBRANCH   8  36
BRANCH  12  40
HETATM   40  O5  UNL     1      18.261  18.312   8.082  1.00  0.00    -0.396 OA
ATOM     41  H5  UNL     1      17.566  18.130   7.461  1.00  0.00     0.210 HD
ENDBRANCH  12  40
TORSDOF 13
ENDMDL
MODEL 2
REMARK VINA RESULT: -8.936730709      1.926      4.565
REMARK  13 active torsions:
REMARK  status: ('A' for Active; 'I' for Inactive)
REMARK    1  A    between atoms: C2_2  and  C3_3 
REMARK    2  A    between atoms: C3_3  and  N1_4 
REMARK       I    between atoms: N1_4  and  C4_6 
REMARK    3  A    between atoms: C4_6  and  C5_8 
REMARK    4  A    between atoms: C5_8  and  C6_9 
REMARK    5  A    between atoms: C7_10  and  C8_11 
REMARK    6  A    between atoms: C8_11  and  C9_12 
REMARK    7  A    between atoms: C9_12  and  C10_13 
REMARK    8  A    between atoms: C10_13  and  O2_14 
REMARK    9  A    between atoms: O2_14  and  C11_15 
REMARK   10  A    between atoms: C18_22  and  C19_23 
REMARK   11  A    between atoms: C19_23  and  C20_24 
REMARK   12  A    between atoms: C24_30  and  O5_31 
REMARK   13  A    between atoms: C31_39  and  O6_40 
ROOT
HETATM    1  C11 UNL     1      13.136  23.734   6.841  1.00  0.00     0.151 C 
HETATM    2  C12 UNL     1      12.492  23.433   5.530  1.00  0.00     0.040 C 
HETATM    3  C13 UNL     1      13.276  22.288   5.004  1.00  0.00     0.003 C 
HETATM    4  C14 UNL     1      13.419  22.245   3.505  1.00  0.00     0.033 C 
HETATM    5  C15 UNL     1      14.110  20.959   3.222  1.00  0.00    -0.022 C 
HETATM    6  C16 UNL     1      14.989  20.494   4.088  1.00  0.00    -0.070 C 
HETATM    7  C17 UNL     1      15.382  21.147   5.371  1.00  0.00     0.031 C 
HETATM    8  C18 UNL     1      16.874  21.190   5.413  1.00  0.00     0.005 C 
HETATM    9  C21 UNL     1      17.478  19.856   5.123  1.00  0.00     0.011 C 
HETATM   10  C22 UNL     1      16.495  18.764   4.831  1.00  0.00     0.001 C 
HETATM   11  C23 UNL     1      17.219  17.505   4.502  1.00  0.00     0.037 C 
HETATM   12  C24 UNL     1      17.882  17.452   3.183  1.00  0.00     0.118 C 
HETATM   13  C25 UNL     1      17.190  18.152   2.066  1.00  0.00     0.033 C 
HETATM   14  C26 UNL     1      16.450  19.396   2.478  1.00  0.00     0.016 C 
HETATM   15  C27 UNL     1      15.621  19.182   3.704  1.00  0.00    -0.017 C 
HETATM   16  C28 UNL     1      14.540  18.174   3.381  1.00  0.00     0.020 C 
HETATM   17  C29 UNL     1      14.685  22.419   5.618  1.00  0.00    -0.004 C 
HETATM   18  C30 UNL     1      15.300  23.634   5.012  1.00  0.00     0.019 C 
HETATM   19  C31 UNL     1      14.237  22.675   7.039  1.00  0.00     0.156 C 
ENDROOT
BRANCH   1  20
HETATM   20  O2  UNL     1      12.292  23.737   7.928  1.00  0.00    -0.383 OA
BRANCH  20  21
HETATM   21  C10 UNL     1      11.278  24.679   7.663  1.00  0.00     0.168 C 
BRANCH  21  22
HETATM   22  C9  UNL     1      11.642  25.939   8.437  1.00  0.00     0.030 C 
BRANCH  22  23
HETATM   23  C8  UNL     1      10.411  26.637   8.912  1.00  0.00     0.029 C 
BRANCH  23  24
HETATM   24  C7  UNL     1      10.091  27.942   8.358  1.00  0.00    -0.030 C 
HETATM   25  C6  UNL     1       8.839  28.457   7.859  1.00  0.00    -0.022 C 
BRANCH  25  26
HETATM   26  C5  UNL     1       7.983  27.866   6.843  1.00  0.00     0.129 C 
BRANCH  26  27
HETATM   27  C4  UNL     1       8.624  27.414   5.568  1.00  0.00     0.221 C 
HETATM   28  N1  UNL     1       8.852  26.056   5.394  1.00  0.00    -0.361 N 
ATOM     29  H1  UNL     1       8.543  25.492   6.186  1.00  0.00     0.162 HD
HETATM   30  O1  UNL     1       8.914  28.280   4.748  1.00  0.00    -0.273 OA
BRANCH  28  31
HETATM   31  C3  UNL     1       9.424  25.288   4.349  1.00  0.00     0.122 C 
BRANCH  31  32
HETATM   32  C2  UNL     1       8.668  24.178   3.731  1.00  0.00     0.015 C 
HETATM   33  C1  UNL     1       9.479  23.076   3.151  1.00  0.00     0.006 C 
ENDBRANCH  31  32
ENDBRANCH  28  31
ENDBRANCH  26  27
ENDBRANCH  25  26
ENDBRANCH  23  24
ENDBRANCH  22  23
ENDBRANCH  21  22
ENDBRANCH  20  21
ENDBRANCH   1  20
BRANCH  19  34
HETATM   34  O6  UNL     1      13.732  21.529   7.608  1.00  0.00    -0.392 OA
ATOM     35  H6  UNL     1      13.789  20.793   7.011  1.00  0.00     0.210 HD
ENDBRANCH  19  34
BRANCH   8  36
HETATM   36  C19 UNL     1      17.454  21.676   6.705  1.00  0.00     0.118 C 
BRANCH  36  37
HETATM   37  C20 UNL     1      17.429  20.590   7.719  1.00  0.00     0.172 C 
HETATM   38  O3  UNL     1      18.549  20.058   8.037  1.00  0.00    -0.648 OA
HETATM   39  O4  UNL     1      16.320  20.099   8.346  1.00  0.00    -0.648 OA
ENDBRANCH  36  37
ENDBRANCH   8  36
BRANCH  12  40
HETATM   40  O5  UNL     1      19.236  17.865   3.226  1.00  0.00    -0.396 OA
ATOM     41  H5  UNL     1      19.596  18.049   2.366  1.00  0.00     0.210 HD
ENDBRANCH  12  40
TORSDOF 13
ENDMDL
MODEL 3
REMARK VINA RESULT: -8.774230507      0.930      1.159
REMARK  13 active torsions:
REMARK  status: ('A' for Active; 'I' for Inactive)
REMARK    1  A    between atoms: C2_2  and  C3_3 
REMARK    2  A    between atoms: C3_3  and  N1_4 
REMARK       I    between atoms: N1_4  and  C4_6 
REMARK    3  A    between atoms: C4_6  and  C5_8 
REMARK    4  A    between atoms: C5_8  and  C6_9 
REMARK    5  A    between atoms: C7_10  and  C8_11 
REMARK    6  A    between atoms: C8_11  and  C9_12 
REMARK    7  A    between atoms: C9_12  and  C10_13 
REMARK    8  A    between atoms: C10_13  and  O2_14 
REMARK    9  A    between atoms: O2_14  and  C11_15 
REMARK   10  A    between atoms: C18_22  and  C19_23 
REMARK   11  A    between atoms: C19_23  and  C20_24 
REMARK   12  A    between atoms: C24_30  and  O5_31 
REMARK   13  A    between atoms: C31_39  and  O6_40 
ROOT
HETATM    1  C11 UNL     1      12.407  23.100   3.776  1.00  0.00     0.151 C 
HETATM    2  C12 UNL     1      12.011  23.573   5.133  1.00  0.00     0.040 C 
HETATM    3  C13 UNL     1      13.141  23.154   5.999  1.00  0.00     0.003 C 
HETATM    4  C14 UNL     1      12.763  22.779   7.409  1.00  0.00     0.033 C 
HETATM    5  C15 UNL     1      14.057  22.536   8.101  1.00  0.00    -0.022 C 
HETATM    6  C16 UNL     1      15.068  22.034   7.421  1.00  0.00    -0.070 C 
HETATM    7  C17 UNL     1      15.054  21.667   5.975  1.00  0.00     0.031 C 
HETATM    8  C18 UNL     1      15.601  20.283   5.860  1.00  0.00     0.005 C 
HETATM    9  C21 UNL     1      16.901  20.135   6.580  1.00  0.00     0.011 C 
HETATM   10  C22 UNL     1      17.382  21.369   7.281  1.00  0.00     0.001 C 
HETATM   11  C23 UNL     1      18.650  21.078   8.006  1.00  0.00     0.037 C 
HETATM   12  C24 UNL     1      18.536  20.258   9.229  1.00  0.00     0.118 C 
HETATM   13  C25 UNL     1      17.312  20.463  10.052  1.00  0.00     0.033 C 
HETATM   14  C26 UNL     1      16.078  20.788   9.255  1.00  0.00     0.016 C 
HETATM   15  C27 UNL     1      16.330  21.838   8.220  1.00  0.00    -0.017 C 
HETATM   16  C28 UNL     1      16.690  23.128   8.924  1.00  0.00     0.020 C 
HETATM   17  C29 UNL     1      13.759  21.914   5.321  1.00  0.00    -0.004 C 
HETATM   18  C30 UNL     1      12.749  20.823   5.431  1.00  0.00     0.019 C 
HETATM   19  C31 UNL     1      13.811  22.483   3.922  1.00  0.00     0.156 C 
ENDROOT
BRANCH   1  20
HETATM   20  O2  UNL     1      12.423  24.065   2.794  1.00  0.00    -0.383 OA
BRANCH  20  21
HETATM   21  C10 UNL     1      11.129  24.622   2.741  1.00  0.00     0.168 C 
BRANCH  21  22
HETATM   22  C9  UNL     1      10.209  23.534   2.202  1.00  0.00     0.030 C 
BRANCH  22  23
HETATM   23  C8  UNL     1       8.836  23.680   2.769  1.00  0.00     0.029 C 
BRANCH  23  24
HETATM   24  C7  UNL     1       8.020  24.804   2.339  1.00  0.00    -0.030 C 
HETATM   25  C6  UNL     1       7.894  26.128   2.900  1.00  0.00    -0.022 C 
BRANCH  25  26
HETATM   26  C5  UNL     1       7.573  26.478   4.273  1.00  0.00     0.129 C 
BRANCH  26  27
HETATM   27  C4  UNL     1       8.664  27.061   5.118  1.00  0.00     0.221 C 
HETATM   28  N1  UNL     1       9.391  26.203   5.932  1.00  0.00    -0.361 N 
ATOM     29  H1  UNL     1       9.092  25.231   5.860  1.00  0.00     0.162 HD
HETATM   30  O1  UNL     1       8.847  28.272   5.040  1.00  0.00    -0.273 OA
BRANCH  28  31
HETATM   31  C3  UNL     1      10.461  26.394   6.841  1.00  0.00     0.122 C 
BRANCH  31  32
HETATM   32  C2  UNL     1      10.487  25.679   8.135  1.00  0.00     0.015 C 
HETATM   33  C1  UNL     1      11.618  26.005   9.041  1.00  0.00     0.006 C 
ENDBRANCH  31  32
ENDBRANCH  28  31
ENDBRANCH  26  27
ENDBRANCH  25  26
ENDBRANCH  23  24
ENDBRANCH  22  23
ENDBRANCH  21  22
ENDBRANCH  20  21
ENDBRANCH   1  20
BRANCH  19  34
HETATM   34  O6  UNL     1      14.792  23.441   3.818  1.00  0.00    -0.392 OA
ATOM     35  H6  UNL     1      15.574  23.187   4.292  1.00  0.00     0.210 HD
ENDBRANCH  19  34
BRANCH   8  36
HETATM   36  C19 UNL     1      15.807  19.801   4.456  1.00  0.00     0.118 C 
BRANCH  36  37
HETATM   37  C20 UNL     1      15.735  18.317   4.408  1.00  0.00     0.172 C 
HETATM   38  O3  UNL     1      14.575  17.783   4.478  1.00  0.00    -0.648 OA
HETATM   39  O4  UNL     1      16.795  17.464   4.298  1.00  0.00    -0.648 OA
ENDBRANCH  36  37
ENDBRANCH   8  36
BRANCH  12  40
HETATM   40  O5  UNL     1      18.709  18.874   8.987  1.00  0.00    -0.396 OA
ATOM     41  H5  UNL     1      18.682  18.652   8.063  1.00  0.00     0.210 HD
ENDBRANCH  12  40
TORSDOF 13
ENDMDL
MODEL 4
REMARK VINA RESULT: -8.600451523      2.621      8.537
REMARK  13 active torsions:
REMARK  status: ('A' for Active; 'I' for Inactive)
REMARK    1  A    between atoms: C2_2  and  C3_3 
REMARK    2  A    between atoms: C3_3  and  N1_4 
REMARK       I    between atoms: N1_4  and  C4_6 
REMARK    3  A    between atoms: C4_6  and  C5_8 
REMARK    4  A    between atoms: C5_8  and  C6_9 
REMARK    5  A    between atoms: C7_10  and  C8_11 
REMARK    6  A    between atoms: C8_11  and  C9_12 
REMARK    7  A    between atoms: C9_12  and  C10_13 
REMARK    8  A    between atoms: C10_13  and  O2_14 
REMARK    9  A    between atoms: O2_14  and  C11_15 
REMARK   10  A    between atoms: C18_22  and  C19_23 
REMARK   11  A    between atoms: C19_23  and  C20_24 
REMARK   12  A    between atoms: C24_30  and  O5_31 
REMARK   13  A    between atoms: C31_39  and  O6_40 
ROOT
HETATM    1  C11 UNL     1      14.045  21.326   5.308  1.00  0.00     0.151 C 
HETATM    2  C12 UNL     1      14.410  21.823   6.665  1.00  0.00     0.040 C 
HETATM    3  C13 UNL     1      13.369  22.839   6.962  1.00  0.00     0.003 C 
HETATM    4  C14 UNL     1      13.831  24.002   7.801  1.00  0.00     0.033 C 
HETATM    5  C15 UNL     1      12.600  24.792   8.073  1.00  0.00    -0.022 C 
HETATM    6  C16 UNL     1      11.647  24.835   7.163  1.00  0.00    -0.070 C 
HETATM    7  C17 UNL     1      11.673  24.153   5.837  1.00  0.00     0.031 C 
HETATM    8  C18 UNL     1      11.313  25.168   4.803  1.00  0.00     0.005 C 
HETATM    9  C21 UNL     1      10.064  25.906   5.158  1.00  0.00     0.011 C 
HETATM   10  C22 UNL     1       9.441  25.510   6.461  1.00  0.00     0.001 C 
HETATM   11  C23 UNL     1       8.243  26.352   6.728  1.00  0.00     0.037 C 
HETATM   12  C24 UNL     1       8.498  27.755   7.116  1.00  0.00     0.118 C 
HETATM   13  C25 UNL     1       9.704  28.001   7.953  1.00  0.00     0.033 C 
HETATM   14  C26 UNL     1      10.863  27.089   7.653  1.00  0.00     0.016 C 
HETATM   15  C27 UNL     1      10.445  25.657   7.547  1.00  0.00    -0.017 C 
HETATM   16  C28 UNL     1       9.934  25.206   8.898  1.00  0.00     0.020 C 
HETATM   17  C29 UNL     1      12.905  23.385   5.597  1.00  0.00    -0.004 C 
HETATM   18  C30 UNL     1      14.055  24.148   5.032  1.00  0.00     0.019 C 
HETATM   19  C31 UNL     1      12.741  22.046   4.916  1.00  0.00     0.156 C 
ENDROOT
BRANCH   1  20
HETATM   20  O2  UNL     1      13.875  19.964   5.202  1.00  0.00    -0.383 OA
BRANCH  20  21
HETATM   21  C10 UNL     1      14.503  19.560   4.007  1.00  0.00     0.168 C 
BRANCH  21  22
HETATM   22  C9  UNL     1      15.240  18.264   4.320  1.00  0.00     0.030 C 
BRANCH  22  23
HETATM   23  C8  UNL     1      15.975  17.775   3.117  1.00  0.00     0.029 C 
BRANCH  23  24
HETATM   24  C7  UNL     1      17.311  18.285   2.860  1.00  0.00    -0.030 C 
HETATM   25  C6  UNL     1      18.573  17.931   3.465  1.00  0.00    -0.022 C 
BRANCH  25  26
HETATM   26  C5  UNL     1      18.899  17.916   4.881  1.00  0.00     0.129 C 
BRANCH  26  27
HETATM   27  C4  UNL     1      18.636  19.160   5.672  1.00  0.00     0.221 C 
HETATM   28  N1  UNL     1      17.837  19.061   6.803  1.00  0.00    -0.361 N 
ATOM     29  H1  UNL     1      17.507  18.113   6.980  1.00  0.00     0.162 HD
HETATM   30  O1  UNL     1      19.143  20.201   5.265  1.00  0.00    -0.273 OA
BRANCH  28  31
HETATM   31  C3  UNL     1      17.385  20.000   7.764  1.00  0.00     0.122 C 
BRANCH  31  32
HETATM   32  C2  UNL     1      18.296  21.040   8.288  1.00  0.00     0.015 C 
HETATM   33  C1  UNL     1      17.678  22.354   8.602  1.00  0.00     0.006 C 
ENDBRANCH  31  32
ENDBRANCH  28  31
ENDBRANCH  26  27
ENDBRANCH  25  26
ENDBRANCH  23  24
ENDBRANCH  22  23
ENDBRANCH  21  22
ENDBRANCH  20  21
ENDBRANCH   1  20
BRANCH  19  34
HETATM   34  O6  UNL     1      11.638  21.381   5.399  1.00  0.00    -0.392 OA
ATOM     35  H6  UNL     1      10.947  21.340   4.749  1.00  0.00     0.210 HD
ENDBRANCH  19  34
BRANCH   8  36
HETATM   36  C19 UNL     1      11.137  24.624   3.419  1.00  0.00     0.118 C 
BRANCH  36  37
HETATM   37  C20 UNL     1       9.798  23.994   3.282  1.00  0.00     0.172 C 
HETATM   38  O3  UNL     1       9.713  22.740   3.524  1.00  0.00    -0.648 OA
HETATM   39  O4  UNL     1       8.644  24.626   2.920  1.00  0.00    -0.648 OA
ENDBRANCH  36  37
ENDBRANCH   8  36
BRANCH  12  40
HETATM   40  O5  UNL     1       8.505  28.643   6.013  1.00  0.00    -0.396 OA
ATOM     41  H5  UNL     1       7.665  28.696   5.573  1.00  0.00     0.210 HD
ENDBRANCH  12  40
TORSDOF 13
ENDMDL
MODEL 5
REMARK VINA RESULT: -8.597131255      1.998      4.702
REMARK  13 active torsions:
REMARK  status: ('A' for Active; 'I' for Inactive)
REMARK    1  A    between atoms: C2_2  and  C3_3 
REMARK    2  A    between atoms: C3_3  and  N1_4 
REMARK       I    between atoms: N1_4  and  C4_6 
REMARK    3  A    between atoms: C4_6  and  C5_8 
REMARK    4  A    between atoms: C5_8  and  C6_9 
REMARK    5  A    between atoms: C7_10  and  C8_11 
REMARK    6  A    between atoms: C8_11  and  C9_12 
REMARK    7  A    between atoms: C9_12  and  C10_13 
REMARK    8  A    between atoms: C10_13  and  O2_14 
REMARK    9  A    between atoms: O2_14  and  C11_15 
REMARK   10  A    between atoms: C18_22  and  C19_23 
REMARK   11  A    between atoms: C19_23  and  C20_24 
REMARK   12  A    between atoms: C24_30  and  O5_31 
REMARK   13  A    between atoms: C31_39  and  O6_40 
ROOT
HETATM    1  C11 UNL     1      13.109  24.312   7.646  1.00  0.00     0.151 C 
HETATM    2  C12 UNL     1      13.219  24.723   6.217  1.00  0.00     0.040 C 
HETATM    3  C13 UNL     1      13.759  23.516   5.542  1.00  0.00     0.003 C 
HETATM    4  C14 UNL     1      14.667  23.791   4.371  1.00  0.00     0.033 C 
HETATM    5  C15 UNL     1      14.959  22.453   3.790  1.00  0.00    -0.022 C 
HETATM    6  C16 UNL     1      15.033  21.406   4.588  1.00  0.00    -0.070 C 
HETATM    7  C17 UNL     1      14.851  21.419   6.068  1.00  0.00     0.031 C 
HETATM    8  C18 UNL     1      16.008  20.691   6.668  1.00  0.00     0.005 C 
HETATM    9  C21 UNL     1      16.221  19.359   6.026  1.00  0.00     0.011 C 
HETATM   10  C22 UNL     1      15.270  19.029   4.918  1.00  0.00     0.001 C 
HETATM   11  C23 UNL     1      15.621  17.709   4.324  1.00  0.00     0.037 C 
HETATM   12  C24 UNL     1      16.835  17.667   3.484  1.00  0.00     0.118 C 
HETATM   13  C25 UNL     1      17.116  18.878   2.665  1.00  0.00     0.033 C 
HETATM   14  C26 UNL     1      16.702  20.172   3.312  1.00  0.00     0.016 C 
HETATM   15  C27 UNL     1      15.325  20.102   3.892  1.00  0.00    -0.017 C 
HETATM   16  C28 UNL     1      14.340  19.900   2.761  1.00  0.00     0.020 C 
HETATM   17  C29 UNL     1      14.569  22.757   6.612  1.00  0.00    -0.004 C 
HETATM   18  C30 UNL     1      15.757  23.603   6.924  1.00  0.00     0.019 C 
HETATM   19  C31 UNL     1      13.532  22.832   7.708  1.00  0.00     0.156 C 
ENDROOT
BRANCH   1  20
HETATM   20  O2  UNL     1      11.862  24.463   8.211  1.00  0.00    -0.383 OA
BRANCH  20  21
HETATM   21  C10 UNL     1      11.737  25.818   8.579  1.00  0.00     0.168 C 
BRANCH  21  22
HETATM   22  C9  UNL     1      10.278  26.031   8.961  1.00  0.00     0.030 C 
BRANCH  22  23
HETATM   23  C8  UNL     1       9.413  26.031   7.745  1.00  0.00     0.029 C 
BRANCH  23  24
HETATM   24  C7  UNL     1       9.844  26.789   6.582  1.00  0.00    -0.030 C 
HETATM   25  C6  UNL     1       9.065  27.450   5.562  1.00  0.00    -0.022 C 
BRANCH  25  26
HETATM   26  C5  UNL     1       8.016  26.872   4.740  1.00  0.00     0.129 C 
BRANCH  26  27
HETATM   27  C4  UNL     1       8.396  26.351   3.389  1.00  0.00     0.221 C 
HETATM   28  N1  UNL     1       9.625  25.720   3.251  1.00  0.00    -0.361 N 
ATOM     29  H1  UNL     1      10.154  25.677   4.122  1.00  0.00     0.162 HD
HETATM   30  O1  UNL     1       7.592  26.517   2.477  1.00  0.00    -0.273 OA
BRANCH  28  31
HETATM   31  C3  UNL     1      10.299  25.123   2.156  1.00  0.00     0.122 C 
BRANCH  31  32
HETATM   32  C2  UNL     1      11.232  23.997   2.370  1.00  0.00     0.015 C 
HETATM   33  C1  UNL     1      10.854  23.024   3.427  1.00  0.00     0.006 C 
ENDBRANCH  31  32
ENDBRANCH  28  31
ENDBRANCH  26  27
ENDBRANCH  25  26
ENDBRANCH  23  24
ENDBRANCH  22  23
ENDBRANCH  21  22
ENDBRANCH  20  21
ENDBRANCH   1  20
BRANCH  19  34
HETATM   34  O6  UNL     1      12.473  21.997   7.440  1.00  0.00    -0.392 OA
ATOM     35  H6  UNL     1      12.274  21.441   8.184  1.00  0.00     0.210 HD
ENDBRANCH  19  34
BRANCH   8  36
HETATM   36  C19 UNL     1      15.916  20.469   8.147  1.00  0.00     0.118 C 
BRANCH  36  37
HETATM   37  C20 UNL     1      17.268  20.539   8.761  1.00  0.00     0.172 C 
HETATM   38  O3  UNL     1      17.662  19.523   9.430  1.00  0.00    -0.648 OA
HETATM   39  O4  UNL     1      18.134  21.592   8.681  1.00  0.00    -0.648 OA
ENDBRANCH  36  37
ENDBRANCH   8  36
BRANCH  12  40
HETATM   40  O5  UNL     1      17.999  17.312   4.208  1.00  0.00    -0.396 OA
ATOM     41  H5  UNL     1      18.802  17.556   3.764  1.00  0.00     0.210 HD
ENDBRANCH  12  40
TORSDOF 13
ENDMDL
