MODEL 1
REMARK VINA RESULT: -8.240473159      0.000      0.000
REMARK  15 active torsions:
REMARK  status: ('A' for Active; 'I' for Inactive)
REMARK    1  A    between atoms: C4_4  and  O1_5 
REMARK    2  A    between atoms: C5_7  and  C6_8 
REMARK    3  A    between atoms: C6_8  and  O2_9 
REMARK    4  A    between atoms: C6_8  and  C7_11 
REMARK    5  A    between atoms: C7_11  and  C8_12 
REMARK    6  A    between atoms: C8_12  and  C9_13 
REMARK    7  A    between atoms: C9_13  and  C10_14 
REMARK    8  A    between atoms: C10_14  and  C11_15 
REMARK    9  A    between atoms: C11_15  and  C12_16 
REMARK   10  A    between atoms: C12_16  and  O3_17 
REMARK   11  A    between atoms: C14_19  and  C15_20 
REMARK   12  A    between atoms: C16_21  and  O4_22 
REMARK   13  A    between atoms: C19_26  and  C20_27 
REMARK   14  A    between atoms: C25_32  and  C26_33 
REMARK   15  A    between atoms: C26_33  and  C27_34 
ROOT
HETATM    1  C1  UNL     1      14.082  20.527   4.108  1.00  0.00     0.015 C 
HETATM    2  C2  UNL     1      13.850  21.814   4.369  1.00  0.00    -0.083 C 
HETATM    3  C3  UNL     1      15.085  22.618   4.632  1.00  0.00     0.065 C 
HETATM    4  C4  UNL     1      14.693  24.041   4.689  1.00  0.00     0.129 C 
HETATM    5  C5  UNL     1      13.549  24.323   5.636  1.00  0.00     0.049 C 
HETATM    6  C14 UNL     1      12.294  23.655   5.122  1.00  0.00     0.009 C 
HETATM    7  C31 UNL     1      12.485  22.386   4.391  1.00  0.00     0.015 C 
HETATM    8  C32 UNL     1      11.578  21.271   4.888  1.00  0.00     0.015 C 
ENDROOT
BRANCH   6   9
HETATM    9  C15 UNL     1      11.451  24.680   4.458  1.00  0.00     0.028 C 
HETATM   10  C16 UNL     1      10.419  25.183   5.436  1.00  0.00     0.127 C 
HETATM   11  C17 UNL     1       9.510  26.010   4.509  1.00  0.00     0.066 C 
HETATM   12  C18 UNL     1       9.359  25.056   3.386  1.00  0.00    -0.073 C 
HETATM   13  C19 UNL     1       8.293  24.956   2.615  1.00  0.00     0.003 C 
HETATM   14  C29 UNL     1      10.627  24.257   3.308  1.00  0.00     0.017 C 
HETATM   15  C30 UNL     1      11.227  24.625   1.959  1.00  0.00     0.015 C 
BRANCH  10  16
HETATM   16  O4  UNL     1       9.585  24.128   5.874  1.00  0.00    -0.395 OA
ATOM     17  H4  UNL     1       9.834  23.841   6.744  1.00  0.00     0.210 HD
ENDBRANCH  10  16
BRANCH  13  18
HETATM   18  C20 UNL     1       7.135  25.798   2.804  1.00  0.00     0.003 C 
HETATM   19  C21 UNL     1       5.961  25.287   3.187  1.00  0.00    -0.080 C 
HETATM   20  C22 UNL     1       5.909  23.832   3.404  1.00  0.00     0.034 C 
HETATM   21  C28 UNL     1       4.822  26.191   3.360  1.00  0.00     0.039 C 
HETATM   22  C23 UNL     1       4.510  23.331   3.636  1.00  0.00     0.005 C 
HETATM   23  C24 UNL     1       3.890  24.256   4.669  1.00  0.00     0.005 C 
HETATM   24  C25 UNL     1       3.598  25.552   3.905  1.00  0.00    -0.001 C 
BRANCH  24  25
HETATM   25  C26 UNL     1       2.837  26.437   4.865  1.00  0.00     0.118 C 
BRANCH  25  26
HETATM   26  C27 UNL     1       3.397  26.508   6.210  1.00  0.00     0.172 C 
HETATM   27  O5  UNL     1       2.758  26.032   7.178  1.00  0.00    -0.648 OA
HETATM   28  O6  UNL     1       4.627  27.093   6.443  1.00  0.00    -0.648 OA
ENDBRANCH  25  26
ENDBRANCH  24  25
ENDBRANCH  13  18
ENDBRANCH   6   9
BRANCH   5  29
HETATM   29  C6  UNL     1      13.824  23.994   7.075  1.00  0.00     0.125 C 
BRANCH  29  30
HETATM   30  O2  UNL     1      15.071  24.320   7.524  1.00  0.00    -0.395 OA
ATOM     31  H2  UNL     1      15.416  23.763   8.213  1.00  0.00     0.210 HD
ENDBRANCH  29  30
BRANCH  29  32
HETATM   32  C7  UNL     1      12.719  24.412   7.993  1.00  0.00     0.032 C 
BRANCH  32  33
HETATM   33  C8  UNL     1      12.725  25.948   8.023  1.00  0.00     0.002 C 
BRANCH  33  34
HETATM   34  C9  UNL     1      11.823  26.455   9.121  1.00  0.00     0.000 C 
BRANCH  34  35
HETATM   35  C10 UNL     1      10.420  25.948   9.019  1.00  0.00     0.002 C 
BRANCH  35  36
HETATM   36  C11 UNL     1       9.460  26.921   8.398  1.00  0.00     0.026 C 
BRANCH  36  37
HETATM   37  C12 UNL     1       9.947  28.328   8.406  1.00  0.00     0.167 C 
BRANCH  37  38
HETATM   38  O3  UNL     1       9.046  29.198   7.880  1.00  0.00    -0.396 OA
HETATM   39  C13 UNL     1       8.016  28.605   7.188  1.00  0.00     0.201 C 
ENDBRANCH  37  38
ENDBRANCH  36  37
ENDBRANCH  35  36
ENDBRANCH  34  35
ENDBRANCH  33  34
ENDBRANCH  32  33
ENDBRANCH  29  32
ENDBRANCH   5  29
BRANCH   4  40
HETATM   40  O1  UNL     1      15.762  24.876   4.834  1.00  0.00    -0.395 OA
ATOM     41  H1  UNL     1      15.657  25.482   5.558  1.00  0.00     0.210 HD
ENDBRANCH   4  40
TORSDOF 15
ENDMDL
MODEL 2
REMARK VINA RESULT: -7.926220295      2.568      3.164
REMARK  15 active torsions:
REMARK  status: ('A' for Active; 'I' for Inactive)
REMARK    1  A    between atoms: C4_4  and  O1_5 
REMARK    2  A    between atoms: C5_7  and  C6_8 
REMARK    3  A    between atoms: C6_8  and  O2_9 
REMARK    4  A    between atoms: C6_8  and  C7_11 
REMARK    5  A    between atoms: C7_11  and  C8_12 
REMARK    6  A    between atoms: C8_12  and  C9_13 
REMARK    7  A    between atoms: C9_13  and  C10_14 
REMARK    8  A    between atoms: C10_14  and  C11_15 
REMARK    9  A    between atoms: C11_15  and  C12_16 
REMARK   10  A    between atoms: C12_16  and  O3_17 
REMARK   11  A    between atoms: C14_19  and  C15_20 
REMARK   12  A    between atoms: C16_21  and  O4_22 
REMARK   13  A    between atoms: C19_26  and  C20_27 
REMARK   14  A    between atoms: C25_32  and  C26_33 
REMARK   15  A    between atoms: C26_33  and  C27_34 
ROOT
HETATM    1  C1  UNL     1      15.560  21.031   3.937  1.00  0.00     0.015 C 
HETATM    2  C2  UNL     1      14.646  21.948   4.255  1.00  0.00    -0.083 C 
HETATM    3  C3  UNL     1      15.187  23.339   4.369  1.00  0.00     0.065 C 
HETATM    4  C4  UNL     1      14.040  24.258   4.512  1.00  0.00     0.129 C 
HETATM    5  C5  UNL     1      13.076  23.870   5.609  1.00  0.00     0.049 C 
HETATM    6  C14 UNL     1      12.408  22.561   5.252  1.00  0.00     0.009 C 
HETATM    7  C31 UNL     1      13.222  21.607   4.473  1.00  0.00     0.015 C 
HETATM    8  C32 UNL     1      13.219  20.205   5.061  1.00  0.00     0.015 C 
ENDROOT
BRANCH   6   9
HETATM    9  C15 UNL     1      11.050  22.851   4.731  1.00  0.00     0.028 C 
HETATM   10  C16 UNL     1      11.002  22.524   3.259  1.00  0.00     0.127 C 
HETATM   11  C17 UNL     1       9.641  23.126   2.866  1.00  0.00     0.066 C 
HETATM   12  C18 UNL     1       9.742  24.442   3.537  1.00  0.00    -0.073 C 
HETATM   13  C19 UNL     1       9.183  25.557   3.106  1.00  0.00     0.003 C 
HETATM   14  C29 UNL     1      10.581  24.251   4.767  1.00  0.00     0.017 C 
HETATM   15  C30 UNL     1       9.638  24.549   5.922  1.00  0.00     0.015 C 
BRANCH  10  16
HETATM   16  O4  UNL     1      11.937  23.306   2.541  1.00  0.00    -0.395 OA
ATOM     17  H4  UNL     1      11.524  23.723   1.794  1.00  0.00     0.210 HD
ENDBRANCH  10  16
BRANCH  13  18
HETATM   18  C20 UNL     1       8.393  25.595   1.898  1.00  0.00     0.003 C 
HETATM   19  C21 UNL     1       7.092  25.287   1.911  1.00  0.00    -0.080 C 
HETATM   20  C22 UNL     1       6.511  24.910   3.208  1.00  0.00     0.034 C 
HETATM   21  C28 UNL     1       6.344  25.342   0.653  1.00  0.00     0.039 C 
HETATM   22  C23 UNL     1       5.104  24.393   3.085  1.00  0.00     0.005 C 
HETATM   23  C24 UNL     1       4.362  25.380   2.201  1.00  0.00     0.005 C 
HETATM   24  C25 UNL     1       4.884  25.105   0.786  1.00  0.00    -0.001 C 
BRANCH  24  25
HETATM   25  C26 UNL     1       4.051  25.962  -0.138  1.00  0.00     0.118 C 
BRANCH  25  26
HETATM   26  C27 UNL     1       4.357  25.811  -1.556  1.00  0.00     0.172 C 
HETATM   27  O5  UNL     1       4.659  26.818  -2.239  1.00  0.00    -0.648 OA
HETATM   28  O6  UNL     1       4.321  24.574  -2.169  1.00  0.00    -0.648 OA
ENDBRANCH  25  26
ENDBRANCH  24  25
ENDBRANCH  13  18
ENDBRANCH   6   9
BRANCH   5  29
HETATM   29  C6  UNL     1      13.665  23.854   6.990  1.00  0.00     0.125 C 
BRANCH  29  30
HETATM   30  O2  UNL     1      14.935  24.343   7.093  1.00  0.00    -0.395 OA
ATOM     31  H2  UNL     1      15.009  25.291   7.107  1.00  0.00     0.210 HD
ENDBRANCH  29  30
BRANCH  29  32
HETATM   32  C7  UNL     1      12.727  24.375   8.033  1.00  0.00     0.032 C 
BRANCH  32  33
HETATM   33  C8  UNL     1      12.554  25.877   7.763  1.00  0.00     0.002 C 
BRANCH  33  34
HETATM   34  C9  UNL     1      11.882  26.548   8.936  1.00  0.00     0.000 C 
BRANCH  34  35
HETATM   35  C10 UNL     1      10.477  26.089   9.156  1.00  0.00     0.002 C 
BRANCH  35  36
HETATM   36  C11 UNL     1       9.436  27.000   8.574  1.00  0.00     0.026 C 
BRANCH  36  37
HETATM   37  C12 UNL     1       9.916  28.393   8.354  1.00  0.00     0.167 C 
BRANCH  37  38
HETATM   38  O3  UNL     1       8.926  29.233   7.952  1.00  0.00    -0.396 OA
HETATM   39  C13 UNL     1       7.956  28.641   7.177  1.00  0.00     0.201 C 
ENDBRANCH  37  38
ENDBRANCH  36  37
ENDBRANCH  35  36
ENDBRANCH  34  35
ENDBRANCH  33  34
ENDBRANCH  32  33
ENDBRANCH  29  32
ENDBRANCH   5  29
BRANCH   4  40
HETATM   40  O1  UNL     1      14.417  25.569   4.531  1.00  0.00    -0.395 OA
ATOM     41  H1  UNL     1      13.692  26.155   4.715  1.00  0.00     0.210 HD
ENDBRANCH   4  40
TORSDOF 15
ENDMDL
MODEL 3
REMARK VINA RESULT: -7.814705861      4.408      8.228
REMARK  15 active torsions:
REMARK  status: ('A' for Active; 'I' for Inactive)
REMARK    1  A    between atoms: C4_4  and  O1_5 
REMARK    2  A    between atoms: C5_7  and  C6_8 
REMARK    3  A    between atoms: C6_8  and  O2_9 
REMARK    4  A    between atoms: C6_8  and  C7_11 
REMARK    5  A    between atoms: C7_11  and  C8_12 
REMARK    6  A    between atoms: C8_12  and  C9_13 
REMARK    7  A    between atoms: C9_13  and  C10_14 
REMARK    8  A    between atoms: C10_14  and  C11_15 
REMARK    9  A    between atoms: C11_15  and  C12_16 
REMARK   10  A    between atoms: C12_16  and  O3_17 
REMARK   11  A    between atoms: C14_19  and  C15_20 
REMARK   12  A    between atoms: C16_21  and  O4_22 
REMARK   13  A    between atoms: C19_26  and  C20_27 
REMARK   14  A    between atoms: C25_32  and  C26_33 
REMARK   15  A    between atoms: C26_33  and  C27_34 
ROOT
HETATM    1  C1  UNL     1      20.049  20.702  11.017  1.00  0.00     0.015 C 
HETATM    2  C2  UNL     1      19.059  20.180  10.293  1.00  0.00    -0.083 C 
HETATM    3  C3  UNL     1      18.937  18.692  10.404  1.00  0.00     0.065 C 
HETATM    4  C4  UNL     1      17.685  18.290   9.730  1.00  0.00     0.129 C 
HETATM    5  C5  UNL     1      17.547  18.827   8.324  1.00  0.00     0.049 C 
HETATM    6  C14 UNL     1      17.430  20.334   8.370  1.00  0.00     0.009 C 
HETATM    7  C31 UNL     1      18.162  21.011   9.459  1.00  0.00     0.015 C 
HETATM    8  C32 UNL     1      19.013  22.172   8.969  1.00  0.00     0.015 C 
ENDROOT
BRANCH   6   9
HETATM    9  C15 UNL     1      16.002  20.701   8.205  1.00  0.00     0.028 C 
HETATM   10  C16 UNL     1      15.709  20.914   6.741  1.00  0.00     0.127 C 
HETATM   11  C17 UNL     1      14.298  21.526   6.807  1.00  0.00     0.066 C 
HETATM   12  C18 UNL     1      14.505  22.524   7.882  1.00  0.00    -0.073 C 
HETATM   13  C19 UNL     1      13.876  23.680   7.974  1.00  0.00     0.003 C 
HETATM   14  C29 UNL     1      15.539  21.964   8.815  1.00  0.00     0.017 C 
HETATM   15  C30 UNL     1      14.802  21.772  10.132  1.00  0.00     0.015 C 
BRANCH  10  16
HETATM   16  O4  UNL     1      16.506  21.958   6.217  1.00  0.00    -0.395 OA
ATOM     17  H4  UNL     1      17.045  21.643   5.501  1.00  0.00     0.210 HD
ENDBRANCH  10  16
BRANCH  13  18
HETATM   18  C20 UNL     1      12.894  24.092   6.999  1.00  0.00     0.003 C 
HETATM   19  C21 UNL     1      11.871  24.884   7.337  1.00  0.00    -0.080 C 
HETATM   20  C22 UNL     1      11.797  25.310   8.743  1.00  0.00     0.034 C 
HETATM   21  C28 UNL     1      10.906  25.267   6.304  1.00  0.00     0.039 C 
HETATM   22  C23 UNL     1      10.515  26.026   9.065  1.00  0.00     0.005 C 
HETATM   23  C24 UNL     1      10.314  27.057   7.968  1.00  0.00     0.005 C 
HETATM   24  C25 UNL     1       9.879  26.244   6.744  1.00  0.00    -0.001 C 
BRANCH  24  25
HETATM   25  C26 UNL     1       9.519  27.255   5.680  1.00  0.00     0.118 C 
BRANCH  25  26
HETATM   26  C27 UNL     1       8.089  27.477   5.503  1.00  0.00     0.172 C 
HETATM   27  O5  UNL     1       7.665  28.004   4.447  1.00  0.00    -0.648 OA
HETATM   28  O6  UNL     1       7.182  27.117   6.481  1.00  0.00    -0.648 OA
ENDBRANCH  25  26
ENDBRANCH  24  25
ENDBRANCH  13  18
ENDBRANCH   6   9
BRANCH   5  29
HETATM   29  C6  UNL     1      18.606  18.364   7.365  1.00  0.00     0.125 C 
BRANCH  29  30
HETATM   30  O2  UNL     1      18.539  17.049   7.005  1.00  0.00    -0.395 OA
ATOM     31  H2  UNL     1      19.371  16.638   6.801  1.00  0.00     0.210 HD
ENDBRANCH  29  30
BRANCH  29  32
HETATM   32  C7  UNL     1      18.802  19.300   6.214  1.00  0.00     0.032 C 
BRANCH  32  33
HETATM   33  C8  UNL     1      18.619  18.472   4.933  1.00  0.00     0.002 C 
BRANCH  33  34
HETATM   34  C9  UNL     1      17.352  18.876   4.222  1.00  0.00     0.000 C 
BRANCH  34  35
HETATM   35  C10 UNL     1      16.234  17.899   4.400  1.00  0.00     0.002 C 
BRANCH  35  36
HETATM   36  C11 UNL     1      14.886  18.433   4.010  1.00  0.00     0.026 C 
BRANCH  36  37
HETATM   37  C12 UNL     1      14.948  19.556   3.033  1.00  0.00     0.167 C 
BRANCH  37  38
HETATM   38  O3  UNL     1      14.167  20.608   3.393  1.00  0.00    -0.396 OA
HETATM   39  C13 UNL     1      14.716  21.842   3.130  1.00  0.00     0.201 C 
ENDBRANCH  37  38
ENDBRANCH  36  37
ENDBRANCH  35  36
ENDBRANCH  34  35
ENDBRANCH  33  34
ENDBRANCH  32  33
ENDBRANCH  29  32
ENDBRANCH   5  29
BRANCH   4  40
HETATM   40  O1  UNL     1      17.427  16.957   9.852  1.00  0.00    -0.395 OA
ATOM     41  H1  UNL     1      16.588  16.782  10.261  1.00  0.00     0.210 HD
ENDBRANCH   4  40
TORSDOF 15
ENDMDL
MODEL 4
REMARK VINA RESULT: -7.747587756      2.209      8.676
REMARK  15 active torsions:
REMARK  status: ('A' for Active; 'I' for Inactive)
REMARK    1  A    between atoms: C4_4  and  O1_5 
REMARK    2  A    between atoms: C5_7  and  C6_8 
REMARK    3  A    between atoms: C6_8  and  O2_9 
REMARK    4  A    between atoms: C6_8  and  C7_11 
REMARK    5  A    between atoms: C7_11  and  C8_12 
REMARK    6  A    between atoms: C8_12  and  C9_13 
REMARK    7  A    between atoms: C9_13  and  C10_14 
REMARK    8  A    between atoms: C10_14  and  C11_15 
REMARK    9  A    between atoms: C11_15  and  C12_16 
REMARK   10  A    between atoms: C12_16  and  O3_17 
REMARK   11  A    between atoms: C14_19  and  C15_20 
REMARK   12  A    between atoms: C16_21  and  O4_22 
REMARK   13  A    between atoms: C19_26  and  C20_27 
REMARK   14  A    between atoms: C25_32  and  C26_33 
REMARK   15  A    between atoms: C26_33  and  C27_34 
ROOT
HETATM    1  C1  UNL     1       6.214  25.729   0.210  1.00  0.00     0.015 C 
HETATM    2  C2  UNL     1       6.542  25.317   1.435  1.00  0.00    -0.083 C 
HETATM    3  C3  UNL     1       5.370  25.074   2.335  1.00  0.00     0.065 C 
HETATM    4  C4  UNL     1       5.872  24.426   3.564  1.00  0.00     0.129 C 
HETATM    5  C5  UNL     1       7.022  25.158   4.217  1.00  0.00     0.049 C 
HETATM    6  C14 UNL     1       8.228  25.116   3.305  1.00  0.00     0.009 C 
HETATM    7  C31 UNL     1       7.947  25.117   1.855  1.00  0.00     0.015 C 
HETATM    8  C32 UNL     1       8.757  26.154   1.094  1.00  0.00     0.015 C 
ENDROOT
BRANCH   6   9
HETATM    9  C15 UNL     1       9.157  24.070   3.798  1.00  0.00     0.028 C 
HETATM   10  C16 UNL     1       9.960  24.622   4.950  1.00  0.00     0.127 C 
HETATM   11  C17 UNL     1      11.011  23.514   5.136  1.00  0.00     0.066 C 
HETATM   12  C18 UNL     1      11.409  23.302   3.725  1.00  0.00    -0.073 C 
HETATM   13  C19 UNL     1      12.610  22.929   3.324  1.00  0.00     0.003 C 
HETATM   14  C29 UNL     1      10.204  23.586   2.876  1.00  0.00     0.017 C 
HETATM   15  C30 UNL     1       9.874  22.253   2.224  1.00  0.00     0.015 C 
BRANCH  10  16
HETATM   16  O4  UNL     1      10.719  25.744   4.540  1.00  0.00    -0.395 OA
ATOM     17  H4  UNL     1      11.588  25.719   4.922  1.00  0.00     0.210 HD
ENDBRANCH  10  16
BRANCH  13  18
HETATM   18  C20 UNL     1      13.683  22.686   4.259  1.00  0.00     0.003 C 
HETATM   19  C21 UNL     1      14.371  21.540   4.240  1.00  0.00    -0.080 C 
HETATM   20  C22 UNL     1      13.982  20.547   3.227  1.00  0.00     0.034 C 
HETATM   21  C28 UNL     1      15.448  21.350   5.215  1.00  0.00     0.039 C 
HETATM   22  C23 UNL     1      14.674  19.225   3.415  1.00  0.00     0.005 C 
HETATM   23  C24 UNL     1      16.146  19.539   3.616  1.00  0.00     0.005 C 
HETATM   24  C25 UNL     1      16.234  20.103   5.038  1.00  0.00    -0.001 C 
BRANCH  24  25
HETATM   25  C26 UNL     1      17.707  20.278   5.326  1.00  0.00     0.118 C 
BRANCH  25  26
HETATM   26  C27 UNL     1      18.062  20.260   6.740  1.00  0.00     0.172 C 
HETATM   27  O5  UNL     1      17.281  19.742   7.573  1.00  0.00    -0.648 OA
HETATM   28  O6  UNL     1      19.248  20.808   7.188  1.00  0.00    -0.648 OA
ENDBRANCH  25  26
ENDBRANCH  24  25
ENDBRANCH  13  18
ENDBRANCH   6   9
BRANCH   5  29
HETATM   29  C6  UNL     1       6.703  26.550   4.680  1.00  0.00     0.125 C 
BRANCH  29  30
HETATM   30  O2  UNL     1       5.862  26.635   5.752  1.00  0.00    -0.395 OA
ATOM     31  H2  UNL     1       5.444  27.479   5.879  1.00  0.00     0.210 HD
ENDBRANCH  29  30
BRANCH  29  32
HETATM   32  C7  UNL     1       7.913  27.423   4.787  1.00  0.00     0.032 C 
BRANCH  32  33
HETATM   33  C8  UNL     1       7.889  28.044   6.191  1.00  0.00     0.002 C 
BRANCH  33  34
HETATM   34  C9  UNL     1       9.108  27.622   6.974  1.00  0.00     0.000 C 
BRANCH  34  35
HETATM   35  C10 UNL     1       8.893  26.383   7.783  1.00  0.00     0.002 C 
BRANCH  35  36
HETATM   36  C11 UNL     1      10.136  25.859   8.442  1.00  0.00     0.026 C 
BRANCH  36  37
HETATM   37  C12 UNL     1      11.353  26.668   8.153  1.00  0.00     0.167 C 
BRANCH  37  38
HETATM   38  O3  UNL     1      12.187  26.065   7.266  1.00  0.00    -0.396 OA
HETATM   39  C13 UNL     1      12.865  24.979   7.768  1.00  0.00     0.201 C 
ENDBRANCH  37  38
ENDBRANCH  36  37
ENDBRANCH  35  36
ENDBRANCH  34  35
ENDBRANCH  33  34
ENDBRANCH  32  33
ENDBRANCH  29  32
ENDBRANCH   5  29
BRANCH   4  40
HETATM   40  O1  UNL     1       4.870  24.075   4.419  1.00  0.00    -0.395 OA
ATOM     41  H1  UNL     1       5.147  23.433   5.063  1.00  0.00     0.210 HD
ENDBRANCH   4  40
TORSDOF 15
ENDMDL
MODEL 5
REMARK VINA RESULT: -7.688580298      1.432      1.721
REMARK  15 active torsions:
REMARK  status: ('A' for Active; 'I' for Inactive)
REMARK    1  A    between atoms: C4_4  and  O1_5 
REMARK    2  A    between atoms: C5_7  and  C6_8 
REMARK    3  A    between atoms: C6_8  and  O2_9 
REMARK    4  A    between atoms: C6_8  and  C7_11 
REMARK    5  A    between atoms: C7_11  and  C8_12 
REMARK    6  A    between atoms: C8_12  and  C9_13 
REMARK    7  A    between atoms: C9_13  and  C10_14 
REMARK    8  A    between atoms: C10_14  and  C11_15 
REMARK    9  A    between atoms: C11_15  and  C12_16 
REMARK   10  A    between atoms: C12_16  and  O3_17 
REMARK   11  A    between atoms: C14_19  and  C15_20 
REMARK   12  A    between atoms: C16_21  and  O4_22 
REMARK   13  A    between atoms: C19_26  and  C20_27 
REMARK   14  A    between atoms: C25_32  and  C26_33 
REMARK   15  A    between atoms: C26_33  and  C27_34 
ROOT
HETATM    1  C1  UNL     1      14.306  20.177   4.741  1.00  0.00     0.015 C 
HETATM    2  C2  UNL     1      13.996  21.471   4.830  1.00  0.00    -0.083 C 
HETATM    3  C3  UNL     1      15.181  22.382   4.904  1.00  0.00     0.065 C 
HETATM    4  C4  UNL     1      14.691  23.770   4.782  1.00  0.00     0.129 C 
HETATM    5  C5  UNL     1      13.577  24.113   5.744  1.00  0.00     0.049 C 
HETATM    6  C14 UNL     1      12.349  23.298   5.403  1.00  0.00     0.009 C 
HETATM    7  C31 UNL     1      12.596  21.951   4.849  1.00  0.00     0.015 C 
HETATM    8  C32 UNL     1      11.796  20.865   5.552  1.00  0.00     0.015 C 
ENDROOT
BRANCH   6   9
HETATM    9  C15 UNL     1      11.404  24.160   4.651  1.00  0.00     0.028 C 
HETATM   10  C16 UNL     1      10.494  24.866   5.625  1.00  0.00     0.127 C 
HETATM   11  C17 UNL     1       9.455  25.478   4.668  1.00  0.00     0.066 C 
HETATM   12  C18 UNL     1       9.184  24.305   3.805  1.00  0.00    -0.073 C 
HETATM   13  C19 UNL     1       8.030  24.046   3.219  1.00  0.00     0.003 C 
HETATM   14  C29 UNL     1      10.450  23.503   3.735  1.00  0.00     0.017 C 
HETATM   15  C30 UNL     1      10.864  23.569   2.273  1.00  0.00     0.015 C 
BRANCH  10  16
HETATM   16  O4  UNL     1       9.749  23.934   6.383  1.00  0.00    -0.395 OA
ATOM     17  H4  UNL     1      10.038  23.047   6.204  1.00  0.00     0.210 HD
ENDBRANCH  10  16
BRANCH  13  18
HETATM   18  C20 UNL     1       6.887  24.914   3.372  1.00  0.00     0.003 C 
HETATM   19  C21 UNL     1       6.048  25.142   2.356  1.00  0.00    -0.080 C 
HETATM   20  C22 UNL     1       6.348  24.468   1.083  1.00  0.00     0.034 C 
HETATM   21  C28 UNL     1       4.907  26.034   2.572  1.00  0.00     0.039 C 
HETATM   22  C23 UNL     1       5.471  24.940  -0.043  1.00  0.00     0.005 C 
HETATM   23  C24 UNL     1       4.048  24.920   0.487  1.00  0.00     0.005 C 
HETATM   24  C25 UNL     1       3.966  26.128   1.427  1.00  0.00    -0.001 C 
BRANCH  24  25
HETATM   25  C26 UNL     1       2.519  26.228   1.849  1.00  0.00     0.118 C 
BRANCH  25  26
HETATM   26  C27 UNL     1       2.217  25.643   3.150  1.00  0.00     0.172 C 
HETATM   27  O5  UNL     1       2.002  26.390   4.135  1.00  0.00    -0.648 OA
HETATM   28  O6  UNL     1       2.162  24.274   3.325  1.00  0.00    -0.648 OA
ENDBRANCH  25  26
ENDBRANCH  24  25
ENDBRANCH  13  18
ENDBRANCH   6   9
BRANCH   5  29
HETATM   29  C6  UNL     1      13.944  24.015   7.197  1.00  0.00     0.125 C 
BRANCH  29  30
HETATM   30  O2  UNL     1      15.170  24.514   7.528  1.00  0.00    -0.395 OA
ATOM     31  H2  UNL     1      15.498  24.260   8.384  1.00  0.00     0.210 HD
ENDBRANCH  29  30
BRANCH  29  32
HETATM   32  C7  UNL     1      12.843  24.453   8.110  1.00  0.00     0.032 C 
BRANCH  32  33
HETATM   33  C8  UNL     1      12.786  25.986   8.033  1.00  0.00     0.002 C 
BRANCH  33  34
HETATM   34  C9  UNL     1      11.913  26.536   9.134  1.00  0.00     0.000 C 
BRANCH  34  35
HETATM   35  C10 UNL     1      10.514  26.010   9.100  1.00  0.00     0.002 C 
BRANCH  35  36
HETATM   36  C11 UNL     1       9.530  26.928   8.435  1.00  0.00     0.026 C 
BRANCH  36  37
HETATM   37  C12 UNL     1       9.956  28.355   8.425  1.00  0.00     0.167 C 
BRANCH  37  38
HETATM   38  O3  UNL     1       9.034  29.175   7.857  1.00  0.00    -0.396 OA
HETATM   39  C13 UNL     1       8.044  28.523   7.158  1.00  0.00     0.201 C 
ENDBRANCH  37  38
ENDBRANCH  36  37
ENDBRANCH  35  36
ENDBRANCH  34  35
ENDBRANCH  33  34
ENDBRANCH  32  33
ENDBRANCH  29  32
ENDBRANCH   5  29
BRANCH   4  40
HETATM   40  O1  UNL     1      15.703  24.684   4.745  1.00  0.00    -0.395 OA
ATOM     41  H1  UNL     1      16.528  24.304   4.466  1.00  0.00     0.210 HD
ENDBRANCH   4  40
TORSDOF 15
ENDMDL
