MODEL 1
REMARK VINA RESULT: -7.229634017      0.000      0.000
REMARK  4 active torsions:
REMARK  status: ('A' for Active; 'I' for Inactive)
REMARK    1  A    between atoms: C2_2  and  N2_6 
REMARK    2  A    between atoms: C5_9  and  N3_10 
REMARK       I    between atoms: N3_10  and  C6_12 
REMARK    3  A    between atoms: C6_12  and  C7_14 
REMARK    4  A    between atoms: C7_14  and  N4_15 
ROOT
HETATM    1  N3  UNL     1      19.135 -21.567 -56.631  1.00  0.00    -0.353 N 
ATOM      2  H3  UNL     1      19.570 -21.055 -55.864  1.00  0.00     0.163 HD
HETATM    3  C6  UNL     1      19.298 -22.964 -56.667  1.00  0.00     0.246 C 
HETATM    4  O1  UNL     1      18.776 -23.662 -57.621  1.00  0.00    -0.272 OA
ENDROOT
BRANCH   1   5
HETATM    5  C5  UNL     1      18.394 -20.814 -57.608  1.00  0.00     0.104 C 
HETATM    6  C4  UNL     1      18.975 -20.843 -58.974  1.00  0.00     0.046 C 
HETATM    7  C3  UNL     1      18.222 -19.710 -59.649  1.00  0.00     0.126 C 
HETATM    8  N2  UNL     1      18.140 -18.719 -58.570  1.00  0.00    -0.369 N 
HETATM    9  C13 UNL     1      18.193 -19.388 -57.293  1.00  0.00     0.149 C 
BRANCH   8  10
HETATM   10  C2  UNL     1      18.029 -17.320 -58.832  1.00  0.00     0.068 C 
HETATM   11  C1  UNL     1      18.762 -16.341 -57.985  1.00  0.00     0.088 C 
HETATM   12  N1  UNL     1      17.294 -16.885 -59.799  1.00  0.00    -0.389 N 
ATOM     13  H12 UNL     1      17.214 -15.886 -59.987  1.00  0.00     0.157 HD
ATOM     14  H11 UNL     1      16.791 -17.556 -60.380  1.00  0.00     0.157 HD
ENDBRANCH   8  10
ENDBRANCH   1   5
BRANCH   3  15
HETATM   15  C7  UNL     1      20.034 -23.803 -55.713  1.00  0.00     0.375 C 
BRANCH  15  16
HETATM   16  N4  UNL     1      19.479 -25.076 -55.397  1.00  0.00     0.103 N 
HETATM   17  C8  UNL     1      19.523 -25.122 -53.906  1.00  0.00     0.293 C 
HETATM   18  C9  UNL     1      21.005 -25.158 -53.600  1.00  0.00     0.112 C 
HETATM   19 CL1  UNL     1      21.364 -26.033 -52.106  1.00  0.00    -0.123 Cl
HETATM   20  C10 UNL     1      21.623 -25.902 -54.759  1.00  0.00     0.057 C 
HETATM   21  C11 UNL     1      20.414 -26.168 -55.640  1.00  0.00     0.221 C 
HETATM   22  C12 UNL     1      20.871 -26.334 -57.040  1.00  0.00     0.043 C 
ENDBRANCH  15  16
ENDBRANCH   3  15
TORSDOF 4
ENDMDL
MODEL 2
REMARK VINA RESULT: -7.202970955      6.234      9.877
REMARK  4 active torsions:
REMARK  status: ('A' for Active; 'I' for Inactive)
REMARK    1  A    between atoms: C2_2  and  N2_6 
REMARK    2  A    between atoms: C5_9  and  N3_10 
REMARK       I    between atoms: N3_10  and  C6_12 
REMARK    3  A    between atoms: C6_12  and  C7_14 
REMARK    4  A    between atoms: C7_14  and  N4_15 
ROOT
HETATM    1  N3  UNL     1      17.038 -14.999 -56.298  1.00  0.00    -0.353 N 
ATOM      2  H3  UNL     1      16.967 -15.610 -55.484  1.00  0.00     0.163 HD
HETATM    3  C6  UNL     1      16.491 -13.707 -56.201  1.00  0.00     0.246 C 
HETATM    4  O1  UNL     1      16.544 -12.893 -57.204  1.00  0.00    -0.272 OA
ENDROOT
BRANCH   1   5
HETATM    5  C5  UNL     1      17.690 -15.515 -57.473  1.00  0.00     0.104 C 
HETATM    6  C4  UNL     1      16.951 -15.276 -58.738  1.00  0.00     0.046 C 
HETATM    7  C3  UNL     1      17.666 -16.219 -59.691  1.00  0.00     0.126 C 
HETATM    8  N2  UNL     1      17.916 -17.382 -58.831  1.00  0.00    -0.369 N 
HETATM    9  C13 UNL     1      17.986 -16.958 -57.453  1.00  0.00     0.149 C 
BRANCH   8  10
HETATM   10  C2  UNL     1      18.055 -18.701 -59.359  1.00  0.00     0.068 C 
HETATM   11  C1  UNL     1      19.229 -19.534 -58.987  1.00  0.00     0.088 C 
HETATM   12  N1  UNL     1      17.171 -19.186 -60.165  1.00  0.00    -0.389 N 
ATOM     13  H12 UNL     1      17.270 -20.128 -60.542  1.00  0.00     0.157 HD
ATOM     14  H11 UNL     1      16.366 -18.615 -60.420  1.00  0.00     0.157 HD
ENDBRANCH   8  10
ENDBRANCH   1   5
BRANCH   3  15
HETATM   15  C7  UNL     1      15.814 -13.107 -55.044  1.00  0.00     0.375 C 
BRANCH  15  16
HETATM   16  N4  UNL     1      16.526 -13.076 -53.811  1.00  0.00     0.103 N 
HETATM   17  C8  UNL     1      16.137 -14.354 -53.145  1.00  0.00     0.293 C 
HETATM   18  C9  UNL     1      14.665 -14.161 -52.851  1.00  0.00     0.112 C 
HETATM   19 CL1  UNL     1      14.146 -15.035 -51.405  1.00  0.00    -0.123 Cl
HETATM   20  C10 UNL     1      14.508 -12.679 -52.605  1.00  0.00     0.057 C 
HETATM   21  C11 UNL     1      15.921 -12.173 -52.841  1.00  0.00     0.221 C 
HETATM   22  C12 UNL     1      15.857 -10.745 -53.232  1.00  0.00     0.043 C 
ENDBRANCH  15  16
ENDBRANCH   3  15
TORSDOF 4
ENDMDL
MODEL 3
REMARK VINA RESULT: -6.984339509      6.958      9.780
REMARK  4 active torsions:
REMARK  status: ('A' for Active; 'I' for Inactive)
REMARK    1  A    between atoms: C2_2  and  N2_6 
REMARK    2  A    between atoms: C5_9  and  N3_10 
REMARK       I    between atoms: N3_10  and  C6_12 
REMARK    3  A    between atoms: C6_12  and  C7_14 
REMARK    4  A    between atoms: C7_14  and  N4_15 
ROOT
HETATM    1  N3  UNL     1      16.227 -14.234 -55.616  1.00  0.00    -0.353 N 
ATOM      2  H3  UNL     1      16.188 -15.091 -55.064  1.00  0.00     0.163 HD
HETATM    3  C6  UNL     1      16.529 -14.347 -56.985  1.00  0.00     0.246 C 
HETATM    4  O1  UNL     1      16.600 -13.294 -57.732  1.00  0.00    -0.272 OA
ENDROOT
BRANCH   1   5
HETATM    5  C5  UNL     1      15.970 -12.988 -54.945  1.00  0.00     0.104 C 
HETATM    6  C4  UNL     1      17.185 -12.311 -54.424  1.00  0.00     0.046 C 
HETATM    7  C3  UNL     1      16.580 -11.277 -53.489  1.00  0.00     0.126 C 
HETATM    8  N2  UNL     1      15.466 -12.025 -52.895  1.00  0.00    -0.369 N 
HETATM    9  C13 UNL     1      15.037 -13.060 -53.806  1.00  0.00     0.149 C 
BRANCH   8  10
HETATM   10  C2  UNL     1      14.945 -11.712 -51.604  1.00  0.00     0.068 C 
HETATM   11  C1  UNL     1      14.695 -12.796 -50.617  1.00  0.00     0.088 C 
HETATM   12  N1  UNL     1      14.682 -10.491 -51.276  1.00  0.00    -0.389 N 
ATOM     13  H12 UNL     1      14.310 -10.267 -50.353  1.00  0.00     0.157 HD
ATOM     14  H11 UNL     1      14.853  -9.748 -51.952  1.00  0.00     0.157 HD
ENDBRANCH   8  10
ENDBRANCH   1   5
BRANCH   3  15
HETATM   15  C7  UNL     1      16.800 -15.575 -57.743  1.00  0.00     0.375 C 
BRANCH  15  16
HETATM   16  N4  UNL     1      17.730 -15.490 -58.818  1.00  0.00     0.103 N 
HETATM   17  C8  UNL     1      17.471 -16.728 -59.611  1.00  0.00     0.293 C 
HETATM   18  C9  UNL     1      17.915 -17.837 -58.682  1.00  0.00     0.112 C 
HETATM   19 CL1  UNL     1      18.523 -19.247 -59.558  1.00  0.00    -0.123 Cl
HETATM   20  C10 UNL     1      19.046 -17.242 -57.877  1.00  0.00     0.057 C 
HETATM   21  C11 UNL     1      19.090 -15.819 -58.406  1.00  0.00     0.221 C 
HETATM   22  C12 UNL     1      19.685 -14.942 -57.370  1.00  0.00     0.043 C 
ENDBRANCH  15  16
ENDBRANCH   3  15
TORSDOF 4
ENDMDL
MODEL 4
REMARK VINA RESULT: -6.918157163      1.491      1.882
REMARK  4 active torsions:
REMARK  status: ('A' for Active; 'I' for Inactive)
REMARK    1  A    between atoms: C2_2  and  N2_6 
REMARK    2  A    between atoms: C5_9  and  N3_10 
REMARK       I    between atoms: N3_10  and  C6_12 
REMARK    3  A    between atoms: C6_12  and  C7_14 
REMARK    4  A    between atoms: C7_14  and  N4_15 
ROOT
HETATM    1  N3  UNL     1      19.167 -21.855 -57.624  1.00  0.00    -0.353 N 
ATOM      2  H3  UNL     1      19.857 -22.231 -58.275  1.00  0.00     0.163 HD
HETATM    3  C6  UNL     1      19.109 -22.410 -56.333  1.00  0.00     0.246 C 
HETATM    4  O1  UNL     1      18.249 -21.978 -55.470  1.00  0.00    -0.272 OA
ENDROOT
BRANCH   1   5
HETATM    5  C5  UNL     1      18.317 -20.790 -58.085  1.00  0.00     0.104 C 
HETATM    6  C4  UNL     1      18.590 -20.345 -59.475  1.00  0.00     0.046 C 
HETATM    7  C3  UNL     1      17.831 -19.031 -59.529  1.00  0.00     0.126 C 
HETATM    8  N2  UNL     1      18.080 -18.485 -58.190  1.00  0.00    -0.369 N 
HETATM    9  C13 UNL     1      18.333 -19.564 -57.266  1.00  0.00     0.149 C 
BRANCH   8  10
HETATM   10  C2  UNL     1      18.058 -17.082 -57.927  1.00  0.00     0.068 C 
HETATM   11  C1  UNL     1      19.333 -16.334 -57.761  1.00  0.00     0.088 C 
HETATM   12  N1  UNL     1      16.939 -16.445 -57.828  1.00  0.00    -0.389 N 
ATOM     13  H12 UNL     1      16.924 -15.443 -57.640  1.00  0.00     0.157 HD
ATOM     14  H11 UNL     1      16.065 -16.958 -57.942  1.00  0.00     0.157 HD
ENDBRANCH   8  10
ENDBRANCH   1   5
BRANCH   3  15
HETATM   15  C7  UNL     1      19.937 -23.492 -55.786  1.00  0.00     0.375 C 
BRANCH  15  16
HETATM   16  N4  UNL     1      20.329 -23.391 -54.421  1.00  0.00     0.103 N 
HETATM   17  C8  UNL     1      21.812 -23.558 -54.464  1.00  0.00     0.293 C 
HETATM   18  C9  UNL     1      21.990 -24.994 -54.906  1.00  0.00     0.112 C 
HETATM   19 CL1  UNL     1      23.466 -25.721 -54.260  1.00  0.00    -0.123 Cl
HETATM   20  C10 UNL     1      20.798 -25.728 -54.337  1.00  0.00     0.057 C 
HETATM   21  C11 UNL     1      20.032 -24.601 -53.665  1.00  0.00     0.221 C 
HETATM   22  C12 UNL     1      18.601 -24.981 -53.581  1.00  0.00     0.043 C 
ENDBRANCH  15  16
ENDBRANCH   3  15
TORSDOF 4
ENDMDL
MODEL 5
REMARK VINA RESULT: -6.766110321      6.510     10.100
REMARK  4 active torsions:
REMARK  status: ('A' for Active; 'I' for Inactive)
REMARK    1  A    between atoms: C2_2  and  N2_6 
REMARK    2  A    between atoms: C5_9  and  N3_10 
REMARK       I    between atoms: N3_10  and  C6_12 
REMARK    3  A    between atoms: C6_12  and  C7_14 
REMARK    4  A    between atoms: C7_14  and  N4_15 
ROOT
HETATM    1  N3  UNL     1      17.304 -14.959 -56.332  1.00  0.00    -0.353 N 
ATOM      2  H3  UNL     1      17.398 -15.512 -55.480  1.00  0.00     0.163 HD
HETATM    3  C6  UNL     1      16.659 -13.713 -56.240  1.00  0.00     0.246 C 
HETATM    4  O1  UNL     1      16.504 -12.973 -57.289  1.00  0.00    -0.272 OA
ENDROOT
BRANCH   1   5
HETATM    5  C5  UNL     1      17.841 -15.503 -57.551  1.00  0.00     0.104 C 
HETATM    6  C4  UNL     1      16.977 -15.306 -58.742  1.00  0.00     0.046 C 
HETATM    7  C3  UNL     1      17.603 -16.271 -59.735  1.00  0.00     0.126 C 
HETATM    8  N2  UNL     1      17.949 -17.407 -58.872  1.00  0.00    -0.369 N 
HETATM    9  C13 UNL     1      18.152 -16.944 -57.520  1.00  0.00     0.149 C 
BRANCH   8  10
HETATM   10  C2  UNL     1      18.047 -18.739 -59.375  1.00  0.00     0.068 C 
HETATM   11  C1  UNL     1      19.201 -19.597 -58.996  1.00  0.00     0.088 C 
HETATM   12  N1  UNL     1      17.142 -19.216 -60.163  1.00  0.00    -0.389 N 
ATOM     13  H12 UNL     1      17.212 -20.168 -60.523  1.00  0.00     0.157 HD
ATOM     14  H11 UNL     1      16.351 -18.628 -60.424  1.00  0.00     0.157 HD
ENDBRANCH   8  10
ENDBRANCH   1   5
BRANCH   3  15
HETATM   15  C7  UNL     1      16.088 -13.087 -55.040  1.00  0.00     0.375 C 
BRANCH  15  16
HETATM   16  N4  UNL     1      16.693 -13.395 -53.789  1.00  0.00     0.103 N 
HETATM   17  C8  UNL     1      15.534 -13.693 -52.897  1.00  0.00     0.293 C 
HETATM   18  C9  UNL     1      14.836 -12.356 -52.773  1.00  0.00     0.112 C 
HETATM   19 CL1  UNL     1      14.013 -12.167 -51.220  1.00  0.00    -0.123 Cl
HETATM   20  C10 UNL     1      15.940 -11.329 -52.866  1.00  0.00     0.057 C 
HETATM   21  C11 UNL     1      17.161 -12.205 -53.088  1.00  0.00     0.221 C 
HETATM   22  C12 UNL     1      18.200 -11.408 -53.783  1.00  0.00     0.043 C 
ENDBRANCH  15  16
ENDBRANCH   3  15
TORSDOF 4
ENDMDL
