MODEL 1
REMARK VINA RESULT: -8.921226637      0.000      0.000
REMARK  6 active torsions:
REMARK  status: ('A' for Active; 'I' for Inactive)
REMARK    1  A    between atoms: C2_2  and  O2_4 
REMARK    2  A    between atoms: O2_4  and  C3_5 
REMARK    3  A    between atoms: C18_21  and  C20_23 
REMARK    4  A    between atoms: C20_23  and  C21_24 
REMARK    5  A    between atoms: C21_24  and  C22_25 
REMARK    6  A    between atoms: C22_25  and  N1_26 
ROOT
HETATM    1  C3  UNL     1      41.122  39.692  53.724  1.00  0.00     0.151 C 
HETATM    2  C4  UNL     1      41.287  41.052  54.381  1.00  0.00     0.112 C 
HETATM    3  C5  UNL     1      41.388  40.940  55.850  1.00  0.00     0.133 C 
HETATM    4  O3  UNL     1      42.115  41.695  56.454  1.00  0.00    -0.298 OA
HETATM    5  C6  UNL     1      40.623  39.933  56.589  1.00  0.00     0.113 C 
HETATM    6  C7  UNL     1      39.969  38.921  55.693  1.00  0.00    -0.066 C 
HETATM    7  C8  UNL     1      39.525  37.835  56.299  1.00  0.00    -0.022 C 
HETATM    8  C9  UNL     1      38.852  36.711  55.630  1.00  0.00     0.033 C 
HETATM    9  C10 UNL     1      38.328  37.216  54.287  1.00  0.00    -0.001 C 
HETATM   10  C11 UNL     1      39.501  37.787  53.587  1.00  0.00     0.005 C 
HETATM   11  C12 UNL     1      39.383  37.953  52.120  1.00  0.00     0.007 C 
HETATM   12  C13 UNL     1      38.239  37.218  51.480  1.00  0.00     0.011 C 
HETATM   13  C14 UNL     1      37.887  35.935  52.170  1.00  0.00    -0.033 C 
HETATM   14  C15 UNL     1      38.885  34.857  51.804  1.00  0.00     0.016 C 
HETATM   15  C16 UNL     1      37.614  36.092  53.624  1.00  0.00    -0.000 C 
HETATM   16  C17 UNL     1      36.170  36.348  53.257  1.00  0.00     0.015 C 
HETATM   17  C18 UNL     1      36.444  35.524  52.025  1.00  0.00    -0.036 C 
HETATM   18  C19 UNL     1      35.756  35.953  50.771  1.00  0.00     0.016 C 
HETATM   19  C24 UNL     1      39.826  39.111  54.245  1.00  0.00     0.011 C 
HETATM   20  C25 UNL     1      38.731  40.085  53.867  1.00  0.00     0.023 C 
ENDROOT
BRANCH  17  21
HETATM   21  C20 UNL     1      36.164  34.063  52.323  1.00  0.00     0.011 C 
BRANCH  21  22
HETATM   22  C21 UNL     1      35.198  33.479  51.318  1.00  0.00     0.023 C 
BRANCH  22  23
HETATM   23  C22 UNL     1      35.527  32.067  50.914  1.00  0.00     0.151 C 
BRANCH  23  24
HETATM   24  N1  UNL     1      36.833  32.060  50.293  1.00  0.00    -0.271 N 
HETATM   25  C23 UNL     1      37.132  32.630  49.088  1.00  0.00     0.219 A 
HETATM   26  N2  UNL     1      38.433  32.453  48.815  1.00  0.00    -0.279 N 
HETATM   27  N3  UNL     1      38.936  31.783  49.828  1.00  0.00    -0.227 N 
ATOM     28  H2  UNL     1      38.933  32.774  47.986  1.00  0.00     0.189 HD
HETATM   29  N4  UNL     1      37.983  31.550  50.708  1.00  0.00    -0.225 N 
ATOM     30  H3  UNL     1      39.909  31.489  49.919  1.00  0.00     0.210 HD
ATOM     31  H4  UNL     1      38.113  31.048  51.586  1.00  0.00     0.210 HD
ENDBRANCH  23  24
ENDBRANCH  22  23
ENDBRANCH  21  22
ENDBRANCH  17  21
BRANCH   1  32
HETATM   32  O2  UNL     1      42.242  38.924  54.108  1.00  0.00    -0.315 OA
BRANCH  32  33
HETATM   33  C2  UNL     1      43.258  38.750  53.182  1.00  0.00     0.255 C 
HETATM   34  C1  UNL     1      43.083  37.901  51.960  1.00  0.00     0.126 C 
HETATM   35  O1  UNL     1      44.375  39.311  53.346  1.00  0.00    -0.266 OA
ENDBRANCH  32  33
ENDBRANCH   1  32
TORSDOF 6
ENDMDL
MODEL 2
REMARK VINA RESULT: -8.636074276      1.699      3.270
REMARK  6 active torsions:
REMARK  status: ('A' for Active; 'I' for Inactive)
REMARK    1  A    between atoms: C2_2  and  O2_4 
REMARK    2  A    between atoms: O2_4  and  C3_5 
REMARK    3  A    between atoms: C18_21  and  C20_23 
REMARK    4  A    between atoms: C20_23  and  C21_24 
REMARK    5  A    between atoms: C21_24  and  C22_25 
REMARK    6  A    between atoms: C22_25  and  N1_26 
ROOT
HETATM    1  C3  UNL     1      39.477  40.349  54.807  1.00  0.00     0.151 C 
HETATM    2  C4  UNL     1      40.134  40.883  56.069  1.00  0.00     0.112 C 
HETATM    3  C5  UNL     1      41.579  41.115  55.877  1.00  0.00     0.133 C 
HETATM    4  O3  UNL     1      42.108  42.052  56.429  1.00  0.00    -0.298 OA
HETATM    5  C6  UNL     1      42.385  40.230  55.032  1.00  0.00     0.113 C 
HETATM    6  C7  UNL     1      41.553  39.274  54.226  1.00  0.00    -0.066 C 
HETATM    7  C8  UNL     1      42.188  38.668  53.239  1.00  0.00    -0.022 C 
HETATM    8  C9  UNL     1      41.582  37.693  52.319  1.00  0.00     0.033 C 
HETATM    9  C10 UNL     1      40.316  37.153  52.982  1.00  0.00    -0.001 C 
HETATM   10  C11 UNL     1      39.496  38.341  53.310  1.00  0.00     0.005 C 
HETATM   11  C12 UNL     1      38.055  38.105  53.559  1.00  0.00     0.007 C 
HETATM   12  C13 UNL     1      37.538  36.764  53.119  1.00  0.00     0.011 C 
HETATM   13  C14 UNL     1      38.243  36.212  51.917  1.00  0.00    -0.033 C 
HETATM   14  C15 UNL     1      37.748  36.900  50.662  1.00  0.00     0.016 C 
HETATM   15  C16 UNL     1      39.722  36.139  52.070  1.00  0.00    -0.000 C 
HETATM   16  C17 UNL     1      39.526  34.757  52.651  1.00  0.00     0.015 C 
HETATM   17  C18 UNL     1      38.257  34.707  51.838  1.00  0.00    -0.036 C 
HETATM   18  C19 UNL     1      37.098  34.000  52.460  1.00  0.00     0.016 C 
HETATM   19  C24 UNL     1      40.134  39.021  54.502  1.00  0.00     0.011 C 
HETATM   20  C25 UNL     1      39.901  38.136  55.707  1.00  0.00     0.023 C 
ENDROOT
BRANCH  17  21
HETATM   21  C20 UNL     1      38.563  34.143  50.464  1.00  0.00     0.011 C 
BRANCH  21  22
HETATM   22  C21 UNL     1      38.485  32.632  50.466  1.00  0.00     0.023 C 
BRANCH  22  23
HETATM   23  C22 UNL     1      37.709  32.066  49.308  1.00  0.00     0.151 C 
BRANCH  23  24
HETATM   24  N1  UNL     1      36.317  31.977  49.688  1.00  0.00    -0.271 N 
HETATM   25  C23 UNL     1      35.394  32.972  49.524  1.00  0.00     0.219 A 
HETATM   26  N2  UNL     1      34.198  32.556  49.968  1.00  0.00    -0.279 N 
HETATM   27  N3  UNL     1      34.372  31.326  50.402  1.00  0.00    -0.227 N 
ATOM     28  H2  UNL     1      33.328  33.087  49.968  1.00  0.00     0.189 HD
HETATM   29  N4  UNL     1      35.633  30.983  50.234  1.00  0.00    -0.225 N 
ATOM     30  H3  UNL     1      33.646  30.733  50.805  1.00  0.00     0.210 HD
ATOM     31  H4  UNL     1      36.026  30.077  50.488  1.00  0.00     0.210 HD
ENDBRANCH  23  24
ENDBRANCH  22  23
ENDBRANCH  21  22
ENDBRANCH  17  21
BRANCH   1  32
HETATM   32  O2  UNL     1      39.718  41.306  53.797  1.00  0.00    -0.315 OA
BRANCH  32  33
HETATM   33  C2  UNL     1      38.849  42.381  53.701  1.00  0.00     0.255 C 
HETATM   34  C1  UNL     1      37.396  42.263  54.046  1.00  0.00     0.126 C 
HETATM   35  O1  UNL     1      39.266  43.507  53.314  1.00  0.00    -0.266 OA
ENDBRANCH  32  33
ENDBRANCH   1  32
TORSDOF 6
ENDMDL
MODEL 3
REMARK VINA RESULT: -8.569512844      4.938      8.197
REMARK  6 active torsions:
REMARK  status: ('A' for Active; 'I' for Inactive)
REMARK    1  A    between atoms: C2_2  and  O2_4 
REMARK    2  A    between atoms: O2_4  and  C3_5 
REMARK    3  A    between atoms: C18_21  and  C20_23 
REMARK    4  A    between atoms: C20_23  and  C21_24 
REMARK    5  A    between atoms: C21_24  and  C22_25 
REMARK    6  A    between atoms: C22_25  and  N1_26 
ROOT
HETATM    1  C3  UNL     1      37.042  34.066  51.217  1.00  0.00     0.151 C 
HETATM    2  C4  UNL     1      35.596  33.666  50.976  1.00  0.00     0.112 C 
HETATM    3  C5  UNL     1      35.062  34.265  49.737  1.00  0.00     0.133 C 
HETATM    4  O3  UNL     1      34.281  33.636  49.062  1.00  0.00    -0.298 OA
HETATM    5  C6  UNL     1      35.460  35.610  49.311  1.00  0.00     0.113 C 
HETATM    6  C7  UNL     1      36.610  36.159  50.105  1.00  0.00    -0.066 C 
HETATM    7  C8  UNL     1      37.200  37.219  49.583  1.00  0.00    -0.022 C 
HETATM    8  C9  UNL     1      38.343  37.928  50.180  1.00  0.00     0.033 C 
HETATM    9  C10 UNL     1      38.392  37.563  51.663  1.00  0.00    -0.001 C 
HETATM   10  C11 UNL     1      38.440  36.084  51.712  1.00  0.00     0.005 C 
HETATM   11  C12 UNL     1      38.922  35.477  52.974  1.00  0.00     0.007 C 
HETATM   12  C13 UNL     1      39.619  36.419  53.916  1.00  0.00     0.011 C 
HETATM   13  C14 UNL     1      40.361  37.522  53.224  1.00  0.00    -0.033 C 
HETATM   14  C15 UNL     1      41.667  36.997  52.663  1.00  0.00     0.016 C 
HETATM   15  C16 UNL     1      39.525  38.307  52.277  1.00  0.00    -0.000 C 
HETATM   16  C17 UNL     1      39.173  39.207  53.441  1.00  0.00     0.015 C 
HETATM   17  C18 UNL     1      40.495  38.787  54.031  1.00  0.00    -0.036 C 
HETATM   18  C19 UNL     1      40.538  38.625  55.515  1.00  0.00     0.016 C 
HETATM   19  C24 UNL     1      37.057  35.571  51.373  1.00  0.00     0.011 C 
HETATM   20  C25 UNL     1      36.154  35.895  52.543  1.00  0.00     0.023 C 
ENDROOT
BRANCH  17  21
HETATM   21  C20 UNL     1      41.582  39.735  53.558  1.00  0.00     0.011 C 
BRANCH  21  22
HETATM   22  C21 UNL     1      42.720  39.796  54.552  1.00  0.00     0.023 C 
BRANCH  22  23
HETATM   23  C22 UNL     1      43.921  40.550  54.049  1.00  0.00     0.151 C 
BRANCH  23  24
HETATM   24  N1  UNL     1      44.918  39.593  53.624  1.00  0.00    -0.271 N 
HETATM   25  C23 UNL     1      44.778  38.726  52.578  1.00  0.00     0.219 A 
HETATM   26  N2  UNL     1      45.893  37.990  52.449  1.00  0.00    -0.279 N 
HETATM   27  N3  UNL     1      46.712  38.390  53.397  1.00  0.00    -0.227 N 
ATOM     28  H2  UNL     1      46.069  37.266  51.753  1.00  0.00     0.189 HD
HETATM   29  N4  UNL     1      46.131  39.345  54.096  1.00  0.00    -0.225 N 
ATOM     30  H3  UNL     1      47.647  38.020  53.565  1.00  0.00     0.210 HD
ATOM     31  H4  UNL     1      46.557  39.825  54.888  1.00  0.00     0.210 HD
ENDBRANCH  23  24
ENDBRANCH  22  23
ENDBRANCH  21  22
ENDBRANCH  17  21
BRANCH   1  32
HETATM   32  O2  UNL     1      37.767  33.641  50.083  1.00  0.00    -0.315 OA
BRANCH  32  33
HETATM   33  C2  UNL     1      38.039  32.289  49.955  1.00  0.00     0.255 C 
HETATM   34  C1  UNL     1      39.045  31.595  50.822  1.00  0.00     0.126 C 
HETATM   35  O1  UNL     1      37.437  31.594  49.092  1.00  0.00    -0.266 OA
ENDBRANCH  32  33
ENDBRANCH   1  32
TORSDOF 6
ENDMDL
MODEL 4
REMARK VINA RESULT: -8.515561267      5.204      8.349
REMARK  6 active torsions:
REMARK  status: ('A' for Active; 'I' for Inactive)
REMARK    1  A    between atoms: C2_2  and  O2_4 
REMARK    2  A    between atoms: O2_4  and  C3_5 
REMARK    3  A    between atoms: C18_21  and  C20_23 
REMARK    4  A    between atoms: C20_23  and  C21_24 
REMARK    5  A    between atoms: C21_24  and  C22_25 
REMARK    6  A    between atoms: C22_25  and  N1_26 
ROOT
HETATM    1  C3  UNL     1      36.923  34.036  51.211  1.00  0.00     0.151 C 
HETATM    2  C4  UNL     1      35.535  33.667  50.716  1.00  0.00     0.112 C 
HETATM    3  C5  UNL     1      35.215  34.330  49.437  1.00  0.00     0.133 C 
HETATM    4  O3  UNL     1      34.553  33.743  48.613  1.00  0.00    -0.298 OA
HETATM    5  C6  UNL     1      35.685  35.688  49.147  1.00  0.00     0.113 C 
HETATM    6  C7  UNL     1      36.691  36.184  50.145  1.00  0.00    -0.066 C 
HETATM    7  C8  UNL     1      37.365  37.260  49.779  1.00  0.00    -0.022 C 
HETATM    8  C9  UNL     1      38.398  37.924  50.589  1.00  0.00     0.033 C 
HETATM    9  C10 UNL     1      38.200  37.491  52.041  1.00  0.00    -0.001 C 
HETATM   10  C11 UNL     1      38.232  36.010  52.026  1.00  0.00     0.005 C 
HETATM   11  C12 UNL     1      38.496  35.339  53.320  1.00  0.00     0.007 C 
HETATM   12  C13 UNL     1      39.032  36.226  54.407  1.00  0.00     0.011 C 
HETATM   13  C14 UNL     1      39.885  37.350  53.901  1.00  0.00    -0.033 C 
HETATM   14  C15 UNL     1      41.262  36.835  53.537  1.00  0.00     0.016 C 
HETATM   15  C16 UNL     1      39.220  38.190  52.868  1.00  0.00    -0.000 C 
HETATM   16  C17 UNL     1      38.686  39.039  54.000  1.00  0.00     0.015 C 
HETATM   17  C18 UNL     1      39.890  38.575  54.779  1.00  0.00    -0.036 C 
HETATM   18  C19 UNL     1      39.687  38.343  56.240  1.00  0.00     0.016 C 
HETATM   19  C24 UNL     1      36.921  35.531  51.440  1.00  0.00     0.011 C 
HETATM   20  C25 UNL     1      35.839  35.812  52.460  1.00  0.00     0.023 C 
ENDROOT
BRANCH  17  21
HETATM   21  C20 UNL     1      41.045  39.528  54.537  1.00  0.00     0.011 C 
BRANCH  21  22
HETATM   22  C21 UNL     1      41.591  40.062  55.843  1.00  0.00     0.023 C 
BRANCH  22  23
HETATM   23  C22 UNL     1      42.428  41.303  55.685  1.00  0.00     0.151 C 
BRANCH  23  24
HETATM   24  N1  UNL     1      43.593  40.974  54.895  1.00  0.00    -0.271 N 
HETATM   25  C23 UNL     1      43.766  39.811  54.197  1.00  0.00     0.219 A 
HETATM   26  N2  UNL     1      44.948  39.836  53.565  1.00  0.00    -0.279 N 
HETATM   27  N3  UNL     1      45.504  40.990  53.863  1.00  0.00    -0.227 N 
ATOM     28  H2  UNL     1      45.339  39.105  52.970  1.00  0.00     0.189 HD
HETATM   29  N4  UNL     1      44.696  41.667  54.654  1.00  0.00    -0.225 N 
ATOM     30  H3  UNL     1      46.415  41.310  53.535  1.00  0.00     0.210 HD
ATOM     31  H4  UNL     1      44.893  42.595  55.027  1.00  0.00     0.210 HD
ENDBRANCH  23  24
ENDBRANCH  22  23
ENDBRANCH  21  22
ENDBRANCH  17  21
BRANCH   1  32
HETATM   32  O2  UNL     1      37.823  33.655  50.192  1.00  0.00    -0.315 OA
BRANCH  32  33
HETATM   33  C2  UNL     1      38.094  32.305  50.036  1.00  0.00     0.255 C 
HETATM   34  C1  UNL     1      39.084  31.587  50.902  1.00  0.00     0.126 C 
HETATM   35  O1  UNL     1      37.503  31.633  49.147  1.00  0.00    -0.266 OA
ENDBRANCH  32  33
ENDBRANCH   1  32
TORSDOF 6
ENDMDL
MODEL 5
REMARK VINA RESULT: -8.439376689      5.441      8.705
REMARK  6 active torsions:
REMARK  status: ('A' for Active; 'I' for Inactive)
REMARK    1  A    between atoms: C2_2  and  O2_4 
REMARK    2  A    between atoms: O2_4  and  C3_5 
REMARK    3  A    between atoms: C18_21  and  C20_23 
REMARK    4  A    between atoms: C20_23  and  C21_24 
REMARK    5  A    between atoms: C21_24  and  C22_25 
REMARK    6  A    between atoms: C22_25  and  N1_26 
ROOT
HETATM    1  C3  UNL     1      34.639  33.802  51.217  1.00  0.00     0.151 C 
HETATM    2  C4  UNL     1      33.125  33.891  51.124  1.00  0.00     0.112 C 
HETATM    3  C5  UNL     1      32.690  34.479  49.842  1.00  0.00     0.133 C 
HETATM    4  O3  UNL     1      31.679  34.075  49.317  1.00  0.00    -0.298 OA
HETATM    5  C6  UNL     1      33.460  35.545  49.195  1.00  0.00     0.113 C 
HETATM    6  C7  UNL     1      34.804  35.763  49.829  1.00  0.00    -0.066 C 
HETATM    7  C8  UNL     1      35.650  36.487  49.119  1.00  0.00    -0.022 C 
HETATM    8  C9  UNL     1      37.019  36.832  49.534  1.00  0.00     0.033 C 
HETATM    9  C10 UNL     1      37.102  36.658  51.050  1.00  0.00    -0.001 C 
HETATM   10  C11 UNL     1      36.667  35.268  51.320  1.00  0.00     0.005 C 
HETATM   11  C12 UNL     1      37.054  34.694  52.629  1.00  0.00     0.007 C 
HETATM   12  C13 UNL     1      38.116  35.451  53.375  1.00  0.00     0.011 C 
HETATM   13  C14 UNL     1      39.102  36.141  52.482  1.00  0.00    -0.033 C 
HETATM   14  C15 UNL     1      40.095  35.139  51.932  1.00  0.00     0.016 C 
HETATM   15  C16 UNL     1      38.474  37.042  51.478  1.00  0.00    -0.000 C 
HETATM   16  C17 UNL     1      38.563  38.144  52.510  1.00  0.00     0.015 C 
HETATM   17  C18 UNL     1      39.729  37.375  53.080  1.00  0.00    -0.036 C 
HETATM   18  C19 UNL     1      39.872  37.391  54.566  1.00  0.00     0.016 C 
HETATM   19  C24 UNL     1      35.165  35.218  51.143  1.00  0.00     0.011 C 
HETATM   20  C25 UNL     1      34.547  35.971  52.301  1.00  0.00     0.023 C 
ENDROOT
BRANCH  17  21
HETATM   21  C20 UNL     1      41.009  37.830  52.406  1.00  0.00     0.011 C 
BRANCH  21  22
HETATM   22  C21 UNL     1      42.057  38.208  53.430  1.00  0.00     0.023 C 
BRANCH  22  23
HETATM   23  C22 UNL     1      43.455  38.252  52.875  1.00  0.00     0.151 C 
BRANCH  23  24
HETATM   24  N1  UNL     1      44.131  39.405  53.427  1.00  0.00    -0.271 N 
HETATM   25  C23 UNL     1      43.569  40.309  54.284  1.00  0.00     0.219 A 
HETATM   26  N2  UNL     1      44.474  41.244  54.611  1.00  0.00    -0.279 N 
HETATM   27  N3  UNL     1      45.578  40.932  53.968  1.00  0.00    -0.227 N 
ATOM     28  H2  UNL     1      44.334  42.039  55.234  1.00  0.00     0.189 HD
HETATM   29  N4  UNL     1      45.373  39.837  53.264  1.00  0.00    -0.225 N 
ATOM     30  H3  UNL     1      46.453  41.454  54.007  1.00  0.00     0.210 HD
ATOM     31  H4  UNL     1      46.073  39.385  52.676  1.00  0.00     0.210 HD
ENDBRANCH  23  24
ENDBRANCH  22  23
ENDBRANCH  21  22
ENDBRANCH  17  21
BRANCH   1  32
HETATM   32  O2  UNL     1      35.061  33.020  50.120  1.00  0.00    -0.315 OA
BRANCH  32  33
HETATM   33  C2  UNL     1      35.809  31.884  50.382  1.00  0.00     0.255 C 
HETATM   34  C1  UNL     1      37.301  31.864  50.240  1.00  0.00     0.126 C 
HETATM   35  O1  UNL     1      35.246  30.818  50.754  1.00  0.00    -0.266 OA
ENDBRANCH  32  33
ENDBRANCH   1  32
TORSDOF 6
ENDMDL
