MODEL 1
REMARK VINA RESULT: -6.438952723      0.000      0.000
REMARK  10 active torsions:
REMARK  status: ('A' for Active; 'I' for Inactive)
REMARK    1  A    between atoms: C2_3  and  N2_4 
REMARK    2  A    between atoms: C2_3  and  N3_8 
REMARK    3  A    between atoms: C2_3  and  N4_12 
REMARK    4  A    between atoms: N5_14  and  C3_16 
REMARK    5  A    between atoms: C4_21  and  C5_22 
REMARK    6  A    between atoms: C5_22  and  N9_26 
REMARK    7  A    between atoms: N9_26  and  C6_28 
REMARK    8  A    between atoms: C6_28  and  C7_29 
REMARK    9  A    between atoms: C7_29  and  C8_30 
REMARK   10  A    between atoms: C8_30  and  N10_31 
ROOT
HETATM    1  N1  UNL     1      50.960  18.608  12.191  1.00  0.00    -0.191 NA
HETATM    2  C1  UNL     1      51.574  19.507  12.594  1.00  0.00     0.153 C 
HETATM    3  C2  UNL     1      52.367  20.631  13.119  1.00  0.00     0.460 C 
ENDROOT
BRANCH   3   4
HETATM    4  N2  UNL     1      53.467  20.826  12.235  1.00  0.00    -0.012 N 
ATOM      5  H23 UNL     1      53.985  19.968  12.046  1.00  0.00     0.280 HD
ATOM      6  H22 UNL     1      53.178  21.019  11.276  1.00  0.00     0.280 HD
ATOM      7  H21 UNL     1      54.050  21.563  12.631  1.00  0.00     0.280 HD
ENDBRANCH   3   4
BRANCH   3   8
HETATM    8  N3  UNL     1      52.806  20.304  14.474  1.00  0.00    -0.012 N 
ATOM      9  H33 UNL     1      53.114  21.127  14.993  1.00  0.00     0.280 HD
ATOM     10  H32 UNL     1      52.031  20.036  15.081  1.00  0.00     0.280 HD
ATOM     11  H31 UNL     1      53.527  19.585  14.422  1.00  0.00     0.280 HD
ENDBRANCH   3   8
BRANCH   3  12
HETATM   12  N4  UNL     1      51.558  21.853  13.209  1.00  0.00    -0.264 N 
HETATM   13  N5  UNL     1      51.584  22.459  14.301  1.00  0.00    -0.283 N 
ATOM     14  H5  UNL     1      52.165  22.051  15.034  1.00  0.00     0.188 HD
ATOM     15  H4  UNL     1      51.003  22.190  12.421  1.00  0.00     0.186 HD
BRANCH  13  16
HETATM   16  C3  UNL     1      50.900  23.643  14.631  1.00  0.00     0.161 A 
HETATM   17  N6  UNL     1      49.608  23.737  14.953  1.00  0.00    -0.282 N 
HETATM   18  N7  UNL     1      49.313  24.994  15.187  1.00  0.00    -0.294 N 
ATOM     19  H6  UNL     1      48.953  22.957  15.009  1.00  0.00     0.188 HD
HETATM   20  C4  UNL     1      50.426  25.768  15.022  1.00  0.00     0.119 A 
ATOM     21  H7  UNL     1      48.391  25.341  15.452  1.00  0.00     0.187 HD
HETATM   22  C9  UNL     1      51.422  24.916  14.672  1.00  0.00     0.124 A 
HETATM   23  N11 UNL     1      52.783  25.214  14.395  1.00  0.00    -0.096 NA
BRANCH  20  24
HETATM   24  C5  UNL     1      50.413  27.206  15.201  1.00  0.00     0.125 C 
HETATM   25  N8  UNL     1      51.527  27.820  15.394  1.00  0.00    -0.384 N 
ATOM     26  H82 UNL     1      52.392  27.279  15.410  1.00  0.00     0.157 HD
ATOM     27  H81 UNL     1      51.517  28.833  15.521  1.00  0.00     0.157 HD
BRANCH  24  28
HETATM   28  N9  UNL     1      49.222  27.951  15.179  1.00  0.00    -0.375 N 
ATOM     29  H9  UNL     1      48.551  27.862  15.941  1.00  0.00     0.161 HD
BRANCH  28  30
HETATM   30  C6  UNL     1      48.941  28.868  14.046  1.00  0.00     0.123 C 
BRANCH  30  31
HETATM   31  C7  UNL     1      47.507  28.673  13.660  1.00  0.00     0.047 C 
BRANCH  31  32
HETATM   32  C8  UNL     1      47.389  28.479  12.143  1.00  0.00     0.231 C 
BRANCH  32  33
HETATM   33  N10 UNL     1      45.975  28.558  11.832  1.00  0.00    -0.079 N 
ATOM     34 3H10 UNL     1      45.633  29.515  11.738  1.00  0.00     0.274 HD
ATOM     35 2H10 UNL     1      45.750  28.251  10.886  1.00  0.00     0.274 HD
ATOM     36 1H10 UNL     1      45.494  28.024  12.557  1.00  0.00     0.274 HD
ENDBRANCH  32  33
ENDBRANCH  31  32
ENDBRANCH  30  31
ENDBRANCH  28  30
ENDBRANCH  24  28
ENDBRANCH  20  24
ENDBRANCH  13  16
ENDBRANCH   3  12
TORSDOF 10
ENDMDL
MODEL 2
REMARK VINA RESULT: -6.373310528      0.536      1.242
REMARK  10 active torsions:
REMARK  status: ('A' for Active; 'I' for Inactive)
REMARK    1  A    between atoms: C2_3  and  N2_4 
REMARK    2  A    between atoms: C2_3  and  N3_8 
REMARK    3  A    between atoms: C2_3  and  N4_12 
REMARK    4  A    between atoms: N5_14  and  C3_16 
REMARK    5  A    between atoms: C4_21  and  C5_22 
REMARK    6  A    between atoms: C5_22  and  N9_26 
REMARK    7  A    between atoms: N9_26  and  C6_28 
REMARK    8  A    between atoms: C6_28  and  C7_29 
REMARK    9  A    between atoms: C7_29  and  C8_30 
REMARK   10  A    between atoms: C8_30  and  N10_31 
ROOT
HETATM    1  N1  UNL     1      54.055  20.620  11.143  1.00  0.00    -0.191 NA
HETATM    2  C1  UNL     1      53.242  20.661  11.970  1.00  0.00     0.153 C 
HETATM    3  C2  UNL     1      52.205  20.688  13.015  1.00  0.00     0.460 C 
ENDROOT
BRANCH   3   4
HETATM    4  N2  UNL     1      52.825  20.312  14.241  1.00  0.00    -0.012 N 
ATOM      5  H23 UNL     1      52.792  19.307  14.413  1.00  0.00     0.280 HD
ATOM      6  H22 UNL     1      53.841  20.409  14.220  1.00  0.00     0.280 HD
ATOM      7  H21 UNL     1      52.389  20.857  14.984  1.00  0.00     0.280 HD
ENDBRANCH   3   4
BRANCH   3   8
HETATM    8  N3  UNL     1      51.134  19.767  12.639  1.00  0.00    -0.012 N 
ATOM      9  H33 UNL     1      50.307  19.870  13.227  1.00  0.00     0.280 HD
ATOM     10  H32 UNL     1      50.704  20.013  11.747  1.00  0.00     0.280 HD
ATOM     11  H31 UNL     1      51.501  18.816  12.645  1.00  0.00     0.280 HD
ENDBRANCH   3   8
BRANCH   3  12
HETATM   12  N4  UNL     1      51.606  22.024  13.131  1.00  0.00    -0.264 N 
HETATM   13  N5  UNL     1      51.303  22.400  14.283  1.00  0.00    -0.283 N 
ATOM     14  H5  UNL     1      51.497  21.745  15.041  1.00  0.00     0.188 HD
ATOM     15  H4  UNL     1      51.446  22.615  12.314  1.00  0.00     0.186 HD
BRANCH  13  16
HETATM   16  C3  UNL     1      50.723  23.627  14.650  1.00  0.00     0.161 A 
HETATM   17  N6  UNL     1      49.467  23.807  15.067  1.00  0.00    -0.282 N 
HETATM   18  N7  UNL     1      49.271  25.082  15.308  1.00  0.00    -0.294 N 
ATOM     19  H6  UNL     1      48.770  23.070  15.179  1.00  0.00     0.188 HD
HETATM   20  C4  UNL     1      50.416  25.781  15.052  1.00  0.00     0.119 A 
ATOM     21  H7  UNL     1      48.396  25.489  15.637  1.00  0.00     0.187 HD
HETATM   22  C9  UNL     1      51.326  24.864  14.639  1.00  0.00     0.124 A 
HETATM   23  N11 UNL     1      52.679  25.072  14.258  1.00  0.00    -0.096 NA
BRANCH  20  24
HETATM   24  C5  UNL     1      50.508  27.217  15.217  1.00  0.00     0.125 C 
HETATM   25  N8  UNL     1      51.670  27.757  15.346  1.00  0.00    -0.384 N 
ATOM     26  H82 UNL     1      52.496  27.159  15.323  1.00  0.00     0.157 HD
ATOM     27  H81 UNL     1      51.735  28.768  15.462  1.00  0.00     0.157 HD
BRANCH  24  28
HETATM   28  N9  UNL     1      49.371  28.041  15.248  1.00  0.00    -0.375 N 
ATOM     29  H9  UNL     1      48.797  28.087  16.090  1.00  0.00     0.161 HD
BRANCH  28  30
HETATM   30  C6  UNL     1      49.003  28.845  14.056  1.00  0.00     0.123 C 
BRANCH  30  31
HETATM   31  C7  UNL     1      47.594  28.488  13.693  1.00  0.00     0.047 C 
BRANCH  31  32
HETATM   32  C8  UNL     1      47.423  28.495  12.169  1.00  0.00     0.231 C 
BRANCH  32  33
HETATM   33  N10 UNL     1      45.995  28.537  11.922  1.00  0.00    -0.079 N 
ATOM     34 3H10 UNL     1      45.447  28.036  12.622  1.00  0.00     0.274 HD
ATOM     35 2H10 UNL     1      45.583  29.457  12.076  1.00  0.00     0.274 HD
ATOM     36 1H10 UNL     1      45.859  28.185  10.973  1.00  0.00     0.274 HD
ENDBRANCH  32  33
ENDBRANCH  31  32
ENDBRANCH  30  31
ENDBRANCH  28  30
ENDBRANCH  24  28
ENDBRANCH  20  24
ENDBRANCH  13  16
ENDBRANCH   3  12
TORSDOF 10
ENDMDL
MODEL 3
REMARK VINA RESULT: -5.922584736      1.041      2.099
REMARK  10 active torsions:
REMARK  status: ('A' for Active; 'I' for Inactive)
REMARK    1  A    between atoms: C2_3  and  N2_4 
REMARK    2  A    between atoms: C2_3  and  N3_8 
REMARK    3  A    between atoms: C2_3  and  N4_12 
REMARK    4  A    between atoms: N5_14  and  C3_16 
REMARK    5  A    between atoms: C4_21  and  C5_22 
REMARK    6  A    between atoms: C5_22  and  N9_26 
REMARK    7  A    between atoms: N9_26  and  C6_28 
REMARK    8  A    between atoms: C6_28  and  C7_29 
REMARK    9  A    between atoms: C7_29  and  C8_30 
REMARK   10  A    between atoms: C8_30  and  N10_31 
ROOT
HETATM    1  N1  UNL     1      54.022  20.443  11.083  1.00  0.00    -0.191 NA
HETATM    2  C1  UNL     1      53.203  20.477  11.905  1.00  0.00     0.153 C 
HETATM    3  C2  UNL     1      52.158  20.496  12.942  1.00  0.00     0.460 C 
ENDROOT
BRANCH   3   4
HETATM    4  N2  UNL     1      52.754  20.048  14.156  1.00  0.00    -0.012 N 
ATOM      5  H23 UNL     1      53.427  19.295  14.016  1.00  0.00     0.280 HD
ATOM      6  H22 UNL     1      53.399  20.728  14.558  1.00  0.00     0.280 HD
ATOM      7  H21 UNL     1      51.998  19.793  14.791  1.00  0.00     0.280 HD
ENDBRANCH   3   4
BRANCH   3   8
HETATM    8  N3  UNL     1      51.060  19.629  12.519  1.00  0.00    -0.012 N 
ATOM      9  H33 UNL     1      50.175  19.877  12.962  1.00  0.00     0.280 HD
ATOM     10  H32 UNL     1      50.785  19.793  11.551  1.00  0.00     0.280 HD
ATOM     11  H31 UNL     1      51.323  18.659  12.690  1.00  0.00     0.280 HD
ENDBRANCH   3   8
BRANCH   3  12
HETATM   12  N4  UNL     1      51.604  21.846  13.110  1.00  0.00    -0.264 N 
HETATM   13  N5  UNL     1      52.088  22.536  14.032  1.00  0.00    -0.283 N 
ATOM     14  H5  UNL     1      52.824  22.100  14.587  1.00  0.00     0.188 HD
ATOM     15  H4  UNL     1      50.863  22.202  12.505  1.00  0.00     0.186 HD
BRANCH  13  16
HETATM   16  C3  UNL     1      51.729  23.848  14.388  1.00  0.00     0.161 A 
HETATM   17  N6  UNL     1      52.571  24.868  14.571  1.00  0.00    -0.282 N 
HETATM   18  N7  UNL     1      51.886  25.936  14.906  1.00  0.00    -0.294 N 
ATOM     19  H6  UNL     1      53.585  24.824  14.467  1.00  0.00     0.188 HD
HETATM   20  C4  UNL     1      50.555  25.637  14.950  1.00  0.00     0.119 A 
ATOM     21  H7  UNL     1      52.289  26.852  15.104  1.00  0.00     0.187 HD
HETATM   22  C9  UNL     1      50.459  24.324  14.623  1.00  0.00     0.124 A 
HETATM   23  N11 UNL     1      49.290  23.523  14.516  1.00  0.00    -0.096 NA
BRANCH  20  24
HETATM   24  C5  UNL     1      49.545  26.614  15.301  1.00  0.00     0.125 C 
HETATM   25  N8  UNL     1      48.324  26.228  15.435  1.00  0.00    -0.384 N 
ATOM     26  H82 UNL     1      48.101  25.243  15.296  1.00  0.00     0.157 HD
ATOM     27  H81 UNL     1      47.613  26.916  15.683  1.00  0.00     0.157 HD
BRANCH  24  28
HETATM   28  N9  UNL     1      49.852  27.971  15.494  1.00  0.00    -0.375 N 
ATOM     29  H9  UNL     1      49.965  28.339  16.437  1.00  0.00     0.161 HD
BRANCH  28  30
HETATM   30  C6  UNL     1      50.010  28.870  14.323  1.00  0.00     0.123 C 
BRANCH  30  31
HETATM   31  C7  UNL     1      48.638  29.182  13.811  1.00  0.00     0.047 C 
BRANCH  31  32
HETATM   32  C8  UNL     1      48.544  28.856  12.315  1.00  0.00     0.231 C 
BRANCH  32  33
HETATM   33  N10 UNL     1      47.694  27.687  12.207  1.00  0.00    -0.079 N 
ATOM     34 3H10 UNL     1      46.731  27.856  12.502  1.00  0.00     0.274 HD
ATOM     35 2H10 UNL     1      47.485  27.423  11.244  1.00  0.00     0.274 HD
ATOM     36 1H10 UNL     1      48.156  26.948  12.738  1.00  0.00     0.274 HD
ENDBRANCH  32  33
ENDBRANCH  31  32
ENDBRANCH  30  31
ENDBRANCH  28  30
ENDBRANCH  24  28
ENDBRANCH  20  24
ENDBRANCH  13  16
ENDBRANCH   3  12
TORSDOF 10
ENDMDL
MODEL 4
REMARK VINA RESULT: -5.826942004      0.931      1.916
REMARK  10 active torsions:
REMARK  status: ('A' for Active; 'I' for Inactive)
REMARK    1  A    between atoms: C2_3  and  N2_4 
REMARK    2  A    between atoms: C2_3  and  N3_8 
REMARK    3  A    between atoms: C2_3  and  N4_12 
REMARK    4  A    between atoms: N5_14  and  C3_16 
REMARK    5  A    between atoms: C4_21  and  C5_22 
REMARK    6  A    between atoms: C5_22  and  N9_26 
REMARK    7  A    between atoms: N9_26  and  C6_28 
REMARK    8  A    between atoms: C6_28  and  C7_29 
REMARK    9  A    between atoms: C7_29  and  C8_30 
REMARK   10  A    between atoms: C8_30  and  N10_31 
ROOT
HETATM    1  N1  UNL     1      53.864  20.321  11.079  1.00  0.00    -0.191 NA
HETATM    2  C1  UNL     1      53.078  20.486  11.917  1.00  0.00     0.153 C 
HETATM    3  C2  UNL     1      52.071  20.671  12.976  1.00  0.00     0.460 C 
ENDROOT
BRANCH   3   4
HETATM    4  N2  UNL     1      52.648  20.215  14.196  1.00  0.00    -0.012 N 
ATOM      5  H23 UNL     1      53.147  19.331  14.096  1.00  0.00     0.280 HD
ATOM      6  H22 UNL     1      53.442  20.781  14.498  1.00  0.00     0.280 HD
ATOM      7  H21 UNL     1      51.902  20.175  14.890  1.00  0.00     0.280 HD
ENDBRANCH   3   4
BRANCH   3   8
HETATM    8  N3  UNL     1      50.872  19.916  12.622  1.00  0.00    -0.012 N 
ATOM      9  H33 UNL     1      50.988  19.381  11.761  1.00  0.00     0.280 HD
ATOM     10  H32 UNL     1      50.704  19.133  13.254  1.00  0.00     0.280 HD
ATOM     11  H31 UNL     1      50.081  20.558  12.578  1.00  0.00     0.280 HD
ENDBRANCH   3   8
BRANCH   3  12
HETATM   12  N4  UNL     1      51.678  22.082  13.089  1.00  0.00    -0.264 N 
HETATM   13  N5  UNL     1      52.036  22.678  14.127  1.00  0.00    -0.283 N 
ATOM     14  H5  UNL     1      52.570  22.132  14.803  1.00  0.00     0.188 HD
ATOM     15  H4  UNL     1      51.140  22.550  12.359  1.00  0.00     0.186 HD
BRANCH  13  16
HETATM   16  C3  UNL     1      51.784  24.020  14.463  1.00  0.00     0.161 A 
HETATM   17  N6  UNL     1      52.708  24.965  14.658  1.00  0.00    -0.282 N 
HETATM   18  N7  UNL     1      52.112  26.092  14.968  1.00  0.00    -0.294 N 
ATOM     19  H6  UNL     1      53.716  24.832  14.578  1.00  0.00     0.188 HD
HETATM   20  C4  UNL     1      50.759  25.910  14.984  1.00  0.00     0.119 A 
ATOM     21  H7  UNL     1      52.588  26.971  15.168  1.00  0.00     0.187 HD
HETATM   22  C9  UNL     1      50.556  24.606  14.666  1.00  0.00     0.124 A 
HETATM   23  N11 UNL     1      49.325  23.909  14.538  1.00  0.00    -0.096 NA
BRANCH  20  24
HETATM   24  C5  UNL     1      49.829  26.974  15.304  1.00  0.00     0.125 C 
HETATM   25  N8  UNL     1      50.260  28.009  15.936  1.00  0.00    -0.384 N 
ATOM     26  H82 UNL     1      51.247  28.056  16.190  1.00  0.00     0.157 HD
ATOM     27  H81 UNL     1      49.606  28.758  16.161  1.00  0.00     0.157 HD
BRANCH  24  28
HETATM   28  N9  UNL     1      48.470  26.910  14.954  1.00  0.00    -0.375 N 
ATOM     29  H9  UNL     1      47.921  26.085  15.193  1.00  0.00     0.161 HD
BRANCH  28  30
HETATM   30  C6  UNL     1      47.834  28.043  14.237  1.00  0.00     0.123 C 
BRANCH  30  31
HETATM   31  C7  UNL     1      48.553  28.206  12.933  1.00  0.00     0.047 C 
BRANCH  31  32
HETATM   32  C8  UNL     1      47.547  28.463  11.803  1.00  0.00     0.231 C 
BRANCH  32  33
HETATM   33  N10 UNL     1      46.259  28.018  12.299  1.00  0.00    -0.079 N 
ATOM     34 3H10 UNL     1      45.579  27.841  11.559  1.00  0.00     0.274 HD
ATOM     35 2H10 UNL     1      46.276  27.073  12.682  1.00  0.00     0.274 HD
ATOM     36 1H10 UNL     1      45.953  28.723  12.970  1.00  0.00     0.274 HD
ENDBRANCH  32  33
ENDBRANCH  31  32
ENDBRANCH  30  31
ENDBRANCH  28  30
ENDBRANCH  24  28
ENDBRANCH  20  24
ENDBRANCH  13  16
ENDBRANCH   3  12
TORSDOF 10
ENDMDL
MODEL 5
REMARK VINA RESULT: -5.672812587      1.324      7.380
REMARK  10 active torsions:
REMARK  status: ('A' for Active; 'I' for Inactive)
REMARK    1  A    between atoms: C2_3  and  N2_4 
REMARK    2  A    between atoms: C2_3  and  N3_8 
REMARK    3  A    between atoms: C2_3  and  N4_12 
REMARK    4  A    between atoms: N5_14  and  C3_16 
REMARK    5  A    between atoms: C4_21  and  C5_22 
REMARK    6  A    between atoms: C5_22  and  N9_26 
REMARK    7  A    between atoms: N9_26  and  C6_28 
REMARK    8  A    between atoms: C6_28  and  C7_29 
REMARK    9  A    between atoms: C7_29  and  C8_30 
REMARK   10  A    between atoms: C8_30  and  N10_31 
ROOT
HETATM    1  N1  UNL     1      46.251  28.522  11.718  1.00  0.00    -0.191 NA
HETATM    2  C1  UNL     1      47.032  28.520  12.576  1.00  0.00     0.153 C 
HETATM    3  C2  UNL     1      48.026  28.543  13.663  1.00  0.00     0.460 C 
ENDROOT
BRANCH   3   4
HETATM    4  N2  UNL     1      47.318  28.736  14.884  1.00  0.00    -0.012 N 
ATOM      5  H23 UNL     1      46.481  29.309  14.774  1.00  0.00     0.280 HD
ATOM      6  H22 UNL     1      46.855  27.889  15.215  1.00  0.00     0.280 HD
ATOM      7  H21 UNL     1      47.976  29.120  15.562  1.00  0.00     0.280 HD
ENDBRANCH   3   4
BRANCH   3   8
HETATM    8  N3  UNL     1      48.978  29.622  13.407  1.00  0.00    -0.012 N 
ATOM      9  H33 UNL     1      48.768  30.131  12.549  1.00  0.00     0.280 HD
ATOM     10  H32 UNL     1      48.874  30.397  14.061  1.00  0.00     0.280 HD
ATOM     11  H31 UNL     1      49.921  29.235  13.409  1.00  0.00     0.280 HD
ENDBRANCH   3   8
BRANCH   3  12
HETATM   12  N4  UNL     1      48.792  27.291  13.706  1.00  0.00    -0.264 N 
HETATM   13  N5  UNL     1      49.711  27.229  14.550  1.00  0.00    -0.283 N 
ATOM     14  H5  UNL     1      49.849  28.054  15.134  1.00  0.00     0.188 HD
ATOM     15  H4  UNL     1      48.584  26.512  13.081  1.00  0.00     0.186 HD
BRANCH  13  16
HETATM   16  C3  UNL     1      50.576  26.145  14.784  1.00  0.00     0.161 A 
HETATM   17  N6  UNL     1      51.909  26.208  14.852  1.00  0.00    -0.282 N 
HETATM   18  N7  UNL     1      52.385  25.005  15.070  1.00  0.00    -0.294 N 
ATOM     19  H6  UNL     1      52.467  27.056  14.752  1.00  0.00     0.188 HD
HETATM   20  C4  UNL     1      51.358  24.109  15.153  1.00  0.00     0.119 A 
ATOM     21  H7  UNL     1      53.374  24.774  15.164  1.00  0.00     0.187 HD
HETATM   22  C9  UNL     1      50.223  24.829  14.972  1.00  0.00     0.124 A 
HETATM   23  N11 UNL     1      48.877  24.372  14.975  1.00  0.00    -0.096 NA
BRANCH  20  24
HETATM   24  C5  UNL     1      51.571  22.694  15.378  1.00  0.00     0.125 C 
HETATM   25  N8  UNL     1      51.108  22.158  16.453  1.00  0.00    -0.384 N 
ATOM     26  H82 UNL     1      50.599  22.742  17.116  1.00  0.00     0.157 HD
ATOM     27  H81 UNL     1      51.258  21.161  16.612  1.00  0.00     0.157 HD
BRANCH  24  28
HETATM   28  N9  UNL     1      52.272  21.888  14.466  1.00  0.00    -0.375 N 
ATOM     29  H9  UNL     1      53.190  21.520  14.712  1.00  0.00     0.161 HD
BRANCH  28  30
HETATM   30  C6  UNL     1      51.676  21.573  13.143  1.00  0.00     0.123 C 
BRANCH  30  31
HETATM   31  C7  UNL     1      52.258  20.268  12.692  1.00  0.00     0.047 C 
BRANCH  31  32
HETATM   32  C8  UNL     1      52.360  20.236  11.161  1.00  0.00     0.231 C 
BRANCH  32  33
HETATM   33  N10 UNL     1      53.427  21.152  10.808  1.00  0.00    -0.079 N 
ATOM     34 3H10 UNL     1      53.279  21.623   9.914  1.00  0.00     0.274 HD
ATOM     35 2H10 UNL     1      53.451  21.991  11.388  1.00  0.00     0.274 HD
ATOM     36 1H10 UNL     1      54.291  20.610  10.843  1.00  0.00     0.274 HD
ENDBRANCH  32  33
ENDBRANCH  31  32
ENDBRANCH  30  31
ENDBRANCH  28  30
ENDBRANCH  24  28
ENDBRANCH  20  24
ENDBRANCH  13  16
ENDBRANCH   3  12
TORSDOF 10
ENDMDL
