MODEL 1
REMARK VINA RESULT: -4.740386898      0.000      0.000
REMARK  2 active torsions:
REMARK  status: ('A' for Active; 'I' for Inactive)
REMARK    1  A    between atoms: O1_2  and  N1_3 
REMARK    2  A    between atoms: C3_8  and  N3_9 
ROOT
HETATM    1  N1  UNL     1       3.238  36.329  11.169  1.00  0.00    -0.246 N 
ATOM      2  H1  UNL     1       3.098  35.979  12.117  1.00  0.00     0.196 HD
HETATM    3  C2  UNL     1       4.408  36.580  10.753  1.00  0.00     0.209 C 
HETATM    4  N2  UNL     1       5.454  36.367  11.605  1.00  0.00    -0.170 N 
ATOM      5  H2  UNL     1       5.220  35.966  12.513  1.00  0.00     0.186 HD
HETATM    6  C3  UNL     1       6.757  36.624  11.390  1.00  0.00     0.680 C 
HETATM    7  N4  UNL     1       7.295  37.425  10.445  1.00  0.00    -0.163 N 
ATOM      8  H4  UNL     1       8.299  37.582  10.543  1.00  0.00     0.187 HD
HETATM    9  C4  UNL     1       6.728  38.052   9.392  1.00  0.00     0.209 C 
HETATM   10  N5  UNL     1       7.398  39.161   8.824  1.00  0.00    -0.062 NA
HETATM   11  N6  UNL     1       5.542  37.671   8.849  1.00  0.00    -0.294 N 
ATOM     12  H6  UNL     1       5.419  37.878   7.858  1.00  0.00     0.172 HD
HETATM   13  C5  UNL     1       4.500  37.050   9.459  1.00  0.00     0.294 C 
HETATM   14  O2  UNL     1       3.460  36.868   8.751  1.00  0.00    -0.264 OA
ENDROOT
BRANCH   1  15
HETATM   15  O1  UNL     1       2.165  36.526  10.354  1.00  0.00    -0.284 OA
HETATM   16  C1  UNL     1       0.827  36.500  10.807  1.00  0.00     0.237 C 
ENDBRANCH   1  15
BRANCH   6  17
HETATM   17  N3  UNL     1       7.594  36.031  12.187  1.00  0.00    -0.234 N 
ATOM     18  H32 UNL     1       7.279  35.885  13.146  1.00  0.00     0.174 HD
ATOM     19  H31 UNL     1       8.490  35.765  11.778  1.00  0.00     0.174 HD
ENDBRANCH   6  17
TORSDOF 2
ENDMDL
MODEL 2
REMARK VINA RESULT: -4.635222847      2.637      4.699
REMARK  2 active torsions:
REMARK  status: ('A' for Active; 'I' for Inactive)
REMARK    1  A    between atoms: O1_2  and  N1_3 
REMARK    2  A    between atoms: C3_8  and  N3_9 
ROOT
HETATM    1  N1  UNL     1       8.982  37.644   9.116  1.00  0.00    -0.246 N 
ATOM      2  H1  UNL     1       9.759  37.112   9.506  1.00  0.00     0.196 HD
HETATM    3  C2  UNL     1       7.802  37.434   9.529  1.00  0.00     0.209 C 
HETATM    4  N2  UNL     1       7.617  36.488  10.497  1.00  0.00    -0.170 N 
ATOM      5  H2  UNL     1       8.461  36.047  10.862  1.00  0.00     0.186 HD
HETATM    6  C3  UNL     1       6.454  36.067  11.027  1.00  0.00     0.680 C 
HETATM    7  N4  UNL     1       5.212  36.233  10.525  1.00  0.00    -0.163 N 
ATOM      8  H4  UNL     1       4.482  35.720  11.021  1.00  0.00     0.187 HD
HETATM    9  C4  UNL     1       4.772  36.963   9.478  1.00  0.00     0.209 C 
HETATM   10  N5  UNL     1       3.527  36.632   8.895  1.00  0.00    -0.062 NA
HETATM   11  N6  UNL     1       5.469  38.005   8.953  1.00  0.00    -0.294 N 
ATOM     12  H6  UNL     1       4.912  38.735   8.509  1.00  0.00     0.172 HD
HETATM   13  C5  UNL     1       6.813  38.198   8.945  1.00  0.00     0.294 C 
HETATM   14  O2  UNL     1       7.232  39.220   8.316  1.00  0.00    -0.264 OA
ENDROOT
BRANCH   1  15
HETATM   15  O1  UNL     1       9.213  38.577   8.152  1.00  0.00    -0.284 OA
HETATM   16  C1  UNL     1      10.448  38.714   7.481  1.00  0.00     0.237 C 
ENDBRANCH   1  15
BRANCH   6  17
HETATM   17  N3  UNL     1       6.540  35.427  12.154  1.00  0.00    -0.234 N 
ATOM     18  H32 UNL     1       7.316  34.771  12.244  1.00  0.00     0.174 HD
ATOM     19  H31 UNL     1       5.822  35.641  12.846  1.00  0.00     0.174 HD
ENDBRANCH   6  17
TORSDOF 2
ENDMDL
MODEL 3
REMARK VINA RESULT: -4.607446975      3.080      4.032
REMARK  2 active torsions:
REMARK  status: ('A' for Active; 'I' for Inactive)
REMARK    1  A    between atoms: O1_2  and  N1_3 
REMARK    2  A    between atoms: C3_8  and  N3_9 
ROOT
HETATM    1  N1  UNL     1       6.140  38.106   8.607  1.00  0.00    -0.246 N 
ATOM      2  H1  UNL     1       5.149  37.880   8.693  1.00  0.00     0.196 HD
HETATM    3  C2  UNL     1       6.967  37.658   9.456  1.00  0.00     0.209 C 
HETATM    4  N2  UNL     1       6.490  36.875  10.469  1.00  0.00    -0.170 N 
ATOM      5  H2  UNL     1       5.493  36.661  10.441  1.00  0.00     0.186 HD
HETATM    6  C3  UNL     1       7.178  36.352  11.501  1.00  0.00     0.680 C 
HETATM    7  N4  UNL     1       8.394  36.724  11.953  1.00  0.00    -0.163 N 
ATOM      8  H4  UNL     1       8.674  36.284  12.830  1.00  0.00     0.187 HD
HETATM    9  C4  UNL     1       9.304  37.581  11.440  1.00  0.00     0.209 C 
HETATM   10  N5  UNL     1      10.284  38.125  12.302  1.00  0.00    -0.062 NA
HETATM   11  N6  UNL     1       9.325  37.948  10.131  1.00  0.00    -0.294 N 
ATOM     12  H6  UNL     1      10.237  38.205   9.756  1.00  0.00     0.172 HD
HETATM   13  C5  UNL     1       8.285  38.015   9.261  1.00  0.00     0.294 C 
HETATM   14  O2  UNL     1       8.548  38.467   8.102  1.00  0.00    -0.264 OA
ENDROOT
BRANCH   1  15
HETATM   15  O1  UNL     1       6.571  38.890   7.581  1.00  0.00    -0.284 OA
HETATM   16  C1  UNL     1       5.707  39.453   6.615  1.00  0.00     0.237 C 
ENDBRANCH   1  15
BRANCH   6  17
HETATM   17  N3  UNL     1       6.601  35.376  12.134  1.00  0.00    -0.234 N 
ATOM     18  H32 UNL     1       5.582  35.358  12.105  1.00  0.00     0.174 HD
ATOM     19  H31 UNL     1       7.223  34.716  12.601  1.00  0.00     0.174 HD
ENDBRANCH   6  17
TORSDOF 2
ENDMDL
MODEL 4
REMARK VINA RESULT: -4.538679743      3.455      4.774
REMARK  2 active torsions:
REMARK  status: ('A' for Active; 'I' for Inactive)
REMARK    1  A    between atoms: O1_2  and  N1_3 
REMARK    2  A    between atoms: C3_8  and  N3_9 
ROOT
HETATM    1  N1  UNL     1       7.160  38.295   8.726  1.00  0.00    -0.246 N 
ATOM      2  H1  UNL     1       6.167  38.148   8.549  1.00  0.00     0.196 HD
HETATM    3  C2  UNL     1       7.711  37.752   9.729  1.00  0.00     0.209 C 
HETATM    4  N2  UNL     1       6.939  36.977  10.548  1.00  0.00    -0.170 N 
ATOM      5  H2  UNL     1       5.970  36.846  10.259  1.00  0.00     0.186 HD
HETATM    6  C3  UNL     1       7.304  36.365  11.689  1.00  0.00     0.680 C 
HETATM    7  N4  UNL     1       8.389  36.621  12.451  1.00  0.00    -0.163 N 
ATOM      8  H4  UNL     1       8.405  36.130  13.345  1.00  0.00     0.187 HD
HETATM    9  C4  UNL     1       9.457  37.418  12.229  1.00  0.00     0.209 C 
HETATM   10  N5  UNL     1      10.221  37.851  13.337  1.00  0.00    -0.062 NA
HETATM   11  N6  UNL     1       9.835  37.826  10.989  1.00  0.00    -0.294 N 
ATOM     12  H6  UNL     1      10.828  38.021  10.868  1.00  0.00     0.172 HD
HETATM   13  C5  UNL     1       9.057  38.008   9.891  1.00  0.00     0.294 C 
HETATM   14  O2  UNL     1       9.637  38.476   8.861  1.00  0.00    -0.264 OA
ENDROOT
BRANCH   1  15
HETATM   15  O1  UNL     1       7.891  39.076   7.884  1.00  0.00    -0.284 OA
HETATM   16  C1  UNL     1       7.345  40.151   7.148  1.00  0.00     0.237 C 
ENDBRANCH   1  15
BRANCH   6  17
HETATM   17  N3  UNL     1       6.519  35.418  12.104  1.00  0.00    -0.234 N 
ATOM     18  H32 UNL     1       6.443  34.597  11.503  1.00  0.00     0.174 HD
ATOM     19  H31 UNL     1       6.050  35.583  12.995  1.00  0.00     0.174 HD
ENDBRANCH   6  17
TORSDOF 2
ENDMDL
MODEL 5
REMARK VINA RESULT: -4.466874614      3.828      5.483
REMARK  2 active torsions:
REMARK  status: ('A' for Active; 'I' for Inactive)
REMARK    1  A    between atoms: O1_2  and  N1_3 
REMARK    2  A    between atoms: C3_8  and  N3_9 
ROOT
HETATM    1  N1  UNL     1       9.913  37.086  12.389  1.00  0.00    -0.246 N 
ATOM      2  H1  UNL     1       9.889  36.201  12.894  1.00  0.00     0.196 HD
HETATM    3  C2  UNL     1       8.968  37.392  11.603  1.00  0.00     0.209 C 
HETATM    4  N2  UNL     1       7.935  36.508  11.462  1.00  0.00    -0.170 N 
ATOM      5  H2  UNL     1       7.974  35.675  12.048  1.00  0.00     0.186 HD
HETATM    6  C3  UNL     1       6.873  36.605  10.642  1.00  0.00     0.680 C 
HETATM    7  N4  UNL     1       6.734  37.406   9.563  1.00  0.00    -0.163 N 
ATOM      8  H4  UNL     1       5.899  37.225   9.005  1.00  0.00     0.187 HD
HETATM    9  C4  UNL     1       7.515  38.406   9.099  1.00  0.00     0.209 C 
HETATM   10  N5  UNL     1       7.393  38.787   7.743  1.00  0.00    -0.062 NA
HETATM   11  N6  UNL     1       8.415  39.067   9.873  1.00  0.00    -0.294 N 
ATOM     12  H6  UNL     1       8.613  40.030   9.602  1.00  0.00     0.172 HD
HETATM   13  C5  UNL     1       9.085  38.608  10.962  1.00  0.00     0.294 C 
HETATM   14  O2  UNL     1       9.941  39.398  11.471  1.00  0.00    -0.264 OA
ENDROOT
BRANCH   1  15
HETATM   15  O1  UNL     1      10.962  37.937  12.560  1.00  0.00    -0.284 OA
HETATM   16  C1  UNL     1      11.774  37.950  13.716  1.00  0.00     0.237 C 
ENDBRANCH   1  15
BRANCH   6  17
HETATM   17  N3  UNL     1       5.864  35.838  10.923  1.00  0.00    -0.234 N 
ATOM     18  H32 UNL     1       5.401  36.008  11.816  1.00  0.00     0.174 HD
ATOM     19  H31 UNL     1       5.628  35.134  10.223  1.00  0.00     0.174 HD
ENDBRANCH   6  17
TORSDOF 2
ENDMDL
