MODEL 1
REMARK VINA RESULT: -4.949427378      0.000      0.000
REMARK  2 active torsions:
REMARK  status: ('A' for Active; 'I' for Inactive)
REMARK    1  A    between atoms: C1_2  and  C2_4 
REMARK    2  A    between atoms: N4_13  and  N5_14 
ROOT
HETATM    1  C2  UNL     1       9.096  37.900  10.340  1.00  0.00     0.155 A 
HETATM    2  C3  UNL     1      10.086  37.883  11.300  1.00  0.00     0.148 A 
HETATM    3  N2  UNL     1      11.329  38.540  11.063  1.00  0.00    -0.094 NA
HETATM    4  C4  UNL     1       9.844  37.220  12.478  1.00  0.00     0.276 A 
HETATM    5  O2  UNL     1      10.738  37.200  13.356  1.00  0.00    -0.266 OA
HETATM    6  N3  UNL     1       8.666  36.588  12.720  1.00  0.00    -0.272 N 
ATOM      7  H3  UNL     1       8.484  36.095  13.594  1.00  0.00     0.174 HD
HETATM    8  C5  UNL     1       7.756  36.654  11.732  1.00  0.00     0.348 A 
HETATM    9  O3  UNL     1       6.646  36.071  11.935  1.00  0.00    -0.245 OA
HETATM   10  N4  UNL     1       7.906  37.268  10.570  1.00  0.00    -0.205 N 
ENDROOT
BRANCH   1  11
HETATM   11  C1  UNL     1       9.289  38.581   9.077  1.00  0.00     0.285 C 
HETATM   12  N1  UNL     1       9.828  37.923   7.942  1.00  0.00    -0.056 NA
HETATM   13  O1  UNL     1       8.968  39.789   8.992  1.00  0.00    -0.269 OA
ENDBRANCH   1  11
BRANCH  10  14
HETATM   14  N5  UNL     1       6.918  37.305   9.572  1.00  0.00    -0.334 N 
ATOM     15  H52 UNL     1       7.032  36.896   8.645  1.00  0.00     0.177 HD
ATOM     16  H51 UNL     1       6.030  37.764   9.778  1.00  0.00     0.177 HD
ENDBRANCH  10  14
TORSDOF 2
ENDMDL
MODEL 2
REMARK VINA RESULT: -4.597745172      1.631      3.729
REMARK  2 active torsions:
REMARK  status: ('A' for Active; 'I' for Inactive)
REMARK    1  A    between atoms: C1_2  and  C2_4 
REMARK    2  A    between atoms: N4_13  and  N5_14 
ROOT
HETATM    1  C2  UNL     1      10.464  38.040  11.808  1.00  0.00     0.155 A 
HETATM    2  C3  UNL     1      11.035  38.793  10.804  1.00  0.00     0.148 A 
HETATM    3  N2  UNL     1      12.191  39.585  11.066  1.00  0.00    -0.094 NA
HETATM    4  C4  UNL     1      10.464  38.760   9.556  1.00  0.00     0.276 A 
HETATM    5  O2  UNL     1      10.976  39.440   8.636  1.00  0.00    -0.266 OA
HETATM    6  N3  UNL     1       9.362  38.011   9.288  1.00  0.00    -0.272 N 
ATOM      7  H3  UNL     1       8.936  37.985   8.362  1.00  0.00     0.174 HD
HETATM    8  C5  UNL     1       8.870  37.308  10.323  1.00  0.00     0.348 A 
HETATM    9  O3  UNL     1       7.840  36.600  10.097  1.00  0.00    -0.245 OA
HETATM   10  N4  UNL     1       9.356  37.283  11.553  1.00  0.00    -0.205 N 
ENDROOT
BRANCH   1  11
HETATM   11  C1  UNL     1      11.019  38.032  13.146  1.00  0.00     0.285 C 
HETATM   12  N1  UNL     1      10.499  38.851  14.181  1.00  0.00    -0.056 NA
HETATM   13  O1  UNL     1      11.989  37.278  13.389  1.00  0.00    -0.269 OA
ENDBRANCH   1  11
BRANCH  10  14
HETATM   14  N5  UNL     1       8.799  36.527  12.598  1.00  0.00    -0.334 N 
ATOM     15  H52 UNL     1       9.208  35.662  12.953  1.00  0.00     0.177 HD
ATOM     16  H51 UNL     1       7.936  36.853  13.034  1.00  0.00     0.177 HD
ENDBRANCH  10  14
TORSDOF 2
ENDMDL
MODEL 3
REMARK VINA RESULT: -4.520432284      0.605      2.892
REMARK  2 active torsions:
REMARK  status: ('A' for Active; 'I' for Inactive)
REMARK    1  A    between atoms: C1_2  and  C2_4 
REMARK    2  A    between atoms: N4_13  and  N5_14 
ROOT
HETATM    1  C2  UNL     1       9.036  37.979  10.280  1.00  0.00     0.155 A 
HETATM    2  C3  UNL     1       7.812  37.363  10.435  1.00  0.00     0.148 A 
HETATM    3  N2  UNL     1       6.828  37.447   9.407  1.00  0.00    -0.094 NA
HETATM    4  C4  UNL     1       7.570  36.673  11.597  1.00  0.00     0.276 A 
HETATM    5  O2  UNL     1       6.460  36.109  11.748  1.00  0.00    -0.266 OA
HETATM    6  N3  UNL     1       8.496  36.582  12.587  1.00  0.00    -0.272 N 
ATOM      7  H3  UNL     1       8.318  36.071  13.452  1.00  0.00     0.174 HD
HETATM    8  C5  UNL     1       9.661  37.211  12.355  1.00  0.00     0.348 A 
HETATM    9  O3  UNL     1      10.543  37.141  13.266  1.00  0.00    -0.245 OA
HETATM   10  N4  UNL     1       9.976  37.896  11.268  1.00  0.00    -0.205 N 
ENDROOT
BRANCH   1  11
HETATM   11  C1  UNL     1       9.353  38.721   9.078  1.00  0.00     0.285 C 
HETATM   12  N1  UNL     1       9.919  38.100   7.936  1.00  0.00    -0.056 NA
HETATM   13  O1  UNL     1       9.118  39.952   9.053  1.00  0.00    -0.269 OA
ENDBRANCH   1  11
BRANCH  10  14
HETATM   14  N5  UNL     1      11.213  38.535  11.078  1.00  0.00    -0.334 N 
ATOM     15  H52 UNL     1      11.320  39.543  10.967  1.00  0.00     0.177 HD
ATOM     16  H51 UNL     1      12.060  37.965  11.049  1.00  0.00     0.177 HD
ENDBRANCH  10  14
TORSDOF 2
ENDMDL
MODEL 4
REMARK VINA RESULT: -4.293275108      1.505      3.407
REMARK  2 active torsions:
REMARK  status: ('A' for Active; 'I' for Inactive)
REMARK    1  A    between atoms: C1_2  and  C2_4 
REMARK    2  A    between atoms: N4_13  and  N5_14 
ROOT
HETATM    1  C2  UNL     1       9.115  38.191  10.864  1.00  0.00     0.155 A 
HETATM    2  C3  UNL     1       8.662  38.748   9.686  1.00  0.00     0.148 A 
HETATM    3  N2  UNL     1       9.354  39.848   9.098  1.00  0.00    -0.094 NA
HETATM    4  C4  UNL     1       7.538  38.220   9.102  1.00  0.00     0.276 A 
HETATM    5  O2  UNL     1       7.119  38.719   8.031  1.00  0.00    -0.266 OA
HETATM    6  N3  UNL     1       6.867  37.173   9.649  1.00  0.00    -0.272 N 
ATOM      7  H3  UNL     1       6.031  36.778   9.217  1.00  0.00     0.174 HD
HETATM    8  C5  UNL     1       7.375  36.690  10.796  1.00  0.00     0.348 A 
HETATM    9  O3  UNL     1       6.765  35.710  11.326  1.00  0.00    -0.245 OA
HETATM   10  N4  UNL     1       8.450  37.137  11.425  1.00  0.00    -0.205 N 
ENDROOT
BRANCH   1  11
HETATM   11  C1  UNL     1      10.295  38.702  11.529  1.00  0.00     0.285 C 
HETATM   12  N1  UNL     1      10.222  39.719  12.515  1.00  0.00    -0.056 NA
HETATM   13  O1  UNL     1      11.412  38.228  11.218  1.00  0.00    -0.269 OA
ENDBRANCH   1  11
BRANCH  10  14
HETATM   14  N5  UNL     1       8.937  36.592  12.624  1.00  0.00    -0.334 N 
ATOM     15  H52 UNL     1       9.434  35.703  12.682  1.00  0.00     0.177 HD
ATOM     16  H51 UNL     1       8.791  37.108  13.492  1.00  0.00     0.177 HD
ENDBRANCH  10  14
TORSDOF 2
ENDMDL
MODEL 5
REMARK VINA RESULT: -4.213891670      2.242      3.457
REMARK  2 active torsions:
REMARK  status: ('A' for Active; 'I' for Inactive)
REMARK    1  A    between atoms: C1_2  and  C2_4 
REMARK    2  A    between atoms: N4_13  and  N5_14 
ROOT
HETATM    1  C2  UNL     1       7.957  37.602  11.966  1.00  0.00     0.155 A 
HETATM    2  C3  UNL     1       7.229  38.476  12.747  1.00  0.00     0.148 A 
HETATM    3  N2  UNL     1       7.895  39.414  13.588  1.00  0.00    -0.094 NA
HETATM    4  C4  UNL     1       5.858  38.416  12.692  1.00  0.00     0.276 A 
HETATM    5  O2  UNL     1       5.188  39.206  13.398  1.00  0.00    -0.266 OA
HETATM    6  N3  UNL     1       5.207  37.528  11.897  1.00  0.00    -0.272 N 
ATOM      7  H3  UNL     1       4.189  37.482  11.854  1.00  0.00     0.174 HD
HETATM    8  C5  UNL     1       5.991  36.714  11.169  1.00  0.00     0.348 A 
HETATM    9  O3  UNL     1       5.406  35.875  10.416  1.00  0.00    -0.245 OA
HETATM   10  N4  UNL     1       7.315  36.704  11.161  1.00  0.00    -0.205 N 
ENDROOT
BRANCH   1  11
HETATM   11  C1  UNL     1       9.404  37.615  11.978  1.00  0.00     0.285 C 
HETATM   12  N1  UNL     1      10.154  36.931  12.969  1.00  0.00    -0.056 NA
HETATM   13  O1  UNL     1      10.006  38.253  11.084  1.00  0.00    -0.269 OA
ENDBRANCH   1  11
BRANCH  10  14
HETATM   14  N5  UNL     1       8.085  35.828  10.377  1.00  0.00    -0.334 N 
ATOM     15  H52 UNL     1       8.489  34.960  10.728  1.00  0.00     0.177 HD
ATOM     16  H51 UNL     1       8.255  36.066   9.400  1.00  0.00     0.177 HD
ENDBRANCH  10  14
TORSDOF 2
ENDMDL
