MODEL 1
REMARK VINA RESULT: -8.042388123      0.000      0.000
REMARK  18 active torsions:
REMARK  status: ('A' for Active; 'I' for Inactive)
REMARK    1  A    between atoms: O1_2  and  C2_3 
REMARK    2  A    between atoms: C2_3  and  C3_5 
REMARK       I    between atoms: C3_5  and  N1_7 
REMARK    3  A    between atoms: N1_7  and  C4_9 
REMARK    4  A    between atoms: C4_9  and  C5_10 
REMARK    5  A    between atoms: C5_10  and  C6_11 
REMARK    6  A    between atoms: C7_12  and  C8_13 
REMARK    7  A    between atoms: C9_14  and  N2_15 
REMARK    8  A    between atoms: N2_15  and  C10_17 
REMARK    9  A    between atoms: C10_17  and  C11_18 
REMARK   10  A    between atoms: C14_23  and  O4_24 
REMARK   11  A    between atoms: O4_24  and  C15_25 
REMARK   12  A    between atoms: C15_25  and  C16_26 
REMARK   13  A    between atoms: C16_26  and  C17_27 
REMARK   14  A    between atoms: C17_27  and  C18_28 
REMARK   15  A    between atoms: C18_28  and  C19_29 
REMARK   16  A    between atoms: C19_29  and  N4_30 
REMARK   17  A    between atoms: C24_47  and  N9_48 
REMARK   18  A    between atoms: C25_53  and  N11_54 
ROOT
HETATM    1  N2  UNL     1      50.267  20.486 -11.256  1.00  0.00    -0.367 N 
ATOM      2  H2  UNL     1      50.208  19.498 -11.505  1.00  0.00     0.161 HD
ENDROOT
BRANCH   1   3
HETATM    3  C9  UNL     1      50.713  21.415 -12.236  1.00  0.00     0.140 A 
HETATM    4  C8  UNL     1      50.306  21.266 -13.573  1.00  0.00     0.106 A 
HETATM    5  C25 UNL     1      50.713  22.157 -14.536  1.00  0.00     0.137 A 
HETATM    6  N10 UNL     1      51.511  23.176 -14.178  1.00  0.00    -0.176 N 
HETATM    7  C24 UNL     1      51.889  23.304 -12.896  1.00  0.00     0.679 A 
ATOM      8  H10 UNL     1      51.827  23.850 -14.876  1.00  0.00     0.186 HD
HETATM    9  N8  UNL     1      51.510  22.447 -11.913  1.00  0.00    -0.176 N 
ATOM     10  H8  UNL     1      51.824  22.584 -10.952  1.00  0.00     0.186 HD
BRANCH   4  11
HETATM   11  C7  UNL     1      49.450  20.151 -13.892  1.00  0.00    -0.059 C 
HETATM   12  C6  UNL     1      48.745  19.219 -14.177  1.00  0.00    -0.099 C 
BRANCH  12  13
HETATM   13  C5  UNL     1      47.905  18.087 -14.536  1.00  0.00     0.114 C 
BRANCH  13  14
HETATM   14  C4  UNL     1      47.919  16.998 -13.511  1.00  0.00     0.135 C 
BRANCH  14  15
HETATM   15  N1  UNL     1      47.142  17.304 -12.343  1.00  0.00    -0.352 N 
HETATM   16  C3  UNL     1      47.809  17.556 -11.116  1.00  0.00     0.317 C 
HETATM   17  O3  UNL     1      49.054  17.516 -11.029  1.00  0.00    -0.262 OA
ATOM     18  H1  UNL     1      46.124  17.341 -12.395  1.00  0.00     0.162 HD
BRANCH  16  19
HETATM   19  C2  UNL     1      47.055  17.874  -9.891  1.00  0.00     0.351 C 
HETATM   20  O2  UNL     1      47.521  17.621  -8.747  1.00  0.00    -0.254 OA
BRANCH  19  21
HETATM   21  O1  UNL     1      45.804  18.463  -9.939  1.00  0.00    -0.319 OA
HETATM   22  C1  UNL     1      44.622  17.752  -9.601  1.00  0.00     0.213 C 
ENDBRANCH  19  21
ENDBRANCH  16  19
ENDBRANCH  14  15
ENDBRANCH  13  14
ENDBRANCH  12  13
ENDBRANCH   4  11
BRANCH   5  23
HETATM   23  N11 UNL     1      50.314  21.982 -15.753  1.00  0.00    -0.384 N 
ATOM     24 2H11 UNL     1      49.345  21.765 -15.986  1.00  0.00     0.157 HD
ATOM     25 1H11 UNL     1      50.994  22.064 -16.509  1.00  0.00     0.157 HD
ENDBRANCH   5  23
BRANCH   7  26
HETATM   26  N9  UNL     1      52.664  24.286 -12.520  1.00  0.00    -0.234 N 
ATOM     27  H92 UNL     1      52.857  24.452 -11.533  1.00  0.00     0.174 HD
ATOM     28  H91 UNL     1      53.049  24.856 -13.273  1.00  0.00     0.174 HD
ENDBRANCH   7  26
ENDBRANCH   1   3
BRANCH   1  29
HETATM   29  C10 UNL     1      49.900  20.883  -9.946  1.00  0.00     0.197 C 
BRANCH  29  30
HETATM   30  C11 UNL     1      50.336  19.948  -8.870  1.00  0.00     0.101 A 
HETATM   31  N3  UNL     1      50.413  18.626  -8.849  1.00  0.00    -0.341 N 
HETATM   32  C12 UNL     1      50.871  18.186  -7.639  1.00  0.00     0.081 A 
ATOM     33  H3  UNL     1      50.164  18.019  -9.630  1.00  0.00     0.167 HD
HETATM   34  C13 UNL     1      51.125  16.953  -7.112  1.00  0.00     0.071 A 
HETATM   35  C23 UNL     1      51.077  19.337  -6.899  1.00  0.00     0.134 A 
HETATM   36  C14 UNL     1      51.607  16.844  -5.787  1.00  0.00     0.086 A 
HETATM   37  C22 UNL     1      51.796  18.017  -5.093  1.00  0.00     0.126 A 
HETATM   38  N6  UNL     1      51.536  19.218  -5.641  1.00  0.00    -0.348 N 
ATOM     39  H6  UNL     1      51.691  20.061  -5.087  1.00  0.00     0.167 HD
HETATM   40  N7  UNL     1      50.745  20.382  -7.666  1.00  0.00    -0.329 N 
ATOM     41  H7  UNL     1      50.796  21.360  -7.380  1.00  0.00     0.168 HD
BRANCH  36  42
HETATM   42  O4  UNL     1      51.850  15.583  -5.305  1.00  0.00    -0.350 OA
BRANCH  42  43
HETATM   43  C15 UNL     1      52.978  15.066  -4.708  1.00  0.00     0.175 C 
BRANCH  43  44
HETATM   44  C16 UNL     1      52.837  14.902  -3.229  1.00  0.00     0.027 C 
BRANCH  44  45
HETATM   45  C17 UNL     1      53.456  16.072  -2.492  1.00  0.00     0.006 C 
BRANCH  45  46
HETATM   46  C18 UNL     1      52.509  16.600  -1.471  1.00  0.00     0.069 C 
BRANCH  46  47
HETATM   47  C19 UNL     1      52.644  18.118  -1.462  1.00  0.00     0.286 C 
HETATM   48  C20 UNL     1      53.844  18.658  -2.170  1.00  0.00     0.097 C 
HETATM   49  C21 UNL     1      53.939  19.575  -0.952  1.00  0.00     0.239 C 
HETATM   50  N5  UNL     1      53.207  18.554  -0.200  1.00  0.00    -0.041 N 
ATOM     51  H52 UNL     1      52.607  18.807   0.584  1.00  0.00     0.280 HD
ATOM     52  H51 UNL     1      53.695  17.900   0.412  1.00  0.00     0.280 HD
BRANCH  47  53
HETATM   53  N4  UNL     1      51.451  18.844  -1.771  1.00  0.00    -0.044 N 
ATOM     54  H43 UNL     1      50.759  18.219  -2.184  1.00  0.00     0.277 HD
ATOM     55  H42 UNL     1      50.968  19.106  -0.911  1.00  0.00     0.277 HD
ATOM     56  H41 UNL     1      51.578  19.664  -2.364  1.00  0.00     0.277 HD
ENDBRANCH  47  53
ENDBRANCH  46  47
ENDBRANCH  45  46
ENDBRANCH  44  45
ENDBRANCH  43  44
ENDBRANCH  42  43
ENDBRANCH  36  42
ENDBRANCH  29  30
ENDBRANCH   1  29
TORSDOF 18
ENDMDL
MODEL 2
REMARK VINA RESULT: -7.993089706      3.514     11.096
REMARK  18 active torsions:
REMARK  status: ('A' for Active; 'I' for Inactive)
REMARK    1  A    between atoms: O1_2  and  C2_3 
REMARK    2  A    between atoms: C2_3  and  C3_5 
REMARK       I    between atoms: C3_5  and  N1_7 
REMARK    3  A    between atoms: N1_7  and  C4_9 
REMARK    4  A    between atoms: C4_9  and  C5_10 
REMARK    5  A    between atoms: C5_10  and  C6_11 
REMARK    6  A    between atoms: C7_12  and  C8_13 
REMARK    7  A    between atoms: C9_14  and  N2_15 
REMARK    8  A    between atoms: N2_15  and  C10_17 
REMARK    9  A    between atoms: C10_17  and  C11_18 
REMARK   10  A    between atoms: C14_23  and  O4_24 
REMARK   11  A    between atoms: O4_24  and  C15_25 
REMARK   12  A    between atoms: C15_25  and  C16_26 
REMARK   13  A    between atoms: C16_26  and  C17_27 
REMARK   14  A    between atoms: C17_27  and  C18_28 
REMARK   15  A    between atoms: C18_28  and  C19_29 
REMARK   16  A    between atoms: C19_29  and  N4_30 
REMARK   17  A    between atoms: C24_47  and  N9_48 
REMARK   18  A    between atoms: C25_53  and  N11_54 
ROOT
HETATM    1  N2  UNL     1      51.768  13.172  -5.272  1.00  0.00    -0.367 N 
ATOM      2  H2  UNL     1      51.224  13.304  -4.419  1.00  0.00     0.161 HD
ENDROOT
BRANCH   1   3
HETATM    3  C9  UNL     1      53.083  12.641  -5.173  1.00  0.00     0.140 A 
HETATM    4  C8  UNL     1      53.818  12.820  -3.988  1.00  0.00     0.106 A 
HETATM    5  C25 UNL     1      55.085  12.306  -3.862  1.00  0.00     0.137 A 
HETATM    6  N10 UNL     1      55.614  11.627  -4.893  1.00  0.00    -0.176 N 
HETATM    7  C24 UNL     1      54.897  11.465  -6.017  1.00  0.00     0.679 A 
ATOM      8  H10 UNL     1      56.554  11.238  -4.823  1.00  0.00     0.186 HD
HETATM    9  N8  UNL     1      53.642  11.956  -6.184  1.00  0.00    -0.176 N 
ATOM     10  H8  UNL     1      53.137  11.808  -7.057  1.00  0.00     0.186 HD
BRANCH   4  11
HETATM   11  C7  UNL     1      53.194  13.558  -2.918  1.00  0.00    -0.059 C 
HETATM   12  C6  UNL     1      52.670  14.155  -2.015  1.00  0.00    -0.099 C 
BRANCH  12  13
HETATM   13  C5  UNL     1      52.040  14.862  -0.910  1.00  0.00     0.114 C 
BRANCH  13  14
HETATM   14  C4  UNL     1      51.973  16.341  -1.122  1.00  0.00     0.135 C 
BRANCH  14  15
HETATM   15  N1  UNL     1      53.140  16.878  -1.764  1.00  0.00    -0.352 N 
HETATM   16  C3  UNL     1      53.007  18.021  -2.595  1.00  0.00     0.317 C 
HETATM   17  O3  UNL     1      51.901  18.569  -2.779  1.00  0.00    -0.262 OA
ATOM     18  H1  UNL     1      54.052  16.443  -1.626  1.00  0.00     0.162 HD
BRANCH  16  19
HETATM   19  C2  UNL     1      54.175  18.607  -3.275  1.00  0.00     0.351 C 
HETATM   20  O2  UNL     1      54.371  18.440  -4.509  1.00  0.00    -0.254 OA
BRANCH  19  21
HETATM   21  O1  UNL     1      55.109  19.368  -2.593  1.00  0.00    -0.319 OA
HETATM   22  C1  UNL     1      54.770  20.118  -1.436  1.00  0.00     0.213 C 
ENDBRANCH  19  21
ENDBRANCH  16  19
ENDBRANCH  14  15
ENDBRANCH  13  14
ENDBRANCH  12  13
ENDBRANCH   4  11
BRANCH   5  23
HETATM   23  N11 UNL     1      55.725  12.495  -2.754  1.00  0.00    -0.384 N 
ATOM     24 2H11 UNL     1      55.250  12.592  -1.857  1.00  0.00     0.157 HD
ATOM     25 1H11 UNL     1      56.743  12.547  -2.778  1.00  0.00     0.157 HD
ENDBRANCH   5  23
BRANCH   7  26
HETATM   26  N9  UNL     1      55.386  10.810  -7.036  1.00  0.00    -0.234 N 
ATOM     27  H92 UNL     1      55.088  11.023  -7.987  1.00  0.00     0.174 HD
ATOM     28  H91 UNL     1      56.071  10.089  -6.808  1.00  0.00     0.174 HD
ENDBRANCH   7  26
ENDBRANCH   1   3
BRANCH   1  29
HETATM   29  C10 UNL     1      51.185  13.526  -6.515  1.00  0.00     0.197 C 
BRANCH  29  30
HETATM   30  C11 UNL     1      51.096  14.993  -6.763  1.00  0.00     0.101 A 
HETATM   31  N3  UNL     1      50.714  15.669  -7.837  1.00  0.00    -0.341 N 
HETATM   32  C12 UNL     1      50.792  17.015  -7.615  1.00  0.00     0.081 A 
ATOM     33  H3  UNL     1      50.403  15.242  -8.709  1.00  0.00     0.167 HD
HETATM   34  C13 UNL     1      50.523  18.118  -8.372  1.00  0.00     0.071 A 
HETATM   35  C23 UNL     1      51.255  17.134  -6.317  1.00  0.00     0.134 A 
HETATM   36  C14 UNL     1      50.718  19.408  -7.824  1.00  0.00     0.086 A 
HETATM   37  C22 UNL     1      51.178  19.472  -6.529  1.00  0.00     0.126 A 
HETATM   38  N6  UNL     1      51.435  18.365  -5.809  1.00  0.00    -0.348 N 
ATOM     39  H6  UNL     1      51.776  18.463  -4.853  1.00  0.00     0.167 HD
HETATM   40  N7  UNL     1      51.429  15.899  -5.830  1.00  0.00    -0.329 N 
ATOM     41  H7  UNL     1      51.764  15.680  -4.891  1.00  0.00     0.168 HD
BRANCH  36  42
HETATM   42  O4  UNL     1      50.429  20.484  -8.624  1.00  0.00    -0.350 OA
BRANCH  42  43
HETATM   43  C15 UNL     1      50.365  20.575  -9.996  1.00  0.00     0.175 C 
BRANCH  43  44
HETATM   44  C16 UNL     1      50.590  21.962 -10.504  1.00  0.00     0.027 C 
BRANCH  44  45
HETATM   45  C17 UNL     1      51.379  21.945 -11.797  1.00  0.00     0.006 C 
BRANCH  45  46
HETATM   46  C18 UNL     1      50.525  21.466 -12.918  1.00  0.00     0.069 C 
BRANCH  46  47
HETATM   47  C19 UNL     1      50.537  22.543 -13.997  1.00  0.00     0.286 C 
HETATM   48  C20 UNL     1      50.441  22.042 -15.402  1.00  0.00     0.097 C 
HETATM   49  C21 UNL     1      51.529  23.081 -15.666  1.00  0.00     0.239 C 
HETATM   50  N5  UNL     1      51.898  22.967 -14.254  1.00  0.00    -0.041 N 
ATOM     51  H52 UNL     1      52.308  23.754 -13.752  1.00  0.00     0.280 HD
ATOM     52  H51 UNL     1      52.691  22.396 -13.962  1.00  0.00     0.280 HD
BRANCH  47  53
HETATM   53  N4  UNL     1      49.685  23.666 -13.756  1.00  0.00    -0.044 N 
ATOM     54  H43 UNL     1      49.277  23.990 -14.633  1.00  0.00     0.277 HD
ATOM     55  H42 UNL     1      48.842  23.366 -13.265  1.00  0.00     0.277 HD
ATOM     56  H41 UNL     1      50.117  24.447 -13.263  1.00  0.00     0.277 HD
ENDBRANCH  47  53
ENDBRANCH  46  47
ENDBRANCH  45  46
ENDBRANCH  44  45
ENDBRANCH  43  44
ENDBRANCH  42  43
ENDBRANCH  36  42
ENDBRANCH  29  30
ENDBRANCH   1  29
TORSDOF 18
ENDMDL
MODEL 3
REMARK VINA RESULT: -7.903058681      3.782     10.804
REMARK  18 active torsions:
REMARK  status: ('A' for Active; 'I' for Inactive)
REMARK    1  A    between atoms: O1_2  and  C2_3 
REMARK    2  A    between atoms: C2_3  and  C3_5 
REMARK       I    between atoms: C3_5  and  N1_7 
REMARK    3  A    between atoms: N1_7  and  C4_9 
REMARK    4  A    between atoms: C4_9  and  C5_10 
REMARK    5  A    between atoms: C5_10  and  C6_11 
REMARK    6  A    between atoms: C7_12  and  C8_13 
REMARK    7  A    between atoms: C9_14  and  N2_15 
REMARK    8  A    between atoms: N2_15  and  C10_17 
REMARK    9  A    between atoms: C10_17  and  C11_18 
REMARK   10  A    between atoms: C14_23  and  O4_24 
REMARK   11  A    between atoms: O4_24  and  C15_25 
REMARK   12  A    between atoms: C15_25  and  C16_26 
REMARK   13  A    between atoms: C16_26  and  C17_27 
REMARK   14  A    between atoms: C17_27  and  C18_28 
REMARK   15  A    between atoms: C18_28  and  C19_29 
REMARK   16  A    between atoms: C19_29  and  N4_30 
REMARK   17  A    between atoms: C24_47  and  N9_48 
REMARK   18  A    between atoms: C25_53  and  N11_54 
ROOT
HETATM    1  N2  UNL     1      51.326  13.528  -6.680  1.00  0.00    -0.367 N 
ATOM      2  H2  UNL     1      51.827  13.972  -5.910  1.00  0.00     0.161 HD
ENDROOT
BRANCH   1   3
HETATM    3  C9  UNL     1      51.844  12.325  -7.234  1.00  0.00     0.140 A 
HETATM    4  C8  UNL     1      52.953  11.705  -6.634  1.00  0.00     0.106 A 
HETATM    5  C25 UNL     1      53.465  10.535  -7.142  1.00  0.00     0.137 A 
HETATM    6  N10 UNL     1      52.886   9.992  -8.225  1.00  0.00    -0.176 N 
HETATM    7  C24 UNL     1      51.826  10.598  -8.784  1.00  0.00     0.679 A 
ATOM      8  H10 UNL     1      53.249   9.125  -8.621  1.00  0.00     0.186 HD
HETATM    9  N8  UNL     1      51.289  11.753  -8.316  1.00  0.00    -0.176 N 
ATOM     10  H8  UNL     1      50.483  12.177  -8.775  1.00  0.00     0.186 HD
BRANCH   4  11
HETATM   11  C7  UNL     1      53.528  12.337  -5.474  1.00  0.00    -0.059 C 
HETATM   12  C6  UNL     1      54.006  12.884  -4.515  1.00  0.00    -0.099 C 
BRANCH  12  13
HETATM   13  C5  UNL     1      54.576  13.562  -3.360  1.00  0.00     0.114 C 
BRANCH  13  14
HETATM   14  C4  UNL     1      53.651  14.571  -2.757  1.00  0.00     0.135 C 
BRANCH  14  15
HETATM   15  N1  UNL     1      54.060  15.928  -2.988  1.00  0.00    -0.352 N 
HETATM   16  C3  UNL     1      53.564  16.616  -4.125  1.00  0.00     0.317 C 
HETATM   17  O3  UNL     1      52.781  16.068  -4.929  1.00  0.00    -0.262 OA
ATOM     18  H1  UNL     1      54.700  16.391  -2.343  1.00  0.00     0.162 HD
BRANCH  16  19
HETATM   19  C2  UNL     1      53.955  18.009  -4.404  1.00  0.00     0.351 C 
HETATM   20  O2  UNL     1      53.658  18.571  -5.492  1.00  0.00    -0.254 OA
BRANCH  19  21
HETATM   21  O1  UNL     1      54.664  18.763  -3.486  1.00  0.00    -0.319 OA
HETATM   22  C1  UNL     1      54.041  19.361  -2.358  1.00  0.00     0.213 C 
ENDBRANCH  19  21
ENDBRANCH  16  19
ENDBRANCH  14  15
ENDBRANCH  13  14
ENDBRANCH  12  13
ENDBRANCH   4  11
BRANCH   5  23
HETATM   23  N11 UNL     1      54.486   9.998  -6.558  1.00  0.00    -0.384 N 
ATOM     24 2H11 UNL     1      55.243  10.554  -6.158  1.00  0.00     0.157 HD
ATOM     25 1H11 UNL     1      54.537   8.982  -6.495  1.00  0.00     0.157 HD
ENDBRANCH   5  23
BRANCH   7  26
HETATM   26  N9  UNL     1      51.244  10.092  -9.839  1.00  0.00    -0.234 N 
ATOM     27  H92 UNL     1      50.978  10.685 -10.625  1.00  0.00     0.174 HD
ATOM     28  H91 UNL     1      51.080   9.086  -9.812  1.00  0.00     0.174 HD
ENDBRANCH   7  26
ENDBRANCH   1   3
BRANCH   1  29
HETATM   29  C10 UNL     1      50.137  14.133  -7.160  1.00  0.00     0.197 C 
BRANCH  29  30
HETATM   30  C11 UNL     1      50.254  15.591  -7.445  1.00  0.00     0.101 A 
HETATM   31  N3  UNL     1      50.171  16.261  -8.585  1.00  0.00    -0.341 N 
HETATM   32  C12 UNL     1      50.343  17.600  -8.374  1.00  0.00     0.081 A 
ATOM     33  H3  UNL     1      50.001  15.834  -9.496  1.00  0.00     0.167 HD
HETATM   34  C13 UNL     1      50.350  18.695  -9.188  1.00  0.00     0.071 A 
HETATM   35  C23 UNL     1      50.541  17.721  -7.010  1.00  0.00     0.134 A 
HETATM   36  C14 UNL     1      50.563  19.979  -8.633  1.00  0.00     0.086 A 
HETATM   37  C22 UNL     1      50.754  20.046  -7.272  1.00  0.00     0.126 A 
HETATM   38  N6  UNL     1      50.742  18.946  -6.496  1.00  0.00    -0.348 N 
ATOM     39  H6  UNL     1      50.890  19.046  -5.492  1.00  0.00     0.167 HD
HETATM   40  N7  UNL     1      50.483  16.494  -6.478  1.00  0.00    -0.329 N 
ATOM     41  H7  UNL     1      50.595  16.278  -5.487  1.00  0.00     0.168 HD
BRANCH  36  42
HETATM   42  O4  UNL     1      50.557  21.048  -9.492  1.00  0.00    -0.350 OA
BRANCH  42  43
HETATM   43  C15 UNL     1      50.981  21.134 -10.799  1.00  0.00     0.175 C 
BRANCH  43  44
HETATM   44  C16 UNL     1      49.857  21.292 -11.771  1.00  0.00     0.027 C 
BRANCH  44  45
HETATM   45  C17 UNL     1      50.348  21.141 -13.197  1.00  0.00     0.006 C 
BRANCH  45  46
HETATM   46  C18 UNL     1      51.336  22.207 -13.520  1.00  0.00     0.069 C 
BRANCH  46  47
HETATM   47  C19 UNL     1      50.905  22.850 -14.833  1.00  0.00     0.286 C 
HETATM   48  C20 UNL     1      50.671  21.901 -15.963  1.00  0.00     0.097 C 
HETATM   49  C21 UNL     1      51.427  22.950 -16.777  1.00  0.00     0.239 C 
HETATM   50  N5  UNL     1      52.063  23.373 -15.528  1.00  0.00    -0.041 N 
ATOM     51  H52 UNL     1      52.368  24.337 -15.393  1.00  0.00     0.280 HD
ATOM     52  H51 UNL     1      53.005  23.065 -15.287  1.00  0.00     0.280 HD
BRANCH  47  53
HETATM   53  N4  UNL     1      49.878  23.840 -14.727  1.00  0.00    -0.044 N 
ATOM     54  H43 UNL     1      50.260  24.698 -14.329  1.00  0.00     0.277 HD
ATOM     55  H42 UNL     1      49.616  24.172 -15.655  1.00  0.00     0.277 HD
ATOM     56  H41 UNL     1      49.047  23.556 -14.210  1.00  0.00     0.277 HD
ENDBRANCH  47  53
ENDBRANCH  46  47
ENDBRANCH  45  46
ENDBRANCH  44  45
ENDBRANCH  43  44
ENDBRANCH  42  43
ENDBRANCH  36  42
ENDBRANCH  29  30
ENDBRANCH   1  29
TORSDOF 18
ENDMDL
MODEL 4
REMARK VINA RESULT: -7.841752153      1.346      1.826
REMARK  18 active torsions:
REMARK  status: ('A' for Active; 'I' for Inactive)
REMARK    1  A    between atoms: O1_2  and  C2_3 
REMARK    2  A    between atoms: C2_3  and  C3_5 
REMARK       I    between atoms: C3_5  and  N1_7 
REMARK    3  A    between atoms: N1_7  and  C4_9 
REMARK    4  A    between atoms: C4_9  and  C5_10 
REMARK    5  A    between atoms: C5_10  and  C6_11 
REMARK    6  A    between atoms: C7_12  and  C8_13 
REMARK    7  A    between atoms: C9_14  and  N2_15 
REMARK    8  A    between atoms: N2_15  and  C10_17 
REMARK    9  A    between atoms: C10_17  and  C11_18 
REMARK   10  A    between atoms: C14_23  and  O4_24 
REMARK   11  A    between atoms: O4_24  and  C15_25 
REMARK   12  A    between atoms: C15_25  and  C16_26 
REMARK   13  A    between atoms: C16_26  and  C17_27 
REMARK   14  A    between atoms: C17_27  and  C18_28 
REMARK   15  A    between atoms: C18_28  and  C19_29 
REMARK   16  A    between atoms: C19_29  and  N4_30 
REMARK   17  A    between atoms: C24_47  and  N9_48 
REMARK   18  A    between atoms: C25_53  and  N11_54 
ROOT
HETATM    1  N2  UNL     1      49.477  20.792  -9.869  1.00  0.00    -0.367 N 
ATOM      2  H2  UNL     1      48.604  20.264  -9.882  1.00  0.00     0.161 HD
ENDROOT
BRANCH   1   3
HETATM    3  C9  UNL     1      49.897  21.452 -11.057  1.00  0.00     0.140 A 
HETATM    4  C8  UNL     1      49.740  20.815 -12.300  1.00  0.00     0.106 A 
HETATM    5  C25 UNL     1      50.126  21.436 -13.463  1.00  0.00     0.137 A 
HETATM    6  N10 UNL     1      50.660  22.666 -13.393  1.00  0.00    -0.176 N 
HETATM    7  C24 UNL     1      50.802  23.260 -12.197  1.00  0.00     0.679 A 
ATOM      8  H10 UNL     1      50.956  23.146 -14.243  1.00  0.00     0.186 HD
HETATM    9  N8  UNL     1      50.434  22.683 -11.024  1.00  0.00    -0.176 N 
ATOM     10  H8  UNL     1      50.562  23.174 -10.139  1.00  0.00     0.186 HD
BRANCH   4  11
HETATM   11  C7  UNL     1      49.161  19.495 -12.307  1.00  0.00    -0.059 C 
HETATM   12  C6  UNL     1      48.690  18.388 -12.298  1.00  0.00    -0.099 C 
BRANCH  12  13
HETATM   13  C5  UNL     1      48.127  17.047 -12.268  1.00  0.00     0.114 C 
BRANCH  13  14
HETATM   14  C4  UNL     1      48.388  16.329 -10.983  1.00  0.00     0.135 C 
BRANCH  14  15
HETATM   15  N1  UNL     1      47.208  16.140 -10.186  1.00  0.00    -0.352 N 
HETATM   16  C3  UNL     1      46.786  17.180  -9.317  1.00  0.00     0.317 C 
HETATM   17  O3  UNL     1      47.417  18.254  -9.230  1.00  0.00    -0.262 OA
ATOM     18  H1  UNL     1      46.680  15.269 -10.243  1.00  0.00     0.162 HD
BRANCH  16  19
HETATM   19  C2  UNL     1      45.583  17.032  -8.480  1.00  0.00     0.351 C 
HETATM   20  O2  UNL     1      45.639  16.513  -7.333  1.00  0.00    -0.254 OA
BRANCH  19  21
HETATM   21  O1  UNL     1      44.339  17.455  -8.914  1.00  0.00    -0.319 OA
HETATM   22  C1  UNL     1      43.140  16.808  -8.511  1.00  0.00     0.213 C 
ENDBRANCH  19  21
ENDBRANCH  16  19
ENDBRANCH  14  15
ENDBRANCH  13  14
ENDBRANCH  12  13
ENDBRANCH   4  11
BRANCH   5  23
HETATM   23  N11 UNL     1      49.963  20.812 -14.584  1.00  0.00    -0.384 N 
ATOM     24 2H11 UNL     1      50.307  19.865 -14.739  1.00  0.00     0.157 HD
ATOM     25 1H11 UNL     1      49.470  21.286 -15.341  1.00  0.00     0.157 HD
ENDBRANCH   5  23
BRANCH   7  26
HETATM   26  N9  UNL     1      51.318  24.456 -12.099  1.00  0.00    -0.234 N 
ATOM     27  H92 UNL     1      50.831  25.197 -11.597  1.00  0.00     0.174 HD
ATOM     28  H91 UNL     1      52.222  24.585 -12.555  1.00  0.00     0.174 HD
ENDBRANCH   7  26
ENDBRANCH   1   3
BRANCH   1  29
HETATM   29  C10 UNL     1      50.227  20.843  -8.668  1.00  0.00     0.197 C 
BRANCH  29  30
HETATM   30  C11 UNL     1      50.517  19.512  -8.061  1.00  0.00     0.101 A 
HETATM   31  N3  UNL     1      51.066  19.191  -6.900  1.00  0.00    -0.341 N 
HETATM   32  C12 UNL     1      51.137  17.833  -6.757  1.00  0.00     0.081 A 
ATOM     33  H3  UNL     1      51.392  19.864  -6.207  1.00  0.00     0.167 HD
HETATM   34  C13 UNL     1      51.602  17.006  -5.776  1.00  0.00     0.071 A 
HETATM   35  C23 UNL     1      50.588  17.325  -7.920  1.00  0.00     0.134 A 
HETATM   36  C14 UNL     1      51.524  15.604  -5.948  1.00  0.00     0.086 A 
HETATM   37  C22 UNL     1      50.969  15.149  -7.122  1.00  0.00     0.126 A 
HETATM   38  N6  UNL     1      50.519  15.991  -8.070  1.00  0.00    -0.348 N 
ATOM     39  H6  UNL     1      50.117  15.608  -8.925  1.00  0.00     0.167 HD
HETATM   40  N7  UNL     1      50.224  18.361  -8.687  1.00  0.00    -0.329 N 
ATOM     41  H7  UNL     1      49.790  18.286  -9.608  1.00  0.00     0.168 HD
BRANCH  36  42
HETATM   42  O4  UNL     1      52.002  14.815  -4.932  1.00  0.00    -0.350 OA
BRANCH  42  43
HETATM   43  C15 UNL     1      53.299  14.545  -4.558  1.00  0.00     0.175 C 
BRANCH  43  44
HETATM   44  C16 UNL     1      53.566  14.832  -3.116  1.00  0.00     0.027 C 
BRANCH  44  45
HETATM   45  C17 UNL     1      53.780  16.315  -2.890  1.00  0.00     0.006 C 
BRANCH  45  46
HETATM   46  C18 UNL     1      52.889  16.806  -1.802  1.00  0.00     0.069 C 
BRANCH  46  47
HETATM   47  C19 UNL     1      52.844  18.326  -1.897  1.00  0.00     0.286 C 
HETATM   48  C20 UNL     1      53.983  18.956  -2.631  1.00  0.00     0.097 C 
HETATM   49  C21 UNL     1      53.948  19.959  -1.479  1.00  0.00     0.239 C 
HETATM   50  N5  UNL     1      53.329  18.912  -0.665  1.00  0.00    -0.041 N 
ATOM     51  H52 UNL     1      52.690  19.144   0.095  1.00  0.00     0.280 HD
ATOM     52  H51 UNL     1      53.880  18.364  -0.003  1.00  0.00     0.280 HD
BRANCH  47  53
HETATM   53  N4  UNL     1      51.579  18.882  -2.268  1.00  0.00    -0.044 N 
ATOM     54  H43 UNL     1      51.357  18.633  -3.232  1.00  0.00     0.277 HD
ATOM     55  H42 UNL     1      50.827  18.397  -1.778  1.00  0.00     0.277 HD
ATOM     56  H41 UNL     1      51.488  19.889  -2.139  1.00  0.00     0.277 HD
ENDBRANCH  47  53
ENDBRANCH  46  47
ENDBRANCH  45  46
ENDBRANCH  44  45
ENDBRANCH  43  44
ENDBRANCH  42  43
ENDBRANCH  36  42
ENDBRANCH  29  30
ENDBRANCH   1  29
TORSDOF 18
ENDMDL
MODEL 5
REMARK VINA RESULT: -7.629210877      3.908      5.491
REMARK  18 active torsions:
REMARK  status: ('A' for Active; 'I' for Inactive)
REMARK    1  A    between atoms: O1_2  and  C2_3 
REMARK    2  A    between atoms: C2_3  and  C3_5 
REMARK       I    between atoms: C3_5  and  N1_7 
REMARK    3  A    between atoms: N1_7  and  C4_9 
REMARK    4  A    between atoms: C4_9  and  C5_10 
REMARK    5  A    between atoms: C5_10  and  C6_11 
REMARK    6  A    between atoms: C7_12  and  C8_13 
REMARK    7  A    between atoms: C9_14  and  N2_15 
REMARK    8  A    between atoms: N2_15  and  C10_17 
REMARK    9  A    between atoms: C10_17  and  C11_18 
REMARK   10  A    between atoms: C14_23  and  O4_24 
REMARK   11  A    between atoms: O4_24  and  C15_25 
REMARK   12  A    between atoms: C15_25  and  C16_26 
REMARK   13  A    between atoms: C16_26  and  C17_27 
REMARK   14  A    between atoms: C17_27  and  C18_28 
REMARK   15  A    between atoms: C18_28  and  C19_29 
REMARK   16  A    between atoms: C19_29  and  N4_30 
REMARK   17  A    between atoms: C24_47  and  N9_48 
REMARK   18  A    between atoms: C25_53  and  N11_54 
ROOT
HETATM    1  N2  UNL     1      50.252  19.027  -8.412  1.00  0.00    -0.367 N 
ATOM      2  H2  UNL     1      50.092  18.020  -8.374  1.00  0.00     0.161 HD
ENDROOT
BRANCH   1   3
HETATM    3  C9  UNL     1      50.027  19.712  -9.637  1.00  0.00     0.140 A 
HETATM    4  C8  UNL     1      48.789  19.581 -10.290  1.00  0.00     0.106 A 
HETATM    5  C25 UNL     1      48.541  20.242 -11.468  1.00  0.00     0.137 A 
HETATM    6  N10 UNL     1      49.505  21.018 -11.989  1.00  0.00    -0.176 N 
HETATM    7  C24 UNL     1      50.681  21.132 -11.352  1.00  0.00     0.679 A 
ATOM      8  H10 UNL     1      49.345  21.518 -12.864  1.00  0.00     0.186 HD
HETATM    9  N8  UNL     1      50.968  20.497 -10.187  1.00  0.00    -0.176 N 
ATOM     10  H8  UNL     1      51.877  20.614  -9.739  1.00  0.00     0.186 HD
BRANCH   4  11
HETATM   11  C7  UNL     1      47.796  18.734  -9.679  1.00  0.00    -0.059 C 
HETATM   12  C6  UNL     1      46.976  18.010  -9.177  1.00  0.00    -0.099 C 
BRANCH  12  13
HETATM   13  C5  UNL     1      45.998  17.119  -8.572  1.00  0.00     0.114 C 
BRANCH  13  14
HETATM   14  C4  UNL     1      46.608  15.879  -7.999  1.00  0.00     0.135 C 
BRANCH  14  15
HETATM   15  N1  UNL     1      47.860  15.528  -8.606  1.00  0.00    -0.352 N 
HETATM   16  C3  UNL     1      49.053  15.640  -7.844  1.00  0.00     0.317 C 
HETATM   17  O3  UNL     1      49.037  16.038  -6.661  1.00  0.00    -0.262 OA
ATOM     18  H1  UNL     1      47.893  15.202  -9.571  1.00  0.00     0.162 HD
BRANCH  16  19
HETATM   19  C2  UNL     1      50.362  15.291  -8.424  1.00  0.00     0.351 C 
HETATM   20  O2  UNL     1      51.100  16.164  -8.955  1.00  0.00    -0.254 OA
BRANCH  19  21
HETATM   21  O1  UNL     1      50.841  13.994  -8.410  1.00  0.00    -0.319 OA
HETATM   22  C1  UNL     1      51.212  13.338  -7.206  1.00  0.00     0.213 C 
ENDBRANCH  19  21
ENDBRANCH  16  19
ENDBRANCH  14  15
ENDBRANCH  13  14
ENDBRANCH  12  13
ENDBRANCH   4  11
BRANCH   5  23
HETATM   23  N11 UNL     1      47.387  20.093 -12.034  1.00  0.00    -0.384 N 
ATOM     24 2H11 UNL     1      46.622  19.584 -11.592  1.00  0.00     0.157 HD
ATOM     25 1H11 UNL     1      47.237  20.501 -12.957  1.00  0.00     0.157 HD
ENDBRANCH   5  23
BRANCH   7  26
HETATM   26  N9  UNL     1      51.637  21.880 -11.837  1.00  0.00    -0.234 N 
ATOM     27  H92 UNL     1      52.330  22.306 -11.223  1.00  0.00     0.174 HD
ATOM     28  H91 UNL     1      51.632  22.000 -12.849  1.00  0.00     0.174 HD
ENDBRANCH   7  26
ENDBRANCH   1   3
BRANCH   1  29
HETATM   29  C10 UNL     1      50.693  19.693  -7.241  1.00  0.00     0.197 C 
BRANCH  29  30
HETATM   30  C11 UNL     1      51.479  18.843  -6.302  1.00  0.00     0.101 A 
HETATM   31  N3  UNL     1      51.586  17.526  -6.208  1.00  0.00    -0.341 N 
HETATM   32  C12 UNL     1      52.428  17.180  -5.188  1.00  0.00     0.081 A 
ATOM     33  H3  UNL     1      51.105  16.861  -6.814  1.00  0.00     0.167 HD
HETATM   34  C13 UNL     1      52.866  15.990  -4.683  1.00  0.00     0.071 A 
HETATM   35  C23 UNL     1      52.843  18.384  -4.648  1.00  0.00     0.134 A 
HETATM   36  C14 UNL     1      53.762  15.983  -3.588  1.00  0.00     0.086 A 
HETATM   37  C22 UNL     1      54.145  17.205  -3.088  1.00  0.00     0.126 A 
HETATM   38  N6  UNL     1      53.694  18.362  -3.608  1.00  0.00    -0.348 N 
ATOM     39  H6  UNL     1      54.005  19.244  -3.202  1.00  0.00     0.167 HD
HETATM   40  N7  UNL     1      52.254  19.367  -5.339  1.00  0.00    -0.329 N 
ATOM     41  H7  UNL     1      52.376  20.365  -5.161  1.00  0.00     0.168 HD
BRANCH  36  42
HETATM   42  O4  UNL     1      54.177  14.762  -3.120  1.00  0.00    -0.350 OA
BRANCH  42  43
HETATM   43  C15 UNL     1      54.766  13.712  -3.788  1.00  0.00     0.175 C 
BRANCH  43  44
HETATM   44  C16 UNL     1      55.555  12.815  -2.891  1.00  0.00     0.027 C 
BRANCH  44  45
HETATM   45  C17 UNL     1      56.765  12.255  -3.612  1.00  0.00     0.006 C 
BRANCH  45  46
HETATM   46  C18 UNL     1      57.973  12.351  -2.748  1.00  0.00     0.069 C 
BRANCH  46  47
HETATM   47  C19 UNL     1      58.991  11.343  -3.268  1.00  0.00     0.286 C 
HETATM   48  C20 UNL     1      58.572   9.911  -3.188  1.00  0.00     0.097 C 
HETATM   49  C21 UNL     1      60.004   9.698  -2.697  1.00  0.00     0.239 C 
HETATM   50  N5  UNL     1      59.998  11.094  -2.258  1.00  0.00    -0.041 N 
ATOM     51  H52 UNL     1      60.859  11.639  -2.227  1.00  0.00     0.280 HD
ATOM     52  H51 UNL     1      59.835  11.338  -1.281  1.00  0.00     0.280 HD
BRANCH  47  53
HETATM   53  N4  UNL     1      59.592  11.668  -4.525  1.00  0.00    -0.044 N 
ATOM     54  H43 UNL     1      58.875  11.952  -5.193  1.00  0.00     0.277 HD
ATOM     55  H42 UNL     1      60.119  12.539  -4.445  1.00  0.00     0.277 HD
ATOM     56  H41 UNL     1      60.179  10.941  -4.932  1.00  0.00     0.277 HD
ENDBRANCH  47  53
ENDBRANCH  46  47
ENDBRANCH  45  46
ENDBRANCH  44  45
ENDBRANCH  43  44
ENDBRANCH  42  43
ENDBRANCH  36  42
ENDBRANCH  29  30
ENDBRANCH   1  29
TORSDOF 18
ENDMDL
