MODEL 1
REMARK VINA RESULT: -7.649033859      0.000      0.000
REMARK  17 active torsions:
REMARK  status: ('A' for Active; 'I' for Inactive)
REMARK       I    between atoms: C1_4  and  N3_6 
REMARK    1  A    between atoms: C5_10  and  C6_11 
REMARK    2  A    between atoms: C6_11  and  O1_12 
REMARK    3  A    between atoms: C6_11  and  N4_14 
REMARK    4  A    between atoms: N4_14  and  C7_17 
REMARK    5  A    between atoms: C7_17  and  C8_18 
REMARK    6  A    between atoms: C8_18  and  C9_19 
REMARK    7  A    between atoms: C9_19  and  C10_20 
REMARK    8  A    between atoms: C10_20  and  O2_21 
REMARK    9  A    between atoms: C10_20  and  N5_23 
REMARK   10  A    between atoms: N5_23  and  C11_24 
REMARK   11  A    between atoms: C11_24  and  C12_25 
REMARK   12  A    between atoms: C12_25  and  C13_26 
REMARK   13  A    between atoms: C13_26  and  C14_27 
REMARK       I    between atoms: C14_27  and  N6_29 
REMARK   14  A    between atoms: N6_29  and  C15_30 
REMARK   15  A    between atoms: C15_30  and  C16_31 
REMARK   16  A    between atoms: C16_31  and  C17_32 
REMARK   17  A    between atoms: C17_32  and  C18_33 
ROOT
HETATM    1  C10 UNL     1      51.062  19.740  -7.854  1.00  0.00     0.183 C 
ENDROOT
BRANCH   1   2
HETATM    2  C9  UNL     1      50.261  18.780  -7.082  1.00  0.00     0.101 C 
BRANCH   2   3
HETATM    3  C8  UNL     1      50.995  17.422  -7.254  1.00  0.00     0.036 C 
BRANCH   3   4
HETATM    4  C7  UNL     1      51.232  16.674  -6.029  1.00  0.00     0.236 C 
BRANCH   4   5
HETATM    5  N4  UNL     1      51.658  17.814  -5.043  1.00  0.00    -0.047 N 
ATOM      6  H42 UNL     1      51.144  17.747  -4.165  1.00  0.00     0.280 HD
ATOM      7  H41 UNL     1      51.319  18.720  -5.367  1.00  0.00     0.280 HD
BRANCH   5   8
HETATM    8  C6  UNL     1      53.048  17.850  -4.811  1.00  0.00     0.341 C 
BRANCH   8   9
HETATM    9  C5  UNL     1      53.733  17.253  -3.686  1.00  0.00     0.143 C 
HETATM   10  N3  UNL     1      53.107  17.314  -2.409  1.00  0.00    -0.347 N 
HETATM   11  C1  UNL     1      52.850  18.471  -1.635  1.00  0.00     0.184 C 
HETATM   12  C2  UNL     1      52.802  15.970  -1.915  1.00  0.00     0.126 C 
HETATM   13  N1  UNL     1      53.771  19.337  -1.443  1.00  0.00    -0.374 N 
HETATM   14  N2  UNL     1      51.530  18.700  -1.070  1.00  0.00    -0.064 NA
ATOM     15  H12 UNL     1      53.586  20.171  -0.886  1.00  0.00     0.158 HD
ATOM     16  H11 UNL     1      54.698  19.176  -1.840  1.00  0.00     0.158 HD
HETATM   17  C3  UNL     1      53.952  15.169  -2.568  1.00  0.00     0.022 C 
HETATM   18  C4  UNL     1      53.911  15.733  -3.958  1.00  0.00     0.031 C 
ENDBRANCH   8   9
BRANCH   8  19
HETATM   19  O1  UNL     1      53.777  18.480  -5.706  1.00  0.00    -0.368 OA
ATOM     20  H1  UNL     1      53.358  18.726  -6.523  1.00  0.00     0.212 HD
ENDBRANCH   8  19
ENDBRANCH   5   8
ENDBRANCH   4   5
ENDBRANCH   3   4
ENDBRANCH   2   3
ENDBRANCH   1   2
BRANCH   1  21
HETATM   21  O2  UNL     1      51.999  20.249  -6.960  1.00  0.00    -0.339 OA
ATOM     22  H2  UNL     1      52.824  19.841  -7.196  1.00  0.00     0.220 HD
ENDBRANCH   1  21
BRANCH   1  23
HETATM   23  N5  UNL     1      51.213  20.241  -9.026  1.00  0.00    -0.429 NA
BRANCH  23  24
HETATM   24  C11 UNL     1      51.379  20.794 -10.326  1.00  0.00     0.221 C 
BRANCH  24  25
HETATM   25  C12 UNL     1      50.396  21.935 -10.393  1.00  0.00     0.044 C 
BRANCH  25  26
HETATM   26  C13 UNL     1      50.584  23.028 -11.356  1.00  0.00     0.121 C 
BRANCH  26  27
HETATM   27  C14 UNL     1      51.327  22.346 -12.591  1.00  0.00     0.286 C 
HETATM   28  O3  UNL     1      52.537  22.753 -12.667  1.00  0.00    -0.258 OA
HETATM   29  N6  UNL     1      50.614  21.526 -13.311  1.00  0.00    -0.415 NA
BRANCH  29  30
HETATM   30  C15 UNL     1      49.858  20.634 -14.106  1.00  0.00     0.221 C 
BRANCH  30  31
HETATM   31  C16 UNL     1      49.499  19.345 -13.362  1.00  0.00     0.034 C 
BRANCH  31  32
HETATM   32  C17 UNL     1      48.455  19.714 -12.350  1.00  0.00     0.012 C 
BRANCH  32  33
HETATM   33  C18 UNL     1      48.191  18.680 -11.337  1.00  0.00    -0.036 C 
HETATM   34  C19 UNL     1      49.345  17.805 -10.938  1.00  0.00     0.014 C 
HETATM   35  C20 UNL     1      48.592  16.573 -10.437  1.00  0.00    -0.013 C 
HETATM   36  C21 UNL     1      47.831  16.931  -9.189  1.00  0.00     0.009 C 
HETATM   37  C25 UNL     1      47.640  16.360 -11.625  1.00  0.00     0.010 C 
HETATM   38  C22 UNL     1      46.976  18.161  -9.412  1.00  0.00    -0.013 C 
HETATM   39  C23 UNL     1      46.039  17.863 -10.572  1.00  0.00     0.010 C 
HETATM   40  C26 UNL     1      47.731  19.326 -10.009  1.00  0.00     0.014 C 
HETATM   41  C24 UNL     1      47.036  17.743 -11.697  1.00  0.00    -0.005 C 
ENDBRANCH  32  33
ENDBRANCH  31  32
ENDBRANCH  30  31
ENDBRANCH  29  30
ENDBRANCH  26  27
ENDBRANCH  25  26
ENDBRANCH  24  25
ENDBRANCH  23  24
ENDBRANCH   1  23
TORSDOF 17
ENDMDL
MODEL 2
REMARK VINA RESULT: -7.601553533      1.717      2.664
REMARK  17 active torsions:
REMARK  status: ('A' for Active; 'I' for Inactive)
REMARK       I    between atoms: C1_4  and  N3_6 
REMARK    1  A    between atoms: C5_10  and  C6_11 
REMARK    2  A    between atoms: C6_11  and  O1_12 
REMARK    3  A    between atoms: C6_11  and  N4_14 
REMARK    4  A    between atoms: N4_14  and  C7_17 
REMARK    5  A    between atoms: C7_17  and  C8_18 
REMARK    6  A    between atoms: C8_18  and  C9_19 
REMARK    7  A    between atoms: C9_19  and  C10_20 
REMARK    8  A    between atoms: C10_20  and  O2_21 
REMARK    9  A    between atoms: C10_20  and  N5_23 
REMARK   10  A    between atoms: N5_23  and  C11_24 
REMARK   11  A    between atoms: C11_24  and  C12_25 
REMARK   12  A    between atoms: C12_25  and  C13_26 
REMARK   13  A    between atoms: C13_26  and  C14_27 
REMARK       I    between atoms: C14_27  and  N6_29 
REMARK   14  A    between atoms: N6_29  and  C15_30 
REMARK   15  A    between atoms: C15_30  and  C16_31 
REMARK   16  A    between atoms: C16_31  and  C17_32 
REMARK   17  A    between atoms: C17_32  and  C18_33 
ROOT
HETATM    1  C10 UNL     1      51.191  19.969  -8.246  1.00  0.00     0.183 C 
ENDROOT
BRANCH   1   2
HETATM    2  C9  UNL     1      50.496  19.414  -7.076  1.00  0.00     0.101 C 
BRANCH   2   3
HETATM    3  C8  UNL     1      50.885  17.910  -7.060  1.00  0.00     0.036 C 
BRANCH   3   4
HETATM    4  C7  UNL     1      51.138  17.338  -5.747  1.00  0.00     0.236 C 
BRANCH   4   5
HETATM    5  N4  UNL     1      51.985  18.468  -5.071  1.00  0.00    -0.047 N 
ATOM      6  H42 UNL     1      51.619  18.694  -4.146  1.00  0.00     0.280 HD
ATOM      7  H41 UNL     1      51.832  19.364  -5.534  1.00  0.00     0.280 HD
BRANCH   5   8
HETATM    8  C6  UNL     1      53.360  18.162  -5.007  1.00  0.00     0.341 C 
BRANCH   8   9
HETATM    9  C5  UNL     1      54.018  17.448  -3.936  1.00  0.00     0.143 C 
HETATM   10  N3  UNL     1      53.690  17.796  -2.595  1.00  0.00    -0.347 N 
HETATM   11  C1  UNL     1      53.957  19.021  -1.938  1.00  0.00     0.184 C 
HETATM   12  C2  UNL     1      53.076  16.663  -1.900  1.00  0.00     0.126 C 
HETATM   13  N1  UNL     1      55.122  19.545  -1.997  1.00  0.00    -0.374 N 
HETATM   14  N2  UNL     1      52.903  19.709  -1.210  1.00  0.00    -0.064 NA
ATOM     15  H12 UNL     1      55.314  20.428  -1.524  1.00  0.00     0.158 HD
ATOM     16  H11 UNL     1      55.861  19.061  -2.508  1.00  0.00     0.158 HD
HETATM   17  C3  UNL     1      53.775  15.487  -2.619  1.00  0.00     0.022 C 
HETATM   18  C4  UNL     1      53.658  15.940  -4.044  1.00  0.00     0.031 C 
ENDBRANCH   8   9
BRANCH   8  19
HETATM   19  O1  UNL     1      54.098  18.562  -6.019  1.00  0.00    -0.368 OA
ATOM     20  H1  UNL     1      53.774  18.393  -6.896  1.00  0.00     0.212 HD
ENDBRANCH   8  19
ENDBRANCH   5   8
ENDBRANCH   4   5
ENDBRANCH   3   4
ENDBRANCH   2   3
ENDBRANCH   1   2
BRANCH   1  21
HETATM   21  O2  UNL     1      52.509  19.539  -8.137  1.00  0.00    -0.339 OA
ATOM     22  H2  UNL     1      52.762  19.717  -7.239  1.00  0.00     0.220 HD
ENDBRANCH   1  21
BRANCH   1  23
HETATM   23  N5  UNL     1      51.012  20.667  -9.308  1.00  0.00    -0.429 NA
BRANCH  23  24
HETATM   24  C11 UNL     1      50.815  21.441 -10.485  1.00  0.00     0.221 C 
BRANCH  24  25
HETATM   25  C12 UNL     1      50.563  20.432 -11.578  1.00  0.00     0.044 C 
BRANCH  25  26
HETATM   26  C13 UNL     1      49.933  20.840 -12.840  1.00  0.00     0.121 C 
BRANCH  26  27
HETATM   27  C14 UNL     1      48.419  21.149 -12.447  1.00  0.00     0.286 C 
HETATM   28  O3  UNL     1      48.076  22.310 -12.858  1.00  0.00    -0.258 OA
HETATM   29  N6  UNL     1      47.795  20.217 -11.783  1.00  0.00    -0.415 NA
BRANCH  29  30
HETATM   30  C15 UNL     1      47.100  19.219 -11.060  1.00  0.00     0.221 C 
BRANCH  30  31
HETATM   31  C16 UNL     1      47.779  18.877  -9.731  1.00  0.00     0.034 C 
BRANCH  31  32
HETATM   32  C17 UNL     1      48.276  17.467  -9.858  1.00  0.00     0.012 C 
BRANCH  32  33
HETATM   33  C18 UNL     1      47.520  16.478  -9.076  1.00  0.00    -0.036 C 
HETATM   34  C19 UNL     1      46.524  15.636  -9.822  1.00  0.00     0.014 C 
HETATM   35  C20 UNL     1      45.578  15.259  -8.681  1.00  0.00    -0.013 C 
HETATM   36  C21 UNL     1      46.303  14.365  -7.711  1.00  0.00     0.009 C 
HETATM   37  C25 UNL     1      45.341  16.654  -8.080  1.00  0.00     0.010 C 
HETATM   38  C22 UNL     1      47.614  14.988  -7.280  1.00  0.00    -0.013 C 
HETATM   39  C23 UNL     1      47.299  16.342  -6.664  1.00  0.00     0.010 C 
HETATM   40  C26 UNL     1      48.478  15.447  -8.433  1.00  0.00     0.014 C 
HETATM   41  C24 UNL     1      46.779  17.073  -7.877  1.00  0.00    -0.005 C 
ENDBRANCH  32  33
ENDBRANCH  31  32
ENDBRANCH  30  31
ENDBRANCH  29  30
ENDBRANCH  26  27
ENDBRANCH  25  26
ENDBRANCH  24  25
ENDBRANCH  23  24
ENDBRANCH   1  23
TORSDOF 17
ENDMDL
MODEL 3
REMARK VINA RESULT: -7.546206164      1.056      1.594
REMARK  17 active torsions:
REMARK  status: ('A' for Active; 'I' for Inactive)
REMARK       I    between atoms: C1_4  and  N3_6 
REMARK    1  A    between atoms: C5_10  and  C6_11 
REMARK    2  A    between atoms: C6_11  and  O1_12 
REMARK    3  A    between atoms: C6_11  and  N4_14 
REMARK    4  A    between atoms: N4_14  and  C7_17 
REMARK    5  A    between atoms: C7_17  and  C8_18 
REMARK    6  A    between atoms: C8_18  and  C9_19 
REMARK    7  A    between atoms: C9_19  and  C10_20 
REMARK    8  A    between atoms: C10_20  and  O2_21 
REMARK    9  A    between atoms: C10_20  and  N5_23 
REMARK   10  A    between atoms: N5_23  and  C11_24 
REMARK   11  A    between atoms: C11_24  and  C12_25 
REMARK   12  A    between atoms: C12_25  and  C13_26 
REMARK   13  A    between atoms: C13_26  and  C14_27 
REMARK       I    between atoms: C14_27  and  N6_29 
REMARK   14  A    between atoms: N6_29  and  C15_30 
REMARK   15  A    between atoms: C15_30  and  C16_31 
REMARK   16  A    between atoms: C16_31  and  C17_32 
REMARK   17  A    between atoms: C17_32  and  C18_33 
ROOT
HETATM    1  C10 UNL     1      51.089  19.595  -8.484  1.00  0.00     0.183 C 
ENDROOT
BRANCH   1   2
HETATM    2  C9  UNL     1      50.673  18.206  -8.242  1.00  0.00     0.101 C 
BRANCH   2   3
HETATM    3  C8  UNL     1      50.231  18.178  -6.753  1.00  0.00     0.036 C 
BRANCH   3   4
HETATM    4  C7  UNL     1      51.037  17.348  -5.872  1.00  0.00     0.236 C 
BRANCH   4   5
HETATM    5  N4  UNL     1      51.860  18.427  -5.090  1.00  0.00    -0.047 N 
ATOM      6  H42 UNL     1      51.492  18.553  -4.147  1.00  0.00     0.280 HD
ATOM      7  H41 UNL     1      51.684  19.360  -5.464  1.00  0.00     0.280 HD
BRANCH   5   8
HETATM    8  C6  UNL     1      53.242  18.149  -5.058  1.00  0.00     0.341 C 
BRANCH   8   9
HETATM    9  C5  UNL     1      53.939  17.451  -4.002  1.00  0.00     0.143 C 
HETATM   10  N3  UNL     1      53.627  17.785  -2.654  1.00  0.00    -0.347 N 
HETATM   11  C1  UNL     1      53.871  19.015  -1.998  1.00  0.00     0.184 C 
HETATM   12  C2  UNL     1      53.057  16.633  -1.952  1.00  0.00     0.126 C 
HETATM   13  N1  UNL     1      55.020  19.571  -2.076  1.00  0.00    -0.374 N 
HETATM   14  N2  UNL     1      52.813  19.672  -1.248  1.00  0.00    -0.064 NA
ATOM     15  H12 UNL     1      55.196  20.458  -1.603  1.00  0.00     0.158 HD
ATOM     16  H11 UNL     1      55.763  19.110  -2.602  1.00  0.00     0.158 HD
HETATM   17  C3  UNL     1      53.776  15.480  -2.688  1.00  0.00     0.022 C 
HETATM   18  C4  UNL     1      53.619  15.934  -4.109  1.00  0.00     0.031 C 
ENDBRANCH   8   9
BRANCH   8  19
HETATM   19  O1  UNL     1      53.948  18.562  -6.088  1.00  0.00    -0.368 OA
ATOM     20  H1  UNL     1      54.336  19.428  -6.039  1.00  0.00     0.212 HD
ENDBRANCH   8  19
ENDBRANCH   5   8
ENDBRANCH   4   5
ENDBRANCH   3   4
ENDBRANCH   2   3
ENDBRANCH   1   2
BRANCH   1  21
HETATM   21  O2  UNL     1      52.439  19.644  -8.153  1.00  0.00    -0.339 OA
ATOM     22  H2  UNL     1      52.762  20.459  -8.521  1.00  0.00     0.220 HD
ENDBRANCH   1  21
BRANCH   1  23
HETATM   23  N5  UNL     1      50.667  20.733  -8.901  1.00  0.00    -0.429 NA
BRANCH  23  24
HETATM   24  C11 UNL     1      50.198  21.994  -9.362  1.00  0.00     0.221 C 
BRANCH  24  25
HETATM   25  C12 UNL     1      50.340  21.938 -10.863  1.00  0.00     0.044 C 
BRANCH  25  26
HETATM   26  C13 UNL     1      51.631  21.607 -11.479  1.00  0.00     0.121 C 
BRANCH  26  27
HETATM   27  C14 UNL     1      51.713  22.552 -12.761  1.00  0.00     0.286 C 
HETATM   28  O3  UNL     1      52.624  23.436 -12.610  1.00  0.00    -0.258 OA
HETATM   29  N6  UNL     1      50.866  22.298 -13.719  1.00  0.00    -0.415 NA
BRANCH  29  30
HETATM   30  C15 UNL     1      49.955  22.041 -14.769  1.00  0.00     0.221 C 
BRANCH  30  31
HETATM   31  C16 UNL     1      48.843  21.073 -14.356  1.00  0.00     0.034 C 
BRANCH  31  32
HETATM   32  C17 UNL     1      49.521  19.812 -13.907  1.00  0.00     0.012 C 
BRANCH  32  33
HETATM   33  C18 UNL     1      48.692  18.937 -13.064  1.00  0.00    -0.036 C 
HETATM   34  C19 UNL     1      48.277  17.618 -13.651  1.00  0.00     0.014 C 
HETATM   35  C20 UNL     1      47.018  17.339 -12.829  1.00  0.00    -0.013 C 
HETATM   36  C21 UNL     1      47.406  17.104 -11.394  1.00  0.00     0.009 C 
HETATM   37  C25 UNL     1      46.304  18.690 -12.996  1.00  0.00     0.010 C 
HETATM   38  C22 UNL     1      48.274  18.232 -10.878  1.00  0.00    -0.013 C 
HETATM   39  C23 UNL     1      47.491  19.525 -11.040  1.00  0.00     0.010 C 
HETATM   40  C26 UNL     1      49.450  18.552 -11.771  1.00  0.00     0.014 C 
HETATM   41  C24 UNL     1      47.418  19.606 -12.544  1.00  0.00    -0.005 C 
ENDBRANCH  32  33
ENDBRANCH  31  32
ENDBRANCH  30  31
ENDBRANCH  29  30
ENDBRANCH  26  27
ENDBRANCH  25  26
ENDBRANCH  24  25
ENDBRANCH  23  24
ENDBRANCH   1  23
TORSDOF 17
ENDMDL
MODEL 4
REMARK VINA RESULT: -7.452281192      2.533      4.996
REMARK  17 active torsions:
REMARK  status: ('A' for Active; 'I' for Inactive)
REMARK       I    between atoms: C1_4  and  N3_6 
REMARK    1  A    between atoms: C5_10  and  C6_11 
REMARK    2  A    between atoms: C6_11  and  O1_12 
REMARK    3  A    between atoms: C6_11  and  N4_14 
REMARK    4  A    between atoms: N4_14  and  C7_17 
REMARK    5  A    between atoms: C7_17  and  C8_18 
REMARK    6  A    between atoms: C8_18  and  C9_19 
REMARK    7  A    between atoms: C9_19  and  C10_20 
REMARK    8  A    between atoms: C10_20  and  O2_21 
REMARK    9  A    between atoms: C10_20  and  N5_23 
REMARK   10  A    between atoms: N5_23  and  C11_24 
REMARK   11  A    between atoms: C11_24  and  C12_25 
REMARK   12  A    between atoms: C12_25  and  C13_26 
REMARK   13  A    between atoms: C13_26  and  C14_27 
REMARK       I    between atoms: C14_27  and  N6_29 
REMARK   14  A    between atoms: N6_29  and  C15_30 
REMARK   15  A    between atoms: C15_30  and  C16_31 
REMARK   16  A    between atoms: C16_31  and  C17_32 
REMARK   17  A    between atoms: C17_32  and  C18_33 
ROOT
HETATM    1  C10 UNL     1      51.389  14.648  -6.212  1.00  0.00     0.183 C 
ENDROOT
BRANCH   1   2
HETATM    2  C9  UNL     1      52.469  13.946  -5.504  1.00  0.00     0.101 C 
BRANCH   2   3
HETATM    3  C8  UNL     1      52.561  14.652  -4.123  1.00  0.00     0.036 C 
BRANCH   3   4
HETATM    4  C7  UNL     1      53.678  15.570  -3.959  1.00  0.00     0.236 C 
BRANCH   4   5
HETATM    5  N4  UNL     1      52.975  16.956  -4.153  1.00  0.00    -0.047 N 
ATOM      6  H42 UNL     1      52.101  16.998  -3.629  1.00  0.00     0.280 HD
ATOM      7  H41 UNL     1      52.607  17.048  -5.100  1.00  0.00     0.280 HD
BRANCH   5   8
HETATM    8  C6  UNL     1      53.809  18.046  -3.829  1.00  0.00     0.341 C 
BRANCH   8   9
HETATM    9  C5  UNL     1      53.689  18.882  -2.655  1.00  0.00     0.143 C 
HETATM   10  N3  UNL     1      53.337  18.263  -1.422  1.00  0.00    -0.347 N 
HETATM   11  C1  UNL     1      52.111  17.637  -1.097  1.00  0.00     0.184 C 
HETATM   12  C2  UNL     1      54.413  18.412  -0.440  1.00  0.00     0.126 C 
HETATM   13  N1  UNL     1      51.001  18.222  -1.346  1.00  0.00    -0.374 N 
HETATM   14  N2  UNL     1      52.097  16.311  -0.500  1.00  0.00    -0.064 NA
ATOM     15  H12 UNL     1      50.117  17.770  -1.112  1.00  0.00     0.158 HD
ATOM     16  H11 UNL     1      51.011  19.152  -1.765  1.00  0.00     0.158 HD
HETATM   17  C3  UNL     1      55.010  19.765  -0.890  1.00  0.00     0.022 C 
HETATM   18  C4  UNL     1      55.064  19.550  -2.374  1.00  0.00     0.031 C 
ENDBRANCH   8   9
BRANCH   8  19
HETATM   19  O1  UNL     1      54.781  18.313  -4.673  1.00  0.00    -0.368 OA
ATOM     20  H1  UNL     1      55.566  17.781  -4.625  1.00  0.00     0.212 HD
ENDBRANCH   8  19
ENDBRANCH   5   8
ENDBRANCH   4   5
ENDBRANCH   3   4
ENDBRANCH   2   3
ENDBRANCH   1   2
BRANCH   1  21
HETATM   21  O2  UNL     1      51.000  13.795  -7.240  1.00  0.00    -0.339 OA
ATOM     22  H2  UNL     1      50.051  13.835  -7.259  1.00  0.00     0.220 HD
ENDBRANCH   1  21
BRANCH   1  23
HETATM   23  N5  UNL     1      50.687  15.722  -6.204  1.00  0.00    -0.429 NA
BRANCH  23  24
HETATM   24  C11 UNL     1      49.907  16.912  -6.194  1.00  0.00     0.221 C 
BRANCH  24  25
HETATM   25  C12 UNL     1      50.257  17.618  -7.480  1.00  0.00     0.044 C 
BRANCH  25  26
HETATM   26  C13 UNL     1      51.647  17.990  -7.774  1.00  0.00     0.121 C 
BRANCH  26  27
HETATM   27  C14 UNL     1      51.717  19.551  -7.456  1.00  0.00     0.286 C 
HETATM   28  O3  UNL     1      52.483  19.772  -6.457  1.00  0.00    -0.258 OA
HETATM   29  N6  UNL     1      51.002  20.327  -8.222  1.00  0.00    -0.415 NA
BRANCH  29  30
HETATM   30  C15 UNL     1      50.233  21.186  -9.040  1.00  0.00     0.221 C 
BRANCH  30  31
HETATM   31  C16 UNL     1      49.538  20.441 -10.183  1.00  0.00     0.034 C 
BRANCH  31  32
HETATM   32  C17 UNL     1      50.538  20.342 -11.296  1.00  0.00     0.012 C 
BRANCH  32  33
HETATM   33  C18 UNL     1      50.379  21.350 -12.355  1.00  0.00    -0.036 C 
HETATM   34  C19 UNL     1      50.209  20.844 -13.760  1.00  0.00     0.014 C 
HETATM   35  C20 UNL     1      50.702  22.058 -14.547  1.00  0.00    -0.013 C 
HETATM   36  C21 UNL     1      49.741  23.199 -14.350  1.00  0.00     0.009 C 
HETATM   37  C25 UNL     1      52.027  22.315 -13.812  1.00  0.00     0.010 C 
HETATM   38  C22 UNL     1      49.492  23.446 -12.877  1.00  0.00    -0.013 C 
HETATM   39  C23 UNL     1      50.837  23.728 -12.225  1.00  0.00     0.010 C 
HETATM   40  C26 UNL     1      49.112  22.203 -12.107  1.00  0.00     0.014 C 
HETATM   41  C24 UNL     1      51.503  22.386 -12.396  1.00  0.00    -0.005 C 
ENDBRANCH  32  33
ENDBRANCH  31  32
ENDBRANCH  30  31
ENDBRANCH  29  30
ENDBRANCH  26  27
ENDBRANCH  25  26
ENDBRANCH  24  25
ENDBRANCH  23  24
ENDBRANCH   1  23
TORSDOF 17
ENDMDL
MODEL 5
REMARK VINA RESULT: -7.376768633      1.394      2.118
REMARK  17 active torsions:
REMARK  status: ('A' for Active; 'I' for Inactive)
REMARK       I    between atoms: C1_4  and  N3_6 
REMARK    1  A    between atoms: C5_10  and  C6_11 
REMARK    2  A    between atoms: C6_11  and  O1_12 
REMARK    3  A    between atoms: C6_11  and  N4_14 
REMARK    4  A    between atoms: N4_14  and  C7_17 
REMARK    5  A    between atoms: C7_17  and  C8_18 
REMARK    6  A    between atoms: C8_18  and  C9_19 
REMARK    7  A    between atoms: C9_19  and  C10_20 
REMARK    8  A    between atoms: C10_20  and  O2_21 
REMARK    9  A    between atoms: C10_20  and  N5_23 
REMARK   10  A    between atoms: N5_23  and  C11_24 
REMARK   11  A    between atoms: C11_24  and  C12_25 
REMARK   12  A    between atoms: C12_25  and  C13_26 
REMARK   13  A    between atoms: C13_26  and  C14_27 
REMARK       I    between atoms: C14_27  and  N6_29 
REMARK   14  A    between atoms: N6_29  and  C15_30 
REMARK   15  A    between atoms: C15_30  and  C16_31 
REMARK   16  A    between atoms: C16_31  and  C17_32 
REMARK   17  A    between atoms: C17_32  and  C18_33 
ROOT
HETATM    1  C10 UNL     1      51.310  19.681  -8.310  1.00  0.00     0.183 C 
ENDROOT
BRANCH   1   2
HETATM    2  C9  UNL     1      50.447  19.139  -7.250  1.00  0.00     0.101 C 
BRANCH   2   3
HETATM    3  C8  UNL     1      50.833  17.637  -7.155  1.00  0.00     0.036 C 
BRANCH   3   4
HETATM    4  C7  UNL     1      51.193  17.162  -5.828  1.00  0.00     0.236 C 
BRANCH   4   5
HETATM    5  N4  UNL     1      51.592  18.498  -5.114  1.00  0.00    -0.047 N 
ATOM      6  H42 UNL     1      50.868  18.791  -4.458  1.00  0.00     0.280 HD
ATOM      7  H41 UNL     1      51.556  19.283  -5.765  1.00  0.00     0.280 HD
BRANCH   5   8
HETATM    8  C6  UNL     1      52.849  18.428  -4.479  1.00  0.00     0.341 C 
BRANCH   8   9
HETATM    9  C5  UNL     1      53.070  18.276  -3.058  1.00  0.00     0.143 C 
HETATM   10  N3  UNL     1      53.901  17.207  -2.618  1.00  0.00    -0.347 N 
HETATM   11  C1  UNL     1      53.639  15.820  -2.724  1.00  0.00     0.184 C 
HETATM   12  C2  UNL     1      55.093  17.719  -1.940  1.00  0.00     0.126 C 
HETATM   13  N1  UNL     1      52.506  15.347  -2.366  1.00  0.00    -0.374 N 
HETATM   14  N2  UNL     1      54.647  14.920  -3.263  1.00  0.00    -0.064 NA
ATOM     15  H12 UNL     1      52.318  14.347  -2.443  1.00  0.00     0.158 HD
ATOM     16  H11 UNL     1      51.799  15.978  -1.988  1.00  0.00     0.158 HD
HETATM   17  C3  UNL     1      54.525  19.025  -1.338  1.00  0.00     0.022 C 
HETATM   18  C4  UNL     1      53.768  19.555  -2.520  1.00  0.00     0.031 C 
ENDBRANCH   8   9
BRANCH   8  19
HETATM   19  O1  UNL     1      53.906  18.505  -5.258  1.00  0.00    -0.368 OA
ATOM     20  H1  UNL     1      53.997  17.854  -5.944  1.00  0.00     0.212 HD
ENDBRANCH   8  19
ENDBRANCH   5   8
ENDBRANCH   4   5
ENDBRANCH   3   4
ENDBRANCH   2   3
ENDBRANCH   1   2
BRANCH   1  21
HETATM   21  O2  UNL     1      52.613  19.409  -7.908  1.00  0.00    -0.339 OA
ATOM     22  H2  UNL     1      52.615  18.494  -7.653  1.00  0.00     0.220 HD
ENDBRANCH   1  21
BRANCH   1  23
HETATM   23  N5  UNL     1      51.285  20.276  -9.447  1.00  0.00    -0.429 NA
BRANCH  23  24
HETATM   24  C11 UNL     1      51.257  20.934 -10.708  1.00  0.00     0.221 C 
BRANCH  24  25
HETATM   25  C12 UNL     1      50.277  22.067 -10.535  1.00  0.00     0.044 C 
BRANCH  25  26
HETATM   26  C13 UNL     1      50.384  23.279 -11.358  1.00  0.00     0.121 C 
BRANCH  26  27
HETATM   27  C14 UNL     1      49.862  22.830 -12.796  1.00  0.00     0.286 C 
HETATM   28  O3  UNL     1      50.829  22.784 -13.631  1.00  0.00    -0.258 OA
HETATM   29  N6  UNL     1      48.583  22.602 -12.900  1.00  0.00    -0.415 NA
BRANCH  29  30
HETATM   30  C15 UNL     1      47.198  22.351 -13.033  1.00  0.00     0.221 C 
BRANCH  30  31
HETATM   31  C16 UNL     1      46.888  20.869 -13.258  1.00  0.00     0.034 C 
BRANCH  31  32
HETATM   32  C17 UNL     1      46.581  20.289 -11.909  1.00  0.00     0.012 C 
BRANCH  32  33
HETATM   33  C18 UNL     1      47.444  19.165 -11.514  1.00  0.00    -0.036 C 
HETATM   34  C19 UNL     1      48.759  19.030 -12.229  1.00  0.00     0.014 C 
HETATM   35  C20 UNL     1      49.020  17.536 -12.038  1.00  0.00    -0.013 C 
HETATM   36  C21 UNL     1      49.259  17.258 -10.578  1.00  0.00     0.009 C 
HETATM   37  C25 UNL     1      47.661  16.983 -12.493  1.00  0.00     0.010 C 
HETATM   38  C22 UNL     1      48.142  17.829  -9.731  1.00  0.00    -0.013 C 
HETATM   39  C23 UNL     1      46.839  17.210 -10.212  1.00  0.00     0.010 C 
HETATM   40  C26 UNL     1      47.837  19.280 -10.022  1.00  0.00     0.014 C 
HETATM   41  C24 UNL     1      46.759  17.800 -11.598  1.00  0.00    -0.005 C 
ENDBRANCH  32  33
ENDBRANCH  31  32
ENDBRANCH  30  31
ENDBRANCH  29  30
ENDBRANCH  26  27
ENDBRANCH  25  26
ENDBRANCH  24  25
ENDBRANCH  23  24
ENDBRANCH   1  23
TORSDOF 17
ENDMDL
