MODEL 1
REMARK VINA RESULT: -8.249972893      0.000      0.000
REMARK  15 active torsions:
REMARK  status: ('A' for Active; 'I' for Inactive)
REMARK    1  A    between atoms: C1_2  and  C2_4 
REMARK    2  A    between atoms: C2_4  and  C3_5 
REMARK    3  A    between atoms: C3_5  and  C4_6 
REMARK    4  A    between atoms: C4_6  and  C5_7 
REMARK    5  A    between atoms: C5_7  and  C6_8 
REMARK    6  A    between atoms: C6_8  and  N2_9 
REMARK    7  A    between atoms: N2_9  and  C7_11 
REMARK    8  A    between atoms: C7_11  and  N3_13 
REMARK    9  A    between atoms: C11_17  and  C12_18 
REMARK   10  A    between atoms: C12_18  and  N4_19 
REMARK       I    between atoms: N4_19  and  C13_21 
REMARK       I    between atoms: N6_23  and  C14_25 
REMARK       I    between atoms: C14_25  and  N7_27 
REMARK   11  A    between atoms: N7_27  and  C15_29 
REMARK   12  A    between atoms: C15_29  and  C16_30 
REMARK   13  A    between atoms: C16_30  and  C17_31 
REMARK   14  A    between atoms: C17_31  and  C18_32 
REMARK   15  A    between atoms: C18_32  and  C19_33 
ROOT
HETATM    1  N4  UNL     1      48.846  18.008  -8.777  1.00  0.00    -0.362 N 
ATOM      2  H4  UNL     1      48.241  18.801  -8.564  1.00  0.00     0.162 HD
HETATM    3  C13 UNL     1      50.120  17.916  -8.176  1.00  0.00     0.192 C 
HETATM    4  N5  UNL     1      51.146  17.065  -8.694  1.00  0.00    -0.063 NA
HETATM    5  N6  UNL     1      50.401  18.607  -7.128  1.00  0.00    -0.283 N 
ATOM      6  H6  UNL     1      49.696  19.226  -6.727  1.00  0.00     0.173 HD
HETATM    7  C14 UNL     1      51.680  18.517  -6.523  1.00  0.00     0.322 C 
HETATM    8  O2  UNL     1      52.665  18.582  -7.311  1.00  0.00    -0.247 OA
HETATM    9  N7  UNL     1      51.780  18.362  -5.125  1.00  0.00    -0.343 N 
ATOM     10  H7  UNL     1      50.928  18.314  -4.567  1.00  0.00     0.164 HD
ENDROOT
BRANCH   1  11
HETATM   11  C12 UNL     1      48.379  16.955  -9.721  1.00  0.00     0.147 C 
BRANCH  11  12
HETATM   12  C11 UNL     1      46.924  16.868  -9.527  1.00  0.00     0.104 C 
HETATM   13  N3  UNL     1      46.055  17.910  -9.989  1.00  0.00    -0.352 N 
HETATM   14  C8  UNL     1      44.744  17.464  -9.482  1.00  0.00     0.126 C 
HETATM   15  C9  UNL     1      45.066  16.790  -8.138  1.00  0.00     0.022 C 
HETATM   16  C10 UNL     1      46.571  16.897  -8.014  1.00  0.00     0.028 C 
BRANCH  13  17
HETATM   17  C7  UNL     1      46.303  19.056 -10.737  1.00  0.00     0.173 C 
HETATM   18  S1  UNL     1      44.937  20.022 -11.001  1.00  0.00    -0.041 SA
BRANCH  17  19
HETATM   19  N2  UNL     1      47.453  19.589 -11.323  1.00  0.00    -0.347 N 
ATOM     20  H2  UNL     1      47.934  20.243 -10.706  1.00  0.00     0.167 HD
BRANCH  19  21
HETATM   21  C6  UNL     1      48.111  19.441 -12.559  1.00  0.00     0.063 C 
BRANCH  21  22
HETATM   22  C5  UNL     1      49.587  19.605 -12.594  1.00  0.00     0.044 C 
BRANCH  22  23
HETATM   23  C4  UNL     1      50.007  20.995 -13.055  1.00  0.00     0.006 C 
BRANCH  23  24
HETATM   24  C3  UNL     1      51.004  21.623 -12.151  1.00  0.00     0.009 C 
BRANCH  24  25
HETATM   25  C2  UNL     1      50.349  22.070 -10.879  1.00  0.00     0.099 C 
BRANCH  25  26
HETATM   26  C1  UNL     1      50.662  21.248  -9.697  1.00  0.00     0.231 C 
HETATM   27  N1  UNL     1      49.860  21.323  -8.499  1.00  0.00    -0.062 NA
HETATM   28  O1  UNL     1      51.621  20.438  -9.621  1.00  0.00    -0.277 OA
ENDBRANCH  25  26
ENDBRANCH  24  25
ENDBRANCH  23  24
ENDBRANCH  22  23
ENDBRANCH  21  22
ENDBRANCH  19  21
ENDBRANCH  17  19
ENDBRANCH  13  17
ENDBRANCH  11  12
ENDBRANCH   1  11
BRANCH   9  29
HETATM   29  C15 UNL     1      53.061  18.271  -4.464  1.00  0.00     0.124 C 
BRANCH  29  30
HETATM   30  C16 UNL     1      53.441  16.867  -4.067  1.00  0.00     0.020 C 
BRANCH  30  31
HETATM   31  C17 UNL     1      53.407  16.722  -2.562  1.00  0.00     0.002 C 
BRANCH  31  32
HETATM   32  C18 UNL     1      54.439  17.552  -1.878  1.00  0.00     0.005 C 
BRANCH  32  33
HETATM   33  C19 UNL     1      53.962  18.324  -0.691  1.00  0.00    -0.014 C 
HETATM   34  C20 UNL     1      52.987  19.416  -1.059  1.00  0.00     0.004 C 
HETATM   35  C21 UNL     1      53.830  20.588  -1.515  1.00  0.00     0.000 C 
HETATM   36  C22 UNL     1      55.254  20.271  -1.135  1.00  0.00     0.000 C 
HETATM   37  C23 UNL     1      55.161  19.116  -0.162  1.00  0.00     0.004 C 
ENDBRANCH  32  33
ENDBRANCH  31  32
ENDBRANCH  30  31
ENDBRANCH  29  30
ENDBRANCH   9  29
TORSDOF 15
ENDMDL
MODEL 2
REMARK VINA RESULT: -7.777115829      1.903      4.405
REMARK  15 active torsions:
REMARK  status: ('A' for Active; 'I' for Inactive)
REMARK    1  A    between atoms: C1_2  and  C2_4 
REMARK    2  A    between atoms: C2_4  and  C3_5 
REMARK    3  A    between atoms: C3_5  and  C4_6 
REMARK    4  A    between atoms: C4_6  and  C5_7 
REMARK    5  A    between atoms: C5_7  and  C6_8 
REMARK    6  A    between atoms: C6_8  and  N2_9 
REMARK    7  A    between atoms: N2_9  and  C7_11 
REMARK    8  A    between atoms: C7_11  and  N3_13 
REMARK    9  A    between atoms: C11_17  and  C12_18 
REMARK   10  A    between atoms: C12_18  and  N4_19 
REMARK       I    between atoms: N4_19  and  C13_21 
REMARK       I    between atoms: N6_23  and  C14_25 
REMARK       I    between atoms: C14_25  and  N7_27 
REMARK   11  A    between atoms: N7_27  and  C15_29 
REMARK   12  A    between atoms: C15_29  and  C16_30 
REMARK   13  A    between atoms: C16_30  and  C17_31 
REMARK   14  A    between atoms: C17_31  and  C18_32 
REMARK   15  A    between atoms: C18_32  and  C19_33 
ROOT
HETATM    1  N4  UNL     1      50.202  20.869  -8.612  1.00  0.00    -0.362 N 
ATOM      2  H4  UNL     1      50.226  21.808  -8.213  1.00  0.00     0.162 HD
HETATM    3  C13 UNL     1      50.944  19.831  -8.007  1.00  0.00     0.192 C 
HETATM    4  N5  UNL     1      51.258  18.618  -8.698  1.00  0.00    -0.063 NA
HETATM    5  N6  UNL     1      51.369  19.948  -6.798  1.00  0.00    -0.283 N 
ATOM      6  H6  UNL     1      51.166  20.798  -6.272  1.00  0.00     0.173 HD
HETATM    7  C14 UNL     1      52.115  18.907  -6.190  1.00  0.00     0.322 C 
HETATM    8  O2  UNL     1      53.049  18.421  -6.887  1.00  0.00    -0.247 OA
HETATM    9  N7  UNL     1      51.784  18.484  -4.886  1.00  0.00    -0.343 N 
ATOM     10  H7  UNL     1      51.008  18.932  -4.398  1.00  0.00     0.164 HD
ENDROOT
BRANCH   1  11
HETATM   11  C12 UNL     1      49.386  20.603  -9.828  1.00  0.00     0.147 C 
BRANCH  11  12
HETATM   12  C11 UNL     1      49.731  21.674 -10.777  1.00  0.00     0.104 C 
HETATM   13  N3  UNL     1      49.053  21.790 -12.034  1.00  0.00    -0.352 N 
HETATM   14  C8  UNL     1      49.791  22.893 -12.679  1.00  0.00     0.126 C 
HETATM   15  C9  UNL     1      51.241  22.709 -12.202  1.00  0.00     0.022 C 
HETATM   16  C10 UNL     1      51.188  21.502 -11.289  1.00  0.00     0.028 C 
BRANCH  13  17
HETATM   17  C7  UNL     1      47.971  21.100 -12.569  1.00  0.00     0.173 C 
HETATM   18  S1  UNL     1      48.279  20.383 -14.072  1.00  0.00    -0.041 SA
BRANCH  17  19
HETATM   19  N2  UNL     1      46.668  20.869 -12.125  1.00  0.00    -0.347 N 
ATOM     20  H2  UNL     1      45.988  21.469 -12.592  1.00  0.00     0.167 HD
BRANCH  19  21
HETATM   21  C6  UNL     1      46.064  20.009 -11.188  1.00  0.00     0.063 C 
BRANCH  21  22
HETATM   22  C5  UNL     1      46.649  18.657 -10.996  1.00  0.00     0.044 C 
BRANCH  22  23
HETATM   23  C4  UNL     1      46.371  18.093  -9.608  1.00  0.00     0.006 C 
BRANCH  23  24
HETATM   24  C3  UNL     1      47.605  17.648  -8.912  1.00  0.00     0.009 C 
BRANCH  24  25
HETATM   25  C2  UNL     1      47.332  16.422  -8.093  1.00  0.00     0.099 C 
BRANCH  25  26
HETATM   26  C1  UNL     1      47.800  16.489  -6.699  1.00  0.00     0.231 C 
HETATM   27  N1  UNL     1      49.177  16.790  -6.385  1.00  0.00    -0.062 NA
HETATM   28  O1  UNL     1      47.075  16.296  -5.689  1.00  0.00    -0.277 OA
ENDBRANCH  25  26
ENDBRANCH  24  25
ENDBRANCH  23  24
ENDBRANCH  22  23
ENDBRANCH  21  22
ENDBRANCH  19  21
ENDBRANCH  17  19
ENDBRANCH  13  17
ENDBRANCH  11  12
ENDBRANCH   1  11
BRANCH   9  29
HETATM   29  C15 UNL     1      52.519  17.431  -4.224  1.00  0.00     0.124 C 
BRANCH  29  30
HETATM   30  C16 UNL     1      54.008  17.660  -4.185  1.00  0.00     0.020 C 
BRANCH  30  31
HETATM   31  C17 UNL     1      54.336  18.821  -3.272  1.00  0.00     0.002 C 
BRANCH  31  32
HETATM   32  C18 UNL     1      54.832  18.382  -1.937  1.00  0.00     0.005 C 
BRANCH  32  33
HETATM   33  C19 UNL     1      54.468  19.270  -0.791  1.00  0.00    -0.014 C 
HETATM   34  C20 UNL     1      54.393  18.529   0.521  1.00  0.00     0.004 C 
HETATM   35  C21 UNL     1      53.024  17.882   0.553  1.00  0.00     0.000 C 
HETATM   36  C22 UNL     1      52.233  18.486  -0.579  1.00  0.00     0.000 C 
HETATM   37  C23 UNL     1      53.016  19.707  -1.009  1.00  0.00     0.004 C 
ENDBRANCH  32  33
ENDBRANCH  31  32
ENDBRANCH  30  31
ENDBRANCH  29  30
ENDBRANCH   9  29
TORSDOF 15
ENDMDL
MODEL 3
REMARK VINA RESULT: -7.757289204      3.749     10.237
REMARK  15 active torsions:
REMARK  status: ('A' for Active; 'I' for Inactive)
REMARK    1  A    between atoms: C1_2  and  C2_4 
REMARK    2  A    between atoms: C2_4  and  C3_5 
REMARK    3  A    between atoms: C3_5  and  C4_6 
REMARK    4  A    between atoms: C4_6  and  C5_7 
REMARK    5  A    between atoms: C5_7  and  C6_8 
REMARK    6  A    between atoms: C6_8  and  N2_9 
REMARK    7  A    between atoms: N2_9  and  C7_11 
REMARK    8  A    between atoms: C7_11  and  N3_13 
REMARK    9  A    between atoms: C11_17  and  C12_18 
REMARK   10  A    between atoms: C12_18  and  N4_19 
REMARK       I    between atoms: N4_19  and  C13_21 
REMARK       I    between atoms: N6_23  and  C14_25 
REMARK       I    between atoms: C14_25  and  N7_27 
REMARK   11  A    between atoms: N7_27  and  C15_29 
REMARK   12  A    between atoms: C15_29  and  C16_30 
REMARK   13  A    between atoms: C16_30  and  C17_31 
REMARK   14  A    between atoms: C17_31  and  C18_32 
REMARK   15  A    between atoms: C18_32  and  C19_33 
ROOT
HETATM    1  N4  UNL     1      52.721  18.758  -4.545  1.00  0.00    -0.362 N 
ATOM      2  H4  UNL     1      52.120  18.998  -3.756  1.00  0.00     0.162 HD
HETATM    3  C13 UNL     1      52.232  18.885  -5.863  1.00  0.00     0.192 C 
HETATM    4  N5  UNL     1      52.855  18.231  -6.972  1.00  0.00    -0.063 NA
HETATM    5  N6  UNL     1      51.193  19.602  -6.110  1.00  0.00    -0.283 N 
ATOM      6  H6  UNL     1      50.719  20.085  -5.346  1.00  0.00     0.173 HD
HETATM    7  C14 UNL     1      50.699  19.730  -7.433  1.00  0.00     0.322 C 
HETATM    8  O2  UNL     1      50.596  18.654  -8.087  1.00  0.00    -0.247 OA
HETATM    9  N7  UNL     1      50.364  21.006  -7.931  1.00  0.00    -0.343 N 
ATOM     10  H7  UNL     1      50.484  21.822  -7.331  1.00  0.00     0.164 HD
ENDROOT
BRANCH   1  11
HETATM   11  C12 UNL     1      54.108  18.275  -4.298  1.00  0.00     0.147 C 
BRANCH  11  12
HETATM   12  C11 UNL     1      54.410  18.640  -2.905  1.00  0.00     0.104 C 
HETATM   13  N3  UNL     1      53.927  17.846  -1.814  1.00  0.00    -0.352 N 
HETATM   14  C8  UNL     1      54.358  18.636  -0.645  1.00  0.00     0.126 C 
HETATM   15  C9  UNL     1      54.231  20.097  -1.108  1.00  0.00     0.022 C 
HETATM   16  C10 UNL     1      53.750  19.999  -2.540  1.00  0.00     0.028 C 
BRANCH  13  17
HETATM   17  C7  UNL     1      53.245  16.635  -1.783  1.00  0.00     0.173 C 
HETATM   18  S1  UNL     1      52.108  16.509  -0.535  1.00  0.00    -0.041 SA
BRANCH  17  19
HETATM   19  N2  UNL     1      53.298  15.484  -2.574  1.00  0.00    -0.347 N 
ATOM     20  H2  UNL     1      52.397  15.268  -3.002  1.00  0.00     0.167 HD
BRANCH  19  21
HETATM   21  C6  UNL     1      54.292  14.551  -2.923  1.00  0.00     0.063 C 
BRANCH  21  22
HETATM   22  C5  UNL     1      54.083  13.128  -2.550  1.00  0.00     0.044 C 
BRANCH  22  23
HETATM   23  C4  UNL     1      53.934  12.223  -3.766  1.00  0.00     0.006 C 
BRANCH  23  24
HETATM   24  C3  UNL     1      53.951  12.974  -5.046  1.00  0.00     0.009 C 
BRANCH  24  25
HETATM   25  C2  UNL     1      52.628  12.853  -5.742  1.00  0.00     0.099 C 
BRANCH  25  26
HETATM   26  C1  UNL     1      51.895  14.120  -5.907  1.00  0.00     0.231 C 
HETATM   27  N1  UNL     1      50.633  14.168  -6.608  1.00  0.00    -0.062 NA
HETATM   28  O1  UNL     1      52.283  15.234  -5.474  1.00  0.00    -0.277 OA
ENDBRANCH  25  26
ENDBRANCH  24  25
ENDBRANCH  23  24
ENDBRANCH  22  23
ENDBRANCH  21  22
ENDBRANCH  19  21
ENDBRANCH  17  19
ENDBRANCH  13  17
ENDBRANCH  11  12
ENDBRANCH   1  11
BRANCH   9  29
HETATM   29  C15 UNL     1      49.853  21.185  -9.270  1.00  0.00     0.124 C 
BRANCH  29  30
HETATM   30  C16 UNL     1      50.923  21.188 -10.333  1.00  0.00     0.020 C 
BRANCH  30  31
HETATM   31  C17 UNL     1      50.524  20.287 -11.480  1.00  0.00     0.002 C 
BRANCH  31  32
HETATM   32  C18 UNL     1      50.416  21.015 -12.776  1.00  0.00     0.005 C 
BRANCH  32  33
HETATM   33  C19 UNL     1      50.840  22.447 -12.747  1.00  0.00    -0.014 C 
HETATM   34  C20 UNL     1      49.720  23.394 -13.105  1.00  0.00     0.004 C 
HETATM   35  C21 UNL     1      49.663  23.414 -14.618  1.00  0.00     0.000 C 
HETATM   36  C22 UNL     1      50.911  22.725 -15.108  1.00  0.00     0.000 C 
HETATM   37  C23 UNL     1      51.824  22.645 -13.904  1.00  0.00     0.004 C 
ENDBRANCH  32  33
ENDBRANCH  31  32
ENDBRANCH  30  31
ENDBRANCH  29  30
ENDBRANCH   9  29
TORSDOF 15
ENDMDL
MODEL 4
REMARK VINA RESULT: -7.732462475      4.242     10.983
REMARK  15 active torsions:
REMARK  status: ('A' for Active; 'I' for Inactive)
REMARK    1  A    between atoms: C1_2  and  C2_4 
REMARK    2  A    between atoms: C2_4  and  C3_5 
REMARK    3  A    between atoms: C3_5  and  C4_6 
REMARK    4  A    between atoms: C4_6  and  C5_7 
REMARK    5  A    between atoms: C5_7  and  C6_8 
REMARK    6  A    between atoms: C6_8  and  N2_9 
REMARK    7  A    between atoms: N2_9  and  C7_11 
REMARK    8  A    between atoms: C7_11  and  N3_13 
REMARK    9  A    between atoms: C11_17  and  C12_18 
REMARK   10  A    between atoms: C12_18  and  N4_19 
REMARK       I    between atoms: N4_19  and  C13_21 
REMARK       I    between atoms: N6_23  and  C14_25 
REMARK       I    between atoms: C14_25  and  N7_27 
REMARK   11  A    between atoms: N7_27  and  C15_29 
REMARK   12  A    between atoms: C15_29  and  C16_30 
REMARK   13  A    between atoms: C16_30  and  C17_31 
REMARK   14  A    between atoms: C17_31  and  C18_32 
REMARK   15  A    between atoms: C18_32  and  C19_33 
ROOT
HETATM    1  N4  UNL     1      52.698  18.772  -4.535  1.00  0.00    -0.362 N 
ATOM      2  H4  UNL     1      52.108  19.032  -3.745  1.00  0.00     0.162 HD
HETATM    3  C13 UNL     1      52.200  18.888  -5.851  1.00  0.00     0.192 C 
HETATM    4  N5  UNL     1      52.805  18.210  -6.956  1.00  0.00    -0.063 NA
HETATM    5  N6  UNL     1      51.169  19.617  -6.099  1.00  0.00    -0.283 N 
ATOM      6  H6  UNL     1      50.709  20.117  -5.338  1.00  0.00     0.173 HD
HETATM    7  C14 UNL     1      50.666  19.733  -7.419  1.00  0.00     0.322 C 
HETATM    8  O2  UNL     1      50.542  18.650  -8.057  1.00  0.00    -0.247 OA
HETATM    9  N7  UNL     1      50.345  21.007  -7.932  1.00  0.00    -0.343 N 
ATOM     10  H7  UNL     1      50.482  21.829  -7.345  1.00  0.00     0.164 HD
ENDROOT
BRANCH   1  11
HETATM   11  C12 UNL     1      54.080  18.274  -4.293  1.00  0.00     0.147 C 
BRANCH  11  12
HETATM   12  C11 UNL     1      54.371  18.585  -2.884  1.00  0.00     0.104 C 
HETATM   13  N3  UNL     1      53.810  17.799  -1.826  1.00  0.00    -0.352 N 
HETATM   14  C8  UNL     1      54.262  18.531  -0.627  1.00  0.00     0.126 C 
HETATM   15  C9  UNL     1      54.242  20.007  -1.056  1.00  0.00     0.022 C 
HETATM   16  C10 UNL     1      53.793  19.975  -2.501  1.00  0.00     0.028 C 
BRANCH  13  17
HETATM   17  C7  UNL     1      53.049  16.635  -1.841  1.00  0.00     0.173 C 
HETATM   18  S1  UNL     1      52.072  16.425  -0.474  1.00  0.00    -0.041 SA
BRANCH  17  19
HETATM   19  N2  UNL     1      52.917  15.588  -2.757  1.00  0.00    -0.347 N 
ATOM     20  H2  UNL     1      51.963  15.501  -3.108  1.00  0.00     0.167 HD
BRANCH  19  21
HETATM   21  C6  UNL     1      53.781  14.625  -3.312  1.00  0.00     0.063 C 
BRANCH  21  22
HETATM   22  C5  UNL     1      54.141  13.445  -2.484  1.00  0.00     0.044 C 
BRANCH  22  23
HETATM   23  C4  UNL     1      55.066  12.481  -3.217  1.00  0.00     0.006 C 
BRANCH  23  24
HETATM   24  C3  UNL     1      55.757  11.539  -2.300  1.00  0.00     0.009 C 
BRANCH  24  25
HETATM   25  C2  UNL     1      57.234  11.794  -2.301  1.00  0.00     0.099 C 
BRANCH  25  26
HETATM   26  C1  UNL     1      57.875  11.723  -3.625  1.00  0.00     0.231 C 
HETATM   27  N1  UNL     1      57.976  10.475  -4.343  1.00  0.00    -0.062 NA
HETATM   28  O1  UNL     1      58.378  12.704  -4.231  1.00  0.00    -0.277 OA
ENDBRANCH  25  26
ENDBRANCH  24  25
ENDBRANCH  23  24
ENDBRANCH  22  23
ENDBRANCH  21  22
ENDBRANCH  19  21
ENDBRANCH  17  19
ENDBRANCH  13  17
ENDBRANCH  11  12
ENDBRANCH   1  11
BRANCH   9  29
HETATM   29  C15 UNL     1      49.825  21.174  -9.270  1.00  0.00     0.124 C 
BRANCH  29  30
HETATM   30  C16 UNL     1      50.882  21.121 -10.343  1.00  0.00     0.020 C 
BRANCH  30  31
HETATM   31  C17 UNL     1      50.415  20.263 -11.498  1.00  0.00     0.002 C 
BRANCH  31  32
HETATM   32  C18 UNL     1      50.499  20.965 -12.810  1.00  0.00     0.005 C 
BRANCH  32  33
HETATM   33  C19 UNL     1      50.679  22.446 -12.738  1.00  0.00    -0.014 C 
HETATM   34  C20 UNL     1      49.685  23.197 -13.589  1.00  0.00     0.004 C 
HETATM   35  C21 UNL     1      50.242  23.172 -14.996  1.00  0.00     0.000 C 
HETATM   36  C22 UNL     1      51.661  22.675 -14.892  1.00  0.00     0.000 C 
HETATM   37  C23 UNL     1      52.011  22.768 -13.422  1.00  0.00     0.004 C 
ENDBRANCH  32  33
ENDBRANCH  31  32
ENDBRANCH  30  31
ENDBRANCH  29  30
ENDBRANCH   9  29
TORSDOF 15
ENDMDL
MODEL 5
REMARK VINA RESULT: -7.705131848      3.876     10.200
REMARK  15 active torsions:
REMARK  status: ('A' for Active; 'I' for Inactive)
REMARK    1  A    between atoms: C1_2  and  C2_4 
REMARK    2  A    between atoms: C2_4  and  C3_5 
REMARK    3  A    between atoms: C3_5  and  C4_6 
REMARK    4  A    between atoms: C4_6  and  C5_7 
REMARK    5  A    between atoms: C5_7  and  C6_8 
REMARK    6  A    between atoms: C6_8  and  N2_9 
REMARK    7  A    between atoms: N2_9  and  C7_11 
REMARK    8  A    between atoms: C7_11  and  N3_13 
REMARK    9  A    between atoms: C11_17  and  C12_18 
REMARK   10  A    between atoms: C12_18  and  N4_19 
REMARK       I    between atoms: N4_19  and  C13_21 
REMARK       I    between atoms: N6_23  and  C14_25 
REMARK       I    between atoms: C14_25  and  N7_27 
REMARK   11  A    between atoms: N7_27  and  C15_29 
REMARK   12  A    between atoms: C15_29  and  C16_30 
REMARK   13  A    between atoms: C16_30  and  C17_31 
REMARK   14  A    between atoms: C17_31  and  C18_32 
REMARK   15  A    between atoms: C18_32  and  C19_33 
ROOT
HETATM    1  N4  UNL     1      52.525  18.611  -3.974  1.00  0.00    -0.362 N 
ATOM      2  H4  UNL     1      51.684  18.547  -3.399  1.00  0.00     0.162 HD
HETATM    3  C13 UNL     1      52.407  18.810  -5.367  1.00  0.00     0.192 C 
HETATM    4  N5  UNL     1      53.485  18.540  -6.268  1.00  0.00    -0.063 NA
HETATM    5  N6  UNL     1      51.309  19.246  -5.877  1.00  0.00    -0.283 N 
ATOM      6  H6  UNL     1      50.516  19.451  -5.268  1.00  0.00     0.173 HD
HETATM    7  C14 UNL     1      51.189  19.445  -7.275  1.00  0.00     0.322 C 
HETATM    8  O2  UNL     1      51.610  18.502  -8.002  1.00  0.00    -0.247 OA
HETATM    9  N7  UNL     1      50.627  20.644  -7.762  1.00  0.00    -0.343 N 
ATOM     10  H7  UNL     1      50.317  21.354  -7.099  1.00  0.00     0.164 HD
ENDROOT
BRANCH   1  11
HETATM   11  C12 UNL     1      53.866  18.493  -3.340  1.00  0.00     0.147 C 
BRANCH  11  12
HETATM   12  C11 UNL     1      53.607  18.190  -1.924  1.00  0.00     0.104 C 
HETATM   13  N3  UNL     1      53.194  16.880  -1.515  1.00  0.00    -0.352 N 
HETATM   14  C8  UNL     1      52.943  17.074  -0.074  1.00  0.00     0.126 C 
HETATM   15  C9  UNL     1      52.387  18.504   0.025  1.00  0.00     0.022 C 
HETATM   16  C10 UNL     1      52.396  19.012  -1.401  1.00  0.00     0.028 C 
BRANCH  13  17
HETATM   17  C7  UNL     1      53.060  15.690  -2.221  1.00  0.00     0.173 C 
HETATM   18  S1  UNL     1      52.411  14.414  -1.316  1.00  0.00    -0.041 SA
BRANCH  17  19
HETATM   19  N2  UNL     1      53.349  15.318  -3.536  1.00  0.00    -0.347 N 
ATOM     20  H2  UNL     1      54.353  15.277  -3.714  1.00  0.00     0.167 HD
BRANCH  19  21
HETATM   21  C6  UNL     1      52.592  14.985  -4.675  1.00  0.00     0.063 C 
BRANCH  21  22
HETATM   22  C5  UNL     1      52.903  13.715  -5.379  1.00  0.00     0.044 C 
BRANCH  22  23
HETATM   23  C4  UNL     1      52.488  12.488  -4.577  1.00  0.00     0.006 C 
BRANCH  23  24
HETATM   24  C3  UNL     1      53.626  11.579  -4.287  1.00  0.00     0.009 C 
BRANCH  24  25
HETATM   25  C2  UNL     1      54.900  12.141  -4.843  1.00  0.00     0.099 C 
BRANCH  25  26
HETATM   26  C1  UNL     1      55.856  12.628  -3.834  1.00  0.00     0.231 C 
HETATM   27  N1  UNL     1      57.278  12.435  -3.995  1.00  0.00    -0.062 NA
HETATM   28  O1  UNL     1      55.538  13.231  -2.777  1.00  0.00    -0.277 OA
ENDBRANCH  25  26
ENDBRANCH  24  25
ENDBRANCH  23  24
ENDBRANCH  22  23
ENDBRANCH  21  22
ENDBRANCH  19  21
ENDBRANCH  17  19
ENDBRANCH  13  17
ENDBRANCH  11  12
ENDBRANCH   1  11
BRANCH   9  29
HETATM   29  C15 UNL     1      50.480  20.889  -9.178  1.00  0.00     0.124 C 
BRANCH  29  30
HETATM   30  C16 UNL     1      49.331  20.145  -9.808  1.00  0.00     0.020 C 
BRANCH  30  31
HETATM   31  C17 UNL     1      49.659  19.790 -11.241  1.00  0.00     0.002 C 
BRANCH  31  32
HETATM   32  C18 UNL     1      50.627  20.737 -11.863  1.00  0.00     0.005 C 
BRANCH  32  33
HETATM   33  C19 UNL     1      50.022  21.836 -12.675  1.00  0.00    -0.014 C 
HETATM   34  C20 UNL     1      50.400  21.759 -14.134  1.00  0.00     0.004 C 
HETATM   35  C21 UNL     1      51.769  22.398 -14.241  1.00  0.00     0.000 C 
HETATM   36  C22 UNL     1      52.031  23.085 -12.926  1.00  0.00     0.000 C 
HETATM   37  C23 UNL     1      50.689  23.141 -12.229  1.00  0.00     0.004 C 
ENDBRANCH  32  33
ENDBRANCH  31  32
ENDBRANCH  30  31
ENDBRANCH  29  30
ENDBRANCH   9  29
TORSDOF 15
ENDMDL
