MODEL 1
REMARK VINA RESULT: -4.757341819      0.000      0.000
REMARK  1 active torsions:
REMARK  status: ('A' for Active; 'I' for Inactive)
REMARK    1  A    between atoms: C3_3  and  N1_4 
ROOT
HETATM    1  N1  UNL     1      28.652  14.604  17.361  1.00  0.00    -0.317 N 
HETATM    2  C4  UNL     1      29.296  14.521  16.186  1.00  0.00     0.115 A 
HETATM    3  C5  UNL     1      29.005  15.646  15.432  1.00  0.00     0.106 A 
HETATM    4  N2  UNL     1      28.182  16.376  16.191  1.00  0.00    -0.360 N 
ATOM      5  H2  UNL     1      27.781  17.274  15.919  1.00  0.00     0.166 HD
HETATM    6  C6  UNL     1      27.956  15.756  17.370  1.00  0.00     0.188 A 
ENDROOT
BRANCH   1   7
HETATM    7  C3  UNL     1      28.685  13.646  18.426  1.00  0.00     0.039 A 
HETATM    8  C2  UNL     1      29.717  12.873  19.083  1.00  0.00     0.030 A 
HETATM    9  C1  UNL     1      28.830  12.306  19.896  1.00  0.00     0.005 A 
HETATM   10  C7  UNL     1      27.797  13.089  19.227  1.00  0.00     0.030 A 
ENDBRANCH   1   7
TORSDOF 1
ENDMDL
MODEL 2
REMARK VINA RESULT: -4.376145434      1.009      1.387
REMARK  1 active torsions:
REMARK  status: ('A' for Active; 'I' for Inactive)
REMARK    1  A    between atoms: C3_3  and  N1_4 
ROOT
HETATM    1  N1  UNL     1      29.388  14.072  17.708  1.00  0.00    -0.317 N 
HETATM    2  C4  UNL     1      29.254  13.947  16.378  1.00  0.00     0.115 A 
HETATM    3  C5  UNL     1      29.192  15.210  15.811  1.00  0.00     0.106 A 
HETATM    4  N2  UNL     1      29.291  16.062  16.837  1.00  0.00    -0.360 N 
ATOM      5  H2  UNL     1      29.279  17.079  16.753  1.00  0.00     0.166 HD
HETATM    6  C6  UNL     1      29.412  15.386  18.000  1.00  0.00     0.188 A 
ENDROOT
BRANCH   1   7
HETATM    7  C3  UNL     1      29.488  13.008  18.663  1.00  0.00     0.039 A 
HETATM    8  C2  UNL     1      28.792  12.649  19.880  1.00  0.00     0.030 A 
HETATM    9  C1  UNL     1      29.551  11.570  20.043  1.00  0.00     0.005 A 
HETATM   10  C7  UNL     1      30.247  11.941  18.816  1.00  0.00     0.030 A 
ENDBRANCH   1   7
TORSDOF 1
ENDMDL
MODEL 3
REMARK VINA RESULT: -4.374399587      1.484      3.900
REMARK  1 active torsions:
REMARK  status: ('A' for Active; 'I' for Inactive)
REMARK    1  A    between atoms: C3_3  and  N1_4 
ROOT
HETATM    1  N1  UNL     1      28.272  13.953  17.954  1.00  0.00    -0.317 N 
HETATM    2  C4  UNL     1      28.178  12.618  18.065  1.00  0.00     0.115 A 
HETATM    3  C5  UNL     1      27.581  12.307  19.275  1.00  0.00     0.106 A 
HETATM    4  N2  UNL     1      27.333  13.485  19.860  1.00  0.00    -0.360 N 
ATOM      5  H2  UNL     1      26.894  13.601  20.773  1.00  0.00     0.166 HD
HETATM    6  C6  UNL     1      27.748  14.498  19.068  1.00  0.00     0.188 A 
ENDROOT
BRANCH   1   7
HETATM    7  C3  UNL     1      28.829  14.686  16.856  1.00  0.00     0.039 A 
HETATM    8  C2  UNL     1      28.505  15.919  16.172  1.00  0.00     0.030 A 
HETATM    9  C1  UNL     1      29.531  15.773  15.338  1.00  0.00     0.005 A 
HETATM   10  C7  UNL     1      29.848  14.531  16.034  1.00  0.00     0.030 A 
ENDBRANCH   1   7
TORSDOF 1
ENDMDL
MODEL 4
REMARK VINA RESULT: -4.339495511      1.198      1.565
REMARK  1 active torsions:
REMARK  status: ('A' for Active; 'I' for Inactive)
REMARK    1  A    between atoms: C3_3  and  N1_4 
ROOT
HETATM    1  N1  UNL     1      29.467  14.633  17.182  1.00  0.00    -0.317 N 
HETATM    2  C4  UNL     1      28.607  15.523  16.660  1.00  0.00     0.115 A 
HETATM    3  C5  UNL     1      29.069  15.919  15.416  1.00  0.00     0.106 A 
HETATM    4  N2  UNL     1      30.208  15.244  15.230  1.00  0.00    -0.360 N 
ATOM      5  H2  UNL     1      30.799  15.314  14.401  1.00  0.00     0.166 HD
HETATM    6  C6  UNL     1      30.466  14.456  16.297  1.00  0.00     0.188 A 
ENDROOT
BRANCH   1   7
HETATM    7  C3  UNL     1      29.359  13.979  18.453  1.00  0.00     0.039 A 
HETATM    8  C2  UNL     1      29.740  12.687  18.981  1.00  0.00     0.030 A 
HETATM    9  C1  UNL     1      29.253  12.990  20.181  1.00  0.00     0.005 A 
HETATM   10  C7  UNL     1      28.872  14.289  19.638  1.00  0.00     0.030 A 
ENDBRANCH   1   7
TORSDOF 1
ENDMDL
MODEL 5
REMARK VINA RESULT: -4.338447627      0.991      1.875
REMARK  1 active torsions:
REMARK  status: ('A' for Active; 'I' for Inactive)
REMARK    1  A    between atoms: C3_3  and  N1_4 
ROOT
HETATM    1  N1  UNL     1      28.934  14.571  17.348  1.00  0.00    -0.317 N 
HETATM    2  C4  UNL     1      27.994  15.275  17.999  1.00  0.00     0.115 A 
HETATM    3  C5  UNL     1      27.572  16.319  17.193  1.00  0.00     0.106 A 
HETATM    4  N2  UNL     1      28.286  16.207  16.068  1.00  0.00    -0.360 N 
ATOM      5  H2  UNL     1      28.212  16.832  15.265  1.00  0.00     0.166 HD
HETATM    6  C6  UNL     1      29.120  15.147  16.145  1.00  0.00     0.188 A 
ENDROOT
BRANCH   1   7
HETATM    7  C3  UNL     1      29.627  13.414  17.830  1.00  0.00     0.039 A 
HETATM    8  C2  UNL     1      29.758  12.752  19.110  1.00  0.00     0.030 A 
HETATM    9  C1  UNL     1      30.555  11.821  18.592  1.00  0.00     0.005 A 
HETATM   10  C7  UNL     1      30.417  12.496  17.307  1.00  0.00     0.030 A 
ENDBRANCH   1   7
TORSDOF 1
ENDMDL
