MODEL 1
REMARK VINA RESULT: -4.307365250      0.000      0.000
REMARK  1 active torsions:
REMARK  status: ('A' for Active; 'I' for Inactive)
REMARK    1  A    between atoms: C2_2  and  C3_3 
ROOT
HETATM    1  C3  UNL     1      28.899  14.490  18.392  1.00  0.00    -0.020 A 
HETATM    2  C4  UNL     1      27.914  15.440  18.225  1.00  0.00     0.099 A 
HETATM    3  N1  UNL     1      27.978  15.917  16.970  1.00  0.00    -0.369 N 
ATOM      4  H1  UNL     1      27.359  16.632  16.586  1.00  0.00     0.165 HD
HETATM    5  C5  UNL     1      28.973  15.318  16.296  1.00  0.00     0.005 A 
HETATM    6  C6  UNL     1      29.375  15.570  14.865  1.00  0.00     0.068 C 
HETATM    7  C7  UNL     1      29.549  14.429  17.179  1.00  0.00     0.037 A 
ENDROOT
BRANCH   1   8
HETATM    8  C2  UNL     1      29.172  13.728  19.609  1.00  0.00     0.002 C 
HETATM    9  C1  UNL     1      29.527  12.456  19.493  1.00  0.00     0.012 C 
ENDBRANCH   1   8
TORSDOF 1
ENDMDL
MODEL 2
REMARK VINA RESULT: -4.263710213      1.768      3.772
REMARK  1 active torsions:
REMARK  status: ('A' for Active; 'I' for Inactive)
REMARK    1  A    between atoms: C2_2  and  C3_3 
ROOT
HETATM    1  C3  UNL     1      28.582  14.092  17.550  1.00  0.00    -0.020 A 
HETATM    2  C4  UNL     1      28.006  14.923  18.487  1.00  0.00     0.099 A 
HETATM    3  N1  UNL     1      27.444  14.171  19.448  1.00  0.00    -0.369 N 
ATOM      4  H1  UNL     1      26.950  14.538  20.262  1.00  0.00     0.165 HD
HETATM    5  C5  UNL     1      27.627  12.866  19.183  1.00  0.00     0.005 A 
HETATM    6  C6  UNL     1      27.151  11.702  20.013  1.00  0.00     0.068 C 
HETATM    7  C7  UNL     1      28.335  12.815  18.002  1.00  0.00     0.037 A 
ENDROOT
BRANCH   1   8
HETATM    8  C2  UNL     1      29.297  14.507  16.345  1.00  0.00     0.002 C 
HETATM    9  C1  UNL     1      28.956  15.652  15.769  1.00  0.00     0.012 C 
ENDBRANCH   1   8
TORSDOF 1
ENDMDL
MODEL 3
REMARK VINA RESULT: -4.132770403      1.216      1.796
REMARK  1 active torsions:
REMARK  status: ('A' for Active; 'I' for Inactive)
REMARK    1  A    between atoms: C2_2  and  C3_3 
ROOT
HETATM    1  C3  UNL     1      29.043  14.381  18.291  1.00  0.00    -0.020 A 
HETATM    2  C4  UNL     1      29.859  14.831  17.276  1.00  0.00     0.099 A 
HETATM    3  N1  UNL     1      29.236  15.828  16.626  1.00  0.00    -0.369 N 
ATOM      4  H1  UNL     1      29.622  16.337  15.831  1.00  0.00     0.165 HD
HETATM    5  C5  UNL     1      28.030  16.057  17.174  1.00  0.00     0.005 A 
HETATM    6  C6  UNL     1      27.022  17.089  16.738  1.00  0.00     0.068 C 
HETATM    7  C7  UNL     1      27.908  15.157  18.210  1.00  0.00     0.037 A 
ENDROOT
BRANCH   1   8
HETATM    8  C2  UNL     1      29.344  13.307  19.235  1.00  0.00     0.002 C 
HETATM    9  C1  UNL     1      30.128  12.315  18.837  1.00  0.00     0.012 C 
ENDBRANCH   1   8
TORSDOF 1
ENDMDL
MODEL 4
REMARK VINA RESULT: -4.005757120      1.491      3.802
REMARK  1 active torsions:
REMARK  status: ('A' for Active; 'I' for Inactive)
REMARK    1  A    between atoms: C2_2  and  C3_3 
ROOT
HETATM    1  C3  UNL     1      29.512  14.401  17.843  1.00  0.00    -0.020 A 
HETATM    2  C4  UNL     1      29.077  15.248  18.839  1.00  0.00     0.099 A 
HETATM    3  N1  UNL     1      28.933  14.547  19.976  1.00  0.00    -0.369 N 
ATOM      4  H1  UNL     1      28.623  14.937  20.866  1.00  0.00     0.165 HD
HETATM    5  C5  UNL     1      29.257  13.259  19.771  1.00  0.00     0.005 A 
HETATM    6  C6  UNL     1      29.229  12.148  20.789  1.00  0.00     0.068 C 
HETATM    7  C7  UNL     1      29.617  13.165  18.443  1.00  0.00     0.037 A 
ENDROOT
BRANCH   1   8
HETATM    8  C2  UNL     1      29.792  14.764  16.456  1.00  0.00     0.002 C 
HETATM    9  C1  UNL     1      28.979  15.615  15.847  1.00  0.00     0.012 C 
ENDBRANCH   1   8
TORSDOF 1
ENDMDL
MODEL 5
REMARK VINA RESULT: -3.978976394      1.366      1.670
REMARK  1 active torsions:
REMARK  status: ('A' for Active; 'I' for Inactive)
REMARK    1  A    between atoms: C2_2  and  C3_3 
ROOT
HETATM    1  C3  UNL     1      29.325  13.765  18.268  1.00  0.00    -0.020 A 
HETATM    2  C4  UNL     1      29.410  12.766  17.322  1.00  0.00     0.099 A 
HETATM    3  N1  UNL     1      29.425  13.324  16.100  1.00  0.00    -0.369 N 
ATOM      4  H1  UNL     1      29.483  12.806  15.223  1.00  0.00     0.165 HD
HETATM    5  C5  UNL     1      29.353  14.662  16.199  1.00  0.00     0.005 A 
HETATM    6  C6  UNL     1      29.343  15.652  15.064  1.00  0.00     0.068 C 
HETATM    7  C7  UNL     1      29.291  14.939  17.548  1.00  0.00     0.037 A 
ENDROOT
BRANCH   1   8
HETATM    8  C2  UNL     1      29.283  13.586  19.718  1.00  0.00     0.002 C 
HETATM    9  C1  UNL     1      29.119  12.362  20.201  1.00  0.00     0.012 C 
ENDBRANCH   1   8
TORSDOF 1
ENDMDL
