MODEL 1
REMARK VINA RESULT: -7.074711391      0.000      0.000
REMARK  5 active torsions:
REMARK  status: ('A' for Active; 'I' for Inactive)
REMARK    1  A    between atoms: C2_2  and  N1_3 
REMARK    2  A    between atoms: C2_2  and  C3_6 
REMARK    3  A    between atoms: C3_6  and  O3_7 
REMARK    4  A    between atoms: C8_13  and  C9_14 
REMARK    5  A    between atoms: C10_15  and  C11_16 
ROOT
HETATM    1  C3  UNL     1      19.191   5.114   2.267  1.00  0.00     0.112 C 
HETATM    2  C4  UNL     1      19.452   6.197   3.309  1.00  0.00     0.045 C 
HETATM    3  C5  UNL     1      20.340   5.709   4.420  1.00  0.00     0.003 C 
HETATM    4  C6  UNL     1      21.571   4.998   3.966  1.00  0.00     0.001 C 
HETATM    5  C7  UNL     1      21.267   3.904   2.985  1.00  0.00     0.012 C 
HETATM    6  C8  UNL     1      20.493   4.542   1.832  1.00  0.00     0.049 C 
ENDROOT
BRANCH   1   7
HETATM    7  C2  UNL     1      18.088   4.249   2.630  1.00  0.00     0.106 C 
HETATM    8  C1  UNL     1      18.044   3.205   3.422  1.00  0.00     0.048 C 
BRANCH   7   9
HETATM    9  N1  UNL     1      16.802   4.561   2.043  1.00  0.00    -0.117 N 
HETATM   10  O1  UNL     1      16.056   5.312   2.645  1.00  0.00    -0.532 OA
HETATM   11  O2  UNL     1      16.479   4.008   0.859  1.00  0.00    -0.532 OA
ENDBRANCH   7   9
ENDBRANCH   1   7
BRANCH   1  12
HETATM   12  O3  UNL     1      18.739   5.858   1.133  1.00  0.00    -0.383 OA
ATOM     13  H3  UNL     1      19.052   6.745   1.267  1.00  0.00     0.211 HD
ENDBRANCH   1  12
BRANCH   6  14
HETATM   14  C9  UNL     1      20.486   3.755   0.617  1.00  0.00    -0.018 C 
HETATM   15  C10 UNL     1      21.201   3.850  -0.450  1.00  0.00     0.003 C 
BRANCH  15  16
HETATM   16  C11 UNL     1      22.261   4.719  -0.889  1.00  0.00    -0.066 C 
HETATM   17  C12 UNL     1      23.634   4.761  -0.379  1.00  0.00     0.048 C 
HETATM   18  C13 UNL     1      22.004   5.612  -1.891  1.00  0.00    -0.024 C 
HETATM   19  C14 UNL     1      20.680   5.704  -2.525  1.00  0.00     0.036 C 
ENDBRANCH  15  16
ENDBRANCH   6  14
TORSDOF 5
ENDMDL
MODEL 2
REMARK VINA RESULT: -6.934695208      1.930      2.960
REMARK  5 active torsions:
REMARK  status: ('A' for Active; 'I' for Inactive)
REMARK    1  A    between atoms: C2_2  and  N1_3 
REMARK    2  A    between atoms: C2_2  and  C3_6 
REMARK    3  A    between atoms: C3_6  and  O3_7 
REMARK    4  A    between atoms: C8_13  and  C9_14 
REMARK    5  A    between atoms: C10_15  and  C11_16 
ROOT
HETATM    1  C3  UNL     1      19.986   4.359   1.742  1.00  0.00     0.112 C 
HETATM    2  C4  UNL     1      19.387   4.514   3.136  1.00  0.00     0.045 C 
HETATM    3  C5  UNL     1      19.822   3.414   4.063  1.00  0.00     0.003 C 
HETATM    4  C6  UNL     1      21.289   3.145   4.063  1.00  0.00     0.001 C 
HETATM    5  C7  UNL     1      21.832   2.942   2.679  1.00  0.00     0.012 C 
HETATM    6  C8  UNL     1      21.457   4.183   1.868  1.00  0.00     0.049 C 
ENDROOT
BRANCH   1   7
HETATM    7  C2  UNL     1      19.207   3.479   0.897  1.00  0.00     0.106 C 
HETATM    8  C1  UNL     1      19.087   2.173   0.901  1.00  0.00     0.048 C 
BRANCH   7   9
HETATM    9  N1  UNL     1      18.410   4.110  -0.134  1.00  0.00    -0.117 N 
HETATM   10  O1  UNL     1      18.868   4.179  -1.261  1.00  0.00    -0.532 OA
HETATM   11  O2  UNL     1      17.199   4.597   0.192  1.00  0.00    -0.532 OA
ENDBRANCH   7   9
ENDBRANCH   1   7
BRANCH   1  12
HETATM   12  O3  UNL     1      19.838   5.664   1.178  1.00  0.00    -0.383 OA
ATOM     13  H3  UNL     1      19.145   6.081   1.677  1.00  0.00     0.211 HD
ENDBRANCH   1  12
BRANCH   6  14
HETATM   14  C9  UNL     1      22.242   4.362   0.665  1.00  0.00    -0.018 C 
HETATM   15  C10 UNL     1      23.502   4.580   0.507  1.00  0.00     0.003 C 
BRANCH  15  16
HETATM   16  C11 UNL     1      24.626   4.730   1.393  1.00  0.00    -0.066 C 
HETATM   17  C12 UNL     1      24.607   5.265   2.758  1.00  0.00     0.048 C 
HETATM   18  C13 UNL     1      25.861   4.341   0.957  1.00  0.00    -0.024 C 
HETATM   19  C14 UNL     1      26.066   3.776  -0.385  1.00  0.00     0.036 C 
ENDBRANCH  15  16
ENDBRANCH   6  14
TORSDOF 5
ENDMDL
MODEL 3
REMARK VINA RESULT: -6.923884263      2.994      3.711
REMARK  5 active torsions:
REMARK  status: ('A' for Active; 'I' for Inactive)
REMARK    1  A    between atoms: C2_2  and  N1_3 
REMARK    2  A    between atoms: C2_2  and  C3_6 
REMARK    3  A    between atoms: C3_6  and  O3_7 
REMARK    4  A    between atoms: C8_13  and  C9_14 
REMARK    5  A    between atoms: C10_15  and  C11_16 
ROOT
HETATM    1  C3  UNL     1      20.728   3.465   2.575  1.00  0.00     0.112 C 
HETATM    2  C4  UNL     1      19.841   4.704   2.641  1.00  0.00     0.045 C 
HETATM    3  C5  UNL     1      19.897   5.369   3.988  1.00  0.00     0.003 C 
HETATM    4  C6  UNL     1      21.275   5.585   4.518  1.00  0.00     0.001 C 
HETATM    5  C7  UNL     1      22.099   4.331   4.490  1.00  0.00     0.012 C 
HETATM    6  C8  UNL     1      22.092   3.826   3.046  1.00  0.00     0.049 C 
ENDROOT
BRANCH   1   7
HETATM    7  C2  UNL     1      20.064   2.279   3.074  1.00  0.00     0.106 C 
HETATM    8  C1  UNL     1      19.646   1.975   4.279  1.00  0.00     0.048 C 
BRANCH   7   9
HETATM    9  N1  UNL     1      19.797   1.234   2.109  1.00  0.00    -0.117 N 
HETATM   10  O1  UNL     1      18.756   1.280   1.477  1.00  0.00    -0.532 OA
HETATM   11  O2  UNL     1      20.705   0.253   1.948  1.00  0.00    -0.532 OA
ENDBRANCH   7   9
ENDBRANCH   1   7
BRANCH   1  12
HETATM   12  O3  UNL     1      20.888   3.255   1.171  1.00  0.00    -0.383 OA
ATOM     13  H3  UNL     1      21.657   2.705   1.080  1.00  0.00     0.211 HD
ENDBRANCH   1  12
BRANCH   6  14
HETATM   14  C9  UNL     1      23.156   2.893   2.740  1.00  0.00    -0.018 C 
HETATM   15  C10 UNL     1      24.400   3.094   2.475  1.00  0.00     0.003 C 
BRANCH  15  16
HETATM   16  C11 UNL     1      25.242   4.257   2.371  1.00  0.00    -0.066 C 
HETATM   17  C12 UNL     1      25.598   5.186   3.447  1.00  0.00     0.048 C 
HETATM   18  C13 UNL     1      25.793   4.561   1.158  1.00  0.00    -0.024 C 
HETATM   19  C14 UNL     1      25.548   3.734  -0.033  1.00  0.00     0.036 C 
ENDBRANCH  15  16
ENDBRANCH   6  14
TORSDOF 5
ENDMDL
MODEL 4
REMARK VINA RESULT: -6.905640867      1.065      1.139
REMARK  5 active torsions:
REMARK  status: ('A' for Active; 'I' for Inactive)
REMARK    1  A    between atoms: C2_2  and  N1_3 
REMARK    2  A    between atoms: C2_2  and  C3_6 
REMARK    3  A    between atoms: C3_6  and  O3_7 
REMARK    4  A    between atoms: C8_13  and  C9_14 
REMARK    5  A    between atoms: C10_15  and  C11_16 
ROOT
HETATM    1  C3  UNL     1      19.818   4.698   3.011  1.00  0.00     0.112 C 
HETATM    2  C4  UNL     1      20.211   5.737   4.057  1.00  0.00     0.045 C 
HETATM    3  C5  UNL     1      21.473   5.361   4.781  1.00  0.00     0.003 C 
HETATM    4  C6  UNL     1      22.597   4.941   3.895  1.00  0.00     0.001 C 
HETATM    5  C7  UNL     1      22.187   3.878   2.918  1.00  0.00     0.012 C 
HETATM    6  C8  UNL     1      20.991   4.428   2.139  1.00  0.00     0.049 C 
ENDROOT
BRANCH   1   7
HETATM    7  C2  UNL     1      19.048   3.608   3.573  1.00  0.00     0.106 C 
HETATM    8  C1  UNL     1      19.401   2.641   4.385  1.00  0.00     0.048 C 
BRANCH   7   9
HETATM    9  N1  UNL     1      17.651   3.545   3.201  1.00  0.00    -0.117 N 
HETATM   10  O1  UNL     1      16.834   4.095   3.919  1.00  0.00    -0.532 OA
HETATM   11  O2  UNL     1      17.307   2.881   2.082  1.00  0.00    -0.532 OA
ENDBRANCH   7   9
ENDBRANCH   1   7
BRANCH   1  12
HETATM   12  O3  UNL     1      18.913   5.413   2.167  1.00  0.00    -0.383 OA
ATOM     13  H3  UNL     1      18.185   5.661   2.725  1.00  0.00     0.211 HD
ENDBRANCH   1  12
BRANCH   6  14
HETATM   14  C9  UNL     1      20.732   3.740   0.891  1.00  0.00    -0.018 C 
HETATM   15  C10 UNL     1      21.259   3.887  -0.275  1.00  0.00     0.003 C 
BRANCH  15  16
HETATM   16  C11 UNL     1      22.276   4.741  -0.830  1.00  0.00    -0.066 C 
HETATM   17  C12 UNL     1      23.674   4.842  -0.399  1.00  0.00     0.048 C 
HETATM   18  C13 UNL     1      21.948   5.557  -1.876  1.00  0.00    -0.024 C 
HETATM   19  C14 UNL     1      20.591   5.581  -2.443  1.00  0.00     0.036 C 
ENDBRANCH  15  16
ENDBRANCH   6  14
TORSDOF 5
ENDMDL
MODEL 5
REMARK VINA RESULT: -6.861938417      2.300      4.274
REMARK  5 active torsions:
REMARK  status: ('A' for Active; 'I' for Inactive)
REMARK    1  A    between atoms: C2_2  and  N1_3 
REMARK    2  A    between atoms: C2_2  and  C3_6 
REMARK    3  A    between atoms: C3_6  and  O3_7 
REMARK    4  A    between atoms: C8_13  and  C9_14 
REMARK    5  A    between atoms: C10_15  and  C11_16 
ROOT
HETATM    1  C3  UNL     1      20.196   3.475  -0.184  1.00  0.00     0.112 C 
HETATM    2  C4  UNL     1      20.007   3.143  -1.661  1.00  0.00     0.045 C 
HETATM    3  C5  UNL     1      20.243   4.337  -2.543  1.00  0.00     0.003 C 
HETATM    4  C6  UNL     1      21.497   5.089  -2.249  1.00  0.00     0.001 C 
HETATM    5  C7  UNL     1      21.620   5.447  -0.796  1.00  0.00     0.012 C 
HETATM    6  C8  UNL     1      21.513   4.142  -0.007  1.00  0.00     0.049 C 
ENDROOT
BRANCH   1   7
HETATM    7  C2  UNL     1      19.001   4.028   0.418  1.00  0.00     0.106 C 
HETATM    8  C1  UNL     1      18.289   5.081   0.097  1.00  0.00     0.048 C 
BRANCH   7   9
HETATM    9  N1  UNL     1      18.471   3.324   1.567  1.00  0.00    -0.117 N 
HETATM   10  O1  UNL     1      17.505   2.599   1.409  1.00  0.00    -0.532 OA
HETATM   11  O2  UNL     1      19.063   3.498   2.763  1.00  0.00    -0.532 OA
ENDBRANCH   7   9
ENDBRANCH   1   7
BRANCH   1  12
HETATM   12  O3  UNL     1      20.371   2.190   0.417  1.00  0.00    -0.383 OA
ATOM     13  H3  UNL     1      21.262   1.932   0.215  1.00  0.00     0.211 HD
ENDBRANCH   1  12
BRANCH   6  14
HETATM   14  C9  UNL     1      22.025   4.225   1.345  1.00  0.00    -0.018 C 
HETATM   15  C10 UNL     1      23.234   4.303   1.782  1.00  0.00     0.003 C 
BRANCH  15  16
HETATM   16  C11 UNL     1      24.536   4.342   1.170  1.00  0.00    -0.066 C 
HETATM   17  C12 UNL     1      24.855   4.092  -0.238  1.00  0.00     0.048 C 
HETATM   18  C13 UNL     1      25.618   4.646   1.948  1.00  0.00    -0.024 C 
HETATM   19  C14 UNL     1      25.482   4.933   3.384  1.00  0.00     0.036 C 
ENDBRANCH  15  16
ENDBRANCH   6  14
TORSDOF 5
ENDMDL
