MODEL 1
REMARK VINA RESULT: -6.009712978      0.000      0.000
REMARK  4 active torsions:
REMARK  status: ('A' for Active; 'I' for Inactive)
REMARK    1  A    between atoms: N1_1  and  C1_4 
REMARK    2  A    between atoms: C2_7  and  N3_8 
REMARK    3  A    between atoms: N3_8  and  C3_10 
REMARK    4  A    between atoms: C4_12  and  N4_13 
ROOT
HETATM    1  C1  UNL     1      23.463  30.190  17.867  1.00  0.00     0.705 A 
HETATM    2  N2  UNL     1      24.166  31.334  17.882  1.00  0.00    -0.020 N 
ATOM      3  H2  UNL     1      23.970  32.146  17.298  1.00  0.00     0.203 HD
HETATM    4  C2  UNL     1      25.168  31.256  18.780  1.00  0.00     0.711 A 
HETATM    5  N5  UNL     1      25.059  30.016  19.322  1.00  0.00    -0.117 N 
ATOM      6  H5  UNL     1      25.671  29.633  20.042  1.00  0.00     0.206 HD
HETATM    7  N6  UNL     1      24.034  29.378  18.772  1.00  0.00    -0.118 N 
ATOM      8  H6  UNL     1      23.730  28.431  18.997  1.00  0.00     0.206 HD
ENDROOT
BRANCH   4   9
HETATM    9  N3  UNL     1      26.143  32.247  19.106  1.00  0.00    -0.174 N 
ATOM     10  H3  UNL     1      27.009  32.313  18.572  1.00  0.00     0.182 HD
BRANCH   9  11
HETATM   11  C3  UNL     1      25.894  33.147  20.188  1.00  0.00     0.394 C 
HETATM   12  O1  UNL     1      26.923  33.178  21.129  1.00  0.00    -0.289 OA
HETATM   13  C4  UNL     1      26.674  34.565  21.242  1.00  0.00     0.473 C 
HETATM   14  O2  UNL     1      26.173  34.494  19.925  1.00  0.00    -0.289 OA
BRANCH  13  15
HETATM   15  N4  UNL     1      27.870  35.367  21.363  1.00  0.00    -0.029 N 
ATOM     16  H43 UNL     1      27.782  36.028  22.134  1.00  0.00     0.280 HD
ATOM     17  H42 UNL     1      28.647  34.803  21.708  1.00  0.00     0.280 HD
ATOM     18  H41 UNL     1      28.131  35.850  20.504  1.00  0.00     0.280 HD
ENDBRANCH  13  15
ENDBRANCH   9  11
ENDBRANCH   4   9
BRANCH   1  19
HETATM   19  N1  UNL     1      22.423  29.915  17.117  1.00  0.00    -0.233 N 
ATOM     20  H12 UNL     1      22.326  30.106  16.120  1.00  0.00     0.174 HD
ATOM     21  H11 UNL     1      21.554  29.470  17.414  1.00  0.00     0.174 HD
ENDBRANCH   1  19
TORSDOF 4
ENDMDL
MODEL 2
REMARK VINA RESULT: -5.953374973      2.013      5.622
REMARK  4 active torsions:
REMARK  status: ('A' for Active; 'I' for Inactive)
REMARK    1  A    between atoms: N1_1  and  C1_4 
REMARK    2  A    between atoms: C2_7  and  N3_8 
REMARK    3  A    between atoms: N3_8  and  C3_10 
REMARK    4  A    between atoms: C4_12  and  N4_13 
ROOT
HETATM    1  C1  UNL     1      27.623  35.921  20.302  1.00  0.00     0.705 A 
HETATM    2  N2  UNL     1      26.854  35.040  20.960  1.00  0.00    -0.020 N 
ATOM      3  H2  UNL     1      26.683  35.053  21.965  1.00  0.00     0.203 HD
HETATM    4  C2  UNL     1      26.340  34.135  20.104  1.00  0.00     0.711 A 
HETATM    5  N5  UNL     1      26.823  34.491  18.886  1.00  0.00    -0.117 N 
ATOM      6  H5  UNL     1      26.623  34.007  18.010  1.00  0.00     0.206 HD
HETATM    7  N6  UNL     1      27.593  35.563  19.008  1.00  0.00    -0.118 N 
ATOM      8  H6  UNL     1      28.080  36.037  18.247  1.00  0.00     0.206 HD
ENDROOT
BRANCH   4   9
HETATM    9  N3  UNL     1      25.476  33.035  20.393  1.00  0.00    -0.174 N 
ATOM     10  H3  UNL     1      24.716  33.140  21.064  1.00  0.00     0.182 HD
BRANCH   9  11
HETATM   11  C3  UNL     1      25.687  31.785  19.733  1.00  0.00     0.394 C 
HETATM   12  O1  UNL     1      24.566  30.956  19.749  1.00  0.00    -0.289 OA
HETATM   13  C4  UNL     1      24.933  30.562  18.442  1.00  0.00     0.473 C 
HETATM   14  O2  UNL     1      25.571  31.816  18.338  1.00  0.00    -0.289 OA
BRANCH  13  15
HETATM   15  N4  UNL     1      23.815  30.406  17.541  1.00  0.00    -0.029 N 
ATOM     16  H43 UNL     1      23.781  29.455  17.172  1.00  0.00     0.280 HD
ATOM     17  H42 UNL     1      22.934  30.421  18.056  1.00  0.00     0.280 HD
ATOM     18  H41 UNL     1      23.798  31.086  16.782  1.00  0.00     0.280 HD
ENDBRANCH  13  15
ENDBRANCH   9  11
ENDBRANCH   4   9
BRANCH   1  19
HETATM   19  N1  UNL     1      28.279  36.933  20.817  1.00  0.00    -0.233 N 
ATOM     20  H12 UNL     1      28.613  37.758  20.318  1.00  0.00     0.174 HD
ATOM     21  H11 UNL     1      28.555  37.052  21.792  1.00  0.00     0.174 HD
ENDBRANCH   1  19
TORSDOF 4
ENDMDL
MODEL 3
REMARK VINA RESULT: -5.912371830      1.871      5.641
REMARK  4 active torsions:
REMARK  status: ('A' for Active; 'I' for Inactive)
REMARK    1  A    between atoms: N1_1  and  C1_4 
REMARK    2  A    between atoms: C2_7  and  N3_8 
REMARK    3  A    between atoms: N3_8  and  C3_10 
REMARK    4  A    between atoms: C4_12  and  N4_13 
ROOT
HETATM    1  C1  UNL     1      27.897  35.943  20.284  1.00  0.00     0.705 A 
HETATM    2  N2  UNL     1      26.899  35.262  19.700  1.00  0.00    -0.020 N 
ATOM      3  H2  UNL     1      26.548  35.436  18.758  1.00  0.00     0.203 HD
HETATM    4  C2  UNL     1      26.426  34.315  20.534  1.00  0.00     0.711 A 
HETATM    5  N5  UNL     1      27.173  34.436  21.661  1.00  0.00    -0.117 N 
ATOM      6  H5  UNL     1      27.071  33.862  22.498  1.00  0.00     0.206 HD
HETATM    7  N6  UNL     1      28.055  35.414  21.508  1.00  0.00    -0.118 N 
ATOM      8  H6  UNL     1      28.739  35.715  22.204  1.00  0.00     0.206 HD
ENDROOT
BRANCH   4   9
HETATM    9  N3  UNL     1      25.373  33.378  20.303  1.00  0.00    -0.174 N 
ATOM     10  H3  UNL     1      24.405  33.696  20.250  1.00  0.00     0.182 HD
BRANCH   9  11
HETATM   11  C3  UNL     1      25.687  31.993  20.148  1.00  0.00     0.394 C 
HETATM   12  O1  UNL     1      24.570  31.199  19.891  1.00  0.00    -0.289 OA
HETATM   13  C4  UNL     1      25.397  30.450  19.024  1.00  0.00     0.473 C 
HETATM   14  O2  UNL     1      26.166  31.624  18.885  1.00  0.00    -0.289 OA
BRANCH  13  15
HETATM   15  N4  UNL     1      24.744  30.039  17.803  1.00  0.00    -0.029 N 
ATOM     16  H43 UNL     1      23.801  29.701  17.996  1.00  0.00     0.280 HD
ATOM     17  H42 UNL     1      24.521  30.849  17.224  1.00  0.00     0.280 HD
ATOM     18  H41 UNL     1      25.269  29.349  17.265  1.00  0.00     0.280 HD
ENDBRANCH  13  15
ENDBRANCH   9  11
ENDBRANCH   4   9
BRANCH   1  19
HETATM   19  N1  UNL     1      28.585  36.932  19.766  1.00  0.00    -0.233 N 
ATOM     20  H12 UNL     1      28.291  37.906  19.696  1.00  0.00     0.174 HD
ATOM     21  H11 UNL     1      29.517  36.880  19.354  1.00  0.00     0.174 HD
ENDBRANCH   1  19
TORSDOF 4
ENDMDL
MODEL 4
REMARK VINA RESULT: -5.686025000      1.576      1.830
REMARK  4 active torsions:
REMARK  status: ('A' for Active; 'I' for Inactive)
REMARK    1  A    between atoms: N1_1  and  C1_4 
REMARK    2  A    between atoms: C2_7  and  N3_8 
REMARK    3  A    between atoms: N3_8  and  C3_10 
REMARK    4  A    between atoms: C4_12  and  N4_13 
ROOT
HETATM    1  C1  UNL     1      23.443  30.179  17.878  1.00  0.00     0.705 A 
HETATM    2  N2  UNL     1      24.090  31.350  17.982  1.00  0.00    -0.020 N 
ATOM      3  H2  UNL     1      23.843  32.200  17.474  1.00  0.00     0.203 HD
HETATM    4  C2  UNL     1      25.114  31.245  18.852  1.00  0.00     0.711 A 
HETATM    5  N5  UNL     1      25.075  29.959  19.285  1.00  0.00    -0.117 N 
ATOM      6  H5  UNL     1      25.720  29.546  19.959  1.00  0.00     0.206 HD
HETATM    7  N6  UNL     1      24.071  29.321  18.699  1.00  0.00    -0.118 N 
ATOM      8  H6  UNL     1      23.817  28.344  18.846  1.00  0.00     0.206 HD
ENDROOT
BRANCH   4   9
HETATM    9  N3  UNL     1      26.047  32.251  19.247  1.00  0.00    -0.174 N 
ATOM     10  H3  UNL     1      26.798  32.532  18.616  1.00  0.00     0.182 HD
BRANCH   9  11
HETATM   11  C3  UNL     1      25.919  32.861  20.533  1.00  0.00     0.394 C 
HETATM   12  O1  UNL     1      25.266  34.093  20.497  1.00  0.00    -0.289 OA
HETATM   13  C4  UNL     1      24.670  33.726  21.725  1.00  0.00     0.473 C 
HETATM   14  O2  UNL     1      24.860  32.389  21.318  1.00  0.00    -0.289 OA
BRANCH  13  15
HETATM   15  N4  UNL     1      23.280  34.104  21.838  1.00  0.00    -0.029 N 
ATOM     16  H43 UNL     1      22.962  34.560  20.982  1.00  0.00     0.280 HD
ATOM     17  H42 UNL     1      22.682  33.278  21.825  1.00  0.00     0.280 HD
ATOM     18  H41 UNL     1      23.074  34.684  22.651  1.00  0.00     0.280 HD
ENDBRANCH  13  15
ENDBRANCH   9  11
ENDBRANCH   4   9
BRANCH   1  19
HETATM   19  N1  UNL     1      22.402  29.919  17.125  1.00  0.00    -0.233 N 
ATOM     20  H12 UNL     1      21.519  29.508  17.429  1.00  0.00     0.174 HD
ATOM     21  H11 UNL     1      22.314  30.086  16.122  1.00  0.00     0.174 HD
ENDBRANCH   1  19
TORSDOF 4
ENDMDL
MODEL 5
REMARK VINA RESULT: -5.644876687      2.186      5.548
REMARK  4 active torsions:
REMARK  status: ('A' for Active; 'I' for Inactive)
REMARK    1  A    between atoms: N1_1  and  C1_4 
REMARK    2  A    between atoms: C2_7  and  N3_8 
REMARK    3  A    between atoms: N3_8  and  C3_10 
REMARK    4  A    between atoms: C4_12  and  N4_13 
ROOT
HETATM    1  C1  UNL     1      26.885  35.294  20.488  1.00  0.00     0.705 A 
HETATM    2  N2  UNL     1      26.508  34.029  20.248  1.00  0.00    -0.020 N 
ATOM      3  H2  UNL     1      26.119  33.395  20.946  1.00  0.00     0.203 HD
HETATM    4  C2  UNL     1      26.716  33.715  18.954  1.00  0.00     0.711 A 
HETATM    5  N5  UNL     1      27.239  34.838  18.400  1.00  0.00    -0.117 N 
ATOM      6  H5  UNL     1      27.513  34.939  17.422  1.00  0.00     0.206 HD
HETATM    7  N6  UNL     1      27.339  35.785  19.323  1.00  0.00    -0.118 N 
ATOM      8  H6  UNL     1      27.701  36.728  19.174  1.00  0.00     0.206 HD
ENDROOT
BRANCH   4   9
HETATM    9  N3  UNL     1      26.453  32.478  18.290  1.00  0.00    -0.174 N 
ATOM     10  H3  UNL     1      26.905  32.264  17.401  1.00  0.00     0.182 HD
BRANCH   9  11
HETATM   11  C3  UNL     1      25.550  31.542  18.883  1.00  0.00     0.394 C 
HETATM   12  O1  UNL     1      24.215  31.776  18.551  1.00  0.00    -0.289 OA
HETATM   13  C4  UNL     1      24.059  30.372  18.512  1.00  0.00     0.473 C 
HETATM   14  O2  UNL     1      25.438  30.314  18.220  1.00  0.00    -0.289 OA
BRANCH  13  15
HETATM   15  N4  UNL     1      23.220  29.906  17.432  1.00  0.00    -0.029 N 
ATOM     16  H43 UNL     1      23.649  30.112  16.530  1.00  0.00     0.280 HD
ATOM     17  H42 UNL     1      23.219  28.886  17.393  1.00  0.00     0.280 HD
ATOM     18  H41 UNL     1      22.266  30.264  17.466  1.00  0.00     0.280 HD
ENDBRANCH  13  15
ENDBRANCH   9  11
ENDBRANCH   4   9
BRANCH   1  19
HETATM   19  N1  UNL     1      26.825  35.931  21.633  1.00  0.00    -0.233 N 
ATOM     20  H12 UNL     1      26.786  35.510  22.560  1.00  0.00     0.174 HD
ATOM     21  H11 UNL     1      26.808  36.941  21.772  1.00  0.00     0.174 HD
ENDBRANCH   1  19
TORSDOF 4
ENDMDL
