MODEL 1
REMARK VINA RESULT: -5.946398815      0.000      0.000
REMARK  11 active torsions:
REMARK  status: ('A' for Active; 'I' for Inactive)
REMARK    1  A    between atoms: O1_2  and  C2_3 
REMARK    2  A    between atoms: C2_3  and  C3_5 
REMARK    3  A    between atoms: C3_5  and  C4_6 
REMARK    4  A    between atoms: C3_5  and  N2_13 
REMARK    5  A    between atoms: C4_6  and  N1_7 
REMARK    6  A    between atoms: C4_6  and  O3_11 
REMARK    7  A    between atoms: C6_15  and  C7_16 
REMARK    8  A    between atoms: C10_29  and  C11_30 
REMARK    9  A    between atoms: N9_32  and  O4_34 
REMARK   10  A    between atoms: C12_38  and  N11_39 
REMARK   11  A    between atoms: N12_42  and  C13_43 
ROOT
HETATM    1  N2  UNL     1      14.106  23.925  44.135  1.00  0.00    -0.237 N 
HETATM    2  C5  UNL     1      14.402  23.341  45.426  1.00  0.00     0.134 A 
HETATM    3  C6  UNL     1      15.115  22.223  45.636  1.00  0.00     0.046 A 
HETATM    4  C8  UNL     1      15.635  21.538  44.476  1.00  0.00     0.070 A 
HETATM    5  C9  UNL     1      15.395  22.032  43.237  1.00  0.00     0.163 A 
HETATM    6  N7  UNL     1      15.851  21.440  42.127  1.00  0.00    -0.323 N 
ATOM      7  H7  UNL     1      15.641  21.854  41.218  1.00  0.00     0.169 HD
HETATM    8  C10 UNL     1      16.587  20.299  42.184  1.00  0.00     0.152 A 
HETATM    9  N10 UNL     1      16.824  19.814  43.389  1.00  0.00    -0.325 N 
ATOM     10  H10 UNL     1      17.374  18.958  43.463  1.00  0.00     0.169 HD
HETATM   11  C12 UNL     1      16.378  20.387  44.535  1.00  0.00     0.115 A 
HETATM   12  N12 UNL     1      14.620  23.245  43.048  1.00  0.00    -0.059 N 
ENDROOT
BRANCH   1  13
HETATM   13  C3  UNL     1      13.365  25.138  44.184  1.00  0.00     0.165 C 
BRANCH  13  14
HETATM   14  C2  UNL     1      12.300  25.426  43.263  1.00  0.00     0.312 C 
HETATM   15  O2  UNL     1      11.463  24.493  42.976  1.00  0.00    -0.258 OA
BRANCH  14  16
HETATM   16  O1  UNL     1      12.032  26.612  42.597  1.00  0.00    -0.322 OA
HETATM   17  C1  UNL     1      11.966  26.712  41.177  1.00  0.00     0.213 C 
ENDBRANCH  14  16
ENDBRANCH  13  14
BRANCH  13  18
HETATM   18  C4  UNL     1      14.273  26.344  44.488  1.00  0.00     0.375 C 
BRANCH  18  19
HETATM   19  N1  UNL     1      14.922  26.876  43.339  1.00  0.00    -0.047 N 
ATOM     20  H13 UNL     1      14.239  27.253  42.681  1.00  0.00     0.277 HD
ATOM     21  H12 UNL     1      15.423  27.732  43.574  1.00  0.00     0.277 HD
ATOM     22  H11 UNL     1      15.541  26.213  42.873  1.00  0.00     0.277 HD
ENDBRANCH  18  19
BRANCH  18  23
HETATM   23  O3  UNL     1      13.473  27.325  45.064  1.00  0.00    -0.365 OA
ATOM     24  H3  UNL     1      13.448  28.057  44.459  1.00  0.00     0.212 HD
ENDBRANCH  18  23
ENDBRANCH  13  18
ENDBRANCH   1  13
BRANCH  12  25
HETATM   25  C13 UNL     1      14.457  23.716  41.725  1.00  0.00     0.749 A 
HETATM   26  N13 UNL     1      15.088  24.468  40.860  1.00  0.00    -0.068 N 
HETATM   27  O5  UNL     1      14.214  24.236  39.951  1.00  0.00    -0.127 OA
ATOM     28  H13 UNL     1      15.943  25.024  40.894  1.00  0.00     0.216 HD
HETATM   29  N14 UNL     1      13.556  23.486  40.765  1.00  0.00    -0.068 N 
ATOM     30  H14 UNL     1      12.697  22.939  40.703  1.00  0.00     0.216 HD
ENDBRANCH  12  25
BRANCH   3  31
HETATM   31  C7  UNL     1      15.325  21.764  47.003  1.00  0.00     0.149 A 
HETATM   32  N3  UNL     1      16.130  21.946  48.016  1.00  0.00    -0.268 N 
HETATM   33  N4  UNL     1      15.795  21.206  49.045  1.00  0.00    -0.227 N 
ATOM     34  H3  UNL     1      16.923  22.587  48.007  1.00  0.00     0.190 HD
HETATM   35  N5  UNL     1      14.729  20.492  48.733  1.00  0.00    -0.227 N 
ATOM     36  H4  UNL     1      16.280  21.184  49.942  1.00  0.00     0.210 HD
HETATM   37  N6  UNL     1      14.439  20.819  47.513  1.00  0.00    -0.268 N 
ATOM     38  H5  UNL     1      14.237  19.825  49.327  1.00  0.00     0.210 HD
ATOM     39  H6  UNL     1      13.655  20.430  46.988  1.00  0.00     0.190 HD
ENDBRANCH   3  31
BRANCH  11  40
HETATM   40  N11 UNL     1      16.678  19.818  45.604  1.00  0.00    -0.385 N 
ATOM     41 2H11 UNL     1      16.787  20.410  46.428  1.00  0.00     0.157 HD
ATOM     42 1H11 UNL     1      16.814  18.810  45.684  1.00  0.00     0.157 HD
ENDBRANCH  11  40
BRANCH   8  43
HETATM   43  C11 UNL     1      17.049  19.708  40.969  1.00  0.00     0.180 C 
HETATM   44  N8  UNL     1      18.418  19.220  40.867  1.00  0.00    -0.077 NA
HETATM   45  N9  UNL     1      16.373  19.558  39.930  1.00  0.00    -0.252 N 
ATOM     46  H9  UNL     1      16.911  19.113  39.186  1.00  0.00     0.195 HD
BRANCH  45  47
HETATM   47  O4  UNL     1      15.146  19.829  39.552  1.00  0.00    -0.288 OA
ATOM     48  H4  UNL     1      14.691  19.930  38.724  1.00  0.00     0.244 HD
ENDBRANCH  45  47
ENDBRANCH   8  43
TORSDOF 11
ENDMDL
MODEL 2
REMARK VINA RESULT: -5.946376368      2.523      5.479
REMARK  11 active torsions:
REMARK  status: ('A' for Active; 'I' for Inactive)
REMARK    1  A    between atoms: O1_2  and  C2_3 
REMARK    2  A    between atoms: C2_3  and  C3_5 
REMARK    3  A    between atoms: C3_5  and  C4_6 
REMARK    4  A    between atoms: C3_5  and  N2_13 
REMARK    5  A    between atoms: C4_6  and  N1_7 
REMARK    6  A    between atoms: C4_6  and  O3_11 
REMARK    7  A    between atoms: C6_15  and  C7_16 
REMARK    8  A    between atoms: C10_29  and  C11_30 
REMARK    9  A    between atoms: N9_32  and  O4_34 
REMARK   10  A    between atoms: C12_38  and  N11_39 
REMARK   11  A    between atoms: N12_42  and  C13_43 
ROOT
HETATM    1  N2  UNL     1      14.690  23.563  44.641  1.00  0.00    -0.237 N 
HETATM    2  C5  UNL     1      13.999  24.363  43.652  1.00  0.00     0.134 A 
HETATM    3  C6  UNL     1      13.960  24.116  42.333  1.00  0.00     0.046 A 
HETATM    4  C8  UNL     1      14.667  22.953  41.852  1.00  0.00     0.070 A 
HETATM    5  C9  UNL     1      15.335  22.160  42.726  1.00  0.00     0.163 A 
HETATM    6  N7  UNL     1      16.007  21.071  42.338  1.00  0.00    -0.323 N 
ATOM      7  H7  UNL     1      16.493  20.509  43.038  1.00  0.00     0.169 HD
HETATM    8  C10 UNL     1      16.057  20.697  41.033  1.00  0.00     0.152 A 
HETATM    9  N10 UNL     1      15.408  21.465  40.177  1.00  0.00    -0.325 N 
ATOM     10  H10 UNL     1      15.428  21.209  39.190  1.00  0.00     0.169 HD
HETATM   11  C12 UNL     1      14.716  22.576  40.534  1.00  0.00     0.115 A 
HETATM   12  N12 UNL     1      15.354  22.458  44.147  1.00  0.00    -0.059 N 
ENDROOT
BRANCH   1  13
HETATM   13  C3  UNL     1      14.544  24.015  45.982  1.00  0.00     0.165 C 
BRANCH  13  14
HETATM   14  C2  UNL     1      15.647  24.533  46.743  1.00  0.00     0.312 C 
HETATM   15  O2  UNL     1      15.401  25.178  47.827  1.00  0.00    -0.258 OA
BRANCH  14  16
HETATM   16  O1  UNL     1      17.003  24.445  46.466  1.00  0.00    -0.322 OA
HETATM   17  C1  UNL     1      17.661  25.281  45.519  1.00  0.00     0.213 C 
ENDBRANCH  14  16
ENDBRANCH  13  14
BRANCH  13  18
HETATM   18  C4  UNL     1      13.601  23.102  46.787  1.00  0.00     0.375 C 
BRANCH  18  19
HETATM   19  N1  UNL     1      14.227  22.469  47.897  1.00  0.00    -0.047 N 
ATOM     20  H13 UNL     1      13.540  21.969  48.461  1.00  0.00     0.277 HD
ATOM     21  H12 UNL     1      14.798  21.683  47.587  1.00  0.00     0.277 HD
ATOM     22  H11 UNL     1      14.775  23.104  48.477  1.00  0.00     0.277 HD
ENDBRANCH  18  19
BRANCH  18  23
HETATM   23  O3  UNL     1      12.550  23.893  47.237  1.00  0.00    -0.365 OA
ATOM     24  H3  UNL     1      12.849  24.795  47.216  1.00  0.00     0.212 HD
ENDBRANCH  18  23
ENDBRANCH  13  18
ENDBRANCH   1  13
BRANCH  12  25
HETATM   25  C13 UNL     1      16.035  21.554  44.993  1.00  0.00     0.749 A 
HETATM   26  N13 UNL     1      17.161  21.479  45.657  1.00  0.00    -0.068 N 
HETATM   27  O5  UNL     1      16.841  20.345  46.163  1.00  0.00    -0.127 OA
ATOM     28  H13 UNL     1      17.976  22.087  45.741  1.00  0.00     0.216 HD
HETATM   29  N14 UNL     1      15.720  20.371  45.529  1.00  0.00    -0.068 N 
ATOM     30  H14 UNL     1      14.918  19.743  45.463  1.00  0.00     0.216 HD
ENDBRANCH  12  25
BRANCH   3  31
HETATM   31  C7  UNL     1      13.216  25.021  41.465  1.00  0.00     0.149 A 
HETATM   32  N3  UNL     1      13.392  26.090  40.735  1.00  0.00    -0.268 N 
HETATM   33  N4  UNL     1      12.282  26.468  40.148  1.00  0.00    -0.227 N 
ATOM     34  H3  UNL     1      14.285  26.572  40.633  1.00  0.00     0.190 HD
HETATM   35  N5  UNL     1      11.313  25.637  40.484  1.00  0.00    -0.227 N 
ATOM     36  H4  UNL     1      12.182  27.275  39.532  1.00  0.00     0.210 HD
HETATM   37  N6  UNL     1      11.861  24.767  41.272  1.00  0.00    -0.268 N 
ATOM     38  H5  UNL     1      10.338  25.672  40.185  1.00  0.00     0.210 HD
ATOM     39  H6  UNL     1      11.360  23.988  41.700  1.00  0.00     0.190 HD
ENDBRANCH   3  31
BRANCH  11  40
HETATM   40  N11 UNL     1      14.151  23.208  39.619  1.00  0.00    -0.385 N 
ATOM     41 2H11 UNL     1      14.484  24.155  39.438  1.00  0.00     0.157 HD
ATOM     42 1H11 UNL     1      13.389  22.823  39.060  1.00  0.00     0.157 HD
ENDBRANCH  11  40
BRANCH   8  43
HETATM   43  C11 UNL     1      16.789  19.524  40.673  1.00  0.00     0.180 C 
HETATM   44  N8  UNL     1      16.365  18.716  39.537  1.00  0.00    -0.077 NA
HETATM   45  N9  UNL     1      17.805  19.093  41.257  1.00  0.00    -0.252 N 
ATOM     46  H9  UNL     1      18.160  18.240  40.825  1.00  0.00     0.195 HD
BRANCH  45  47
HETATM   47  O4  UNL     1      18.532  19.460  42.286  1.00  0.00    -0.288 OA
ATOM     48  H4  UNL     1      19.302  20.001  42.424  1.00  0.00     0.244 HD
ENDBRANCH  45  47
ENDBRANCH   8  43
TORSDOF 11
ENDMDL
MODEL 3
REMARK VINA RESULT: -5.943106212      2.179      5.204
REMARK  11 active torsions:
REMARK  status: ('A' for Active; 'I' for Inactive)
REMARK    1  A    between atoms: O1_2  and  C2_3 
REMARK    2  A    between atoms: C2_3  and  C3_5 
REMARK    3  A    between atoms: C3_5  and  C4_6 
REMARK    4  A    between atoms: C3_5  and  N2_13 
REMARK    5  A    between atoms: C4_6  and  N1_7 
REMARK    6  A    between atoms: C4_6  and  O3_11 
REMARK    7  A    between atoms: C6_15  and  C7_16 
REMARK    8  A    between atoms: C10_29  and  C11_30 
REMARK    9  A    between atoms: N9_32  and  O4_34 
REMARK   10  A    between atoms: C12_38  and  N11_39 
REMARK   11  A    between atoms: N12_42  and  C13_43 
ROOT
HETATM    1  N2  UNL     1      14.622  23.615  42.709  1.00  0.00    -0.237 N 
HETATM    2  C5  UNL     1      15.434  22.564  42.132  1.00  0.00     0.134 A 
HETATM    3  C6  UNL     1      15.872  21.471  42.776  1.00  0.00     0.046 A 
HETATM    4  C8  UNL     1      15.505  21.323  44.164  1.00  0.00     0.070 A 
HETATM    5  C9  UNL     1      14.745  22.271  44.766  1.00  0.00     0.163 A 
HETATM    6  N7  UNL     1      14.375  22.188  46.048  1.00  0.00    -0.323 N 
ATOM      7  H7  UNL     1      13.802  22.930  46.452  1.00  0.00     0.169 HD
HETATM    8  C10 UNL     1      14.746  21.137  46.826  1.00  0.00     0.152 A 
HETATM    9  N10 UNL     1      15.486  20.210  46.244  1.00  0.00    -0.325 N 
ATOM     10  H10 UNL     1      15.779  19.409  46.804  1.00  0.00     0.169 HD
HETATM   11  C12 UNL     1      15.880  20.261  44.947  1.00  0.00     0.115 A 
HETATM   12  N12 UNL     1      14.288  23.441  44.037  1.00  0.00    -0.059 N 
ENDROOT
BRANCH   1  13
HETATM   13  C3  UNL     1      14.253  24.649  41.804  1.00  0.00     0.165 C 
BRANCH  13  14
HETATM   14  C2  UNL     1      13.445  24.401  40.643  1.00  0.00     0.312 C 
HETATM   15  O2  UNL     1      12.404  23.655  40.762  1.00  0.00    -0.258 OA
BRANCH  14  16
HETATM   16  O1  UNL     1      13.631  24.859  39.347  1.00  0.00    -0.322 OA
HETATM   17  C1  UNL     1      12.673  25.655  38.656  1.00  0.00     0.213 C 
ENDBRANCH  14  16
ENDBRANCH  13  14
BRANCH  13  18
HETATM   18  C4  UNL     1      15.415  25.629  41.560  1.00  0.00     0.375 C 
BRANCH  18  19
HETATM   19  N1  UNL     1      16.247  25.269  40.463  1.00  0.00    -0.047 N 
ATOM     20  H13 UNL     1      17.178  25.671  40.570  1.00  0.00     0.277 HD
ATOM     21  H12 UNL     1      16.482  24.278  40.500  1.00  0.00     0.277 HD
ATOM     22  H11 UNL     1      15.854  25.511  39.553  1.00  0.00     0.277 HD
ENDBRANCH  18  19
BRANCH  18  23
HETATM   23  O3  UNL     1      14.855  26.880  41.326  1.00  0.00    -0.365 OA
ATOM     24  H3  UNL     1      14.559  27.215  42.165  1.00  0.00     0.212 HD
ENDBRANCH  18  23
ENDBRANCH  13  18
ENDBRANCH   1  13
BRANCH  12  25
HETATM   25  C13 UNL     1      13.461  24.356  44.727  1.00  0.00     0.749 A 
HETATM   26  N13 UNL     1      13.572  25.468  45.410  1.00  0.00    -0.068 N 
HETATM   27  O5  UNL     1      12.302  25.561  45.554  1.00  0.00    -0.127 OA
ATOM     28  H13 UNL     1      14.362  26.040  45.710  1.00  0.00     0.216 HD
HETATM   29  N14 UNL     1      12.139  24.469  44.889  1.00  0.00    -0.068 N 
ATOM     30  H14 UNL     1      11.331  23.917  44.603  1.00  0.00     0.216 HD
ENDBRANCH  12  25
BRANCH   3  31
HETATM   31  C7  UNL     1      16.685  20.501  42.051  1.00  0.00     0.149 A 
HETATM   32  N3  UNL     1      17.842  19.899  42.124  1.00  0.00    -0.268 N 
HETATM   33  N4  UNL     1      18.031  19.082  41.116  1.00  0.00    -0.227 N 
ATOM     34  H3  UNL     1      18.516  20.047  42.874  1.00  0.00     0.190 HD
HETATM   35  N5  UNL     1      16.975  19.121  40.326  1.00  0.00    -0.227 N 
ATOM     36  H4  UNL     1      18.861  18.507  40.967  1.00  0.00     0.210 HD
HETATM   37  N6  UNL     1      16.163  19.968  40.876  1.00  0.00    -0.268 N 
ATOM     38  H5  UNL     1      16.829  18.596  39.464  1.00  0.00     0.210 HD
ATOM     39  H6  UNL     1      15.249  20.214  40.493  1.00  0.00     0.190 HD
ENDBRANCH   3  31
BRANCH  11  40
HETATM   40  N11 UNL     1      16.579  19.315  44.532  1.00  0.00    -0.385 N 
ATOM     41 2H11 UNL     1      16.182  18.740  43.789  1.00  0.00     0.157 HD
ATOM     42 1H11 UNL     1      17.507  19.101  44.897  1.00  0.00     0.157 HD
ENDBRANCH  11  40
BRANCH   8  43
HETATM   43  C11 UNL     1      14.323  21.097  48.189  1.00  0.00     0.180 C 
HETATM   44  N8  UNL     1      13.096  21.770  48.595  1.00  0.00    -0.077 NA
HETATM   45  N9  UNL     1      14.922  20.518  49.120  1.00  0.00    -0.252 N 
ATOM     46  H9  UNL     1      14.435  20.623  50.010  1.00  0.00     0.195 HD
BRANCH  45  47
HETATM   47  O4  UNL     1      16.019  19.809  49.243  1.00  0.00    -0.288 OA
ATOM     48  H4  UNL     1      16.276  19.018  49.702  1.00  0.00     0.244 HD
ENDBRANCH  45  47
ENDBRANCH   8  43
TORSDOF 11
ENDMDL
MODEL 4
REMARK VINA RESULT: -5.939761595      2.767      6.388
REMARK  11 active torsions:
REMARK  status: ('A' for Active; 'I' for Inactive)
REMARK    1  A    between atoms: O1_2  and  C2_3 
REMARK    2  A    between atoms: C2_3  and  C3_5 
REMARK    3  A    between atoms: C3_5  and  C4_6 
REMARK    4  A    between atoms: C3_5  and  N2_13 
REMARK    5  A    between atoms: C4_6  and  N1_7 
REMARK    6  A    between atoms: C4_6  and  O3_11 
REMARK    7  A    between atoms: C6_15  and  C7_16 
REMARK    8  A    between atoms: C10_29  and  C11_30 
REMARK    9  A    between atoms: N9_32  and  O4_34 
REMARK   10  A    between atoms: C12_38  and  N11_39 
REMARK   11  A    between atoms: N12_42  and  C13_43 
ROOT
HETATM    1  N2  UNL     1      15.329  22.469  44.932  1.00  0.00    -0.237 N 
HETATM    2  C5  UNL     1      15.742  21.491  43.948  1.00  0.00     0.134 A 
HETATM    3  C6  UNL     1      16.183  21.764  42.709  1.00  0.00     0.046 A 
HETATM    4  C8  UNL     1      16.254  23.152  42.319  1.00  0.00     0.070 A 
HETATM    5  C9  UNL     1      15.884  24.119  43.193  1.00  0.00     0.163 A 
HETATM    6  N7  UNL     1      15.928  25.420  42.887  1.00  0.00    -0.323 N 
ATOM      7  H7  UNL     1      15.638  26.107  43.583  1.00  0.00     0.169 HD
HETATM    8  C10 UNL     1      16.353  25.847  41.668  1.00  0.00     0.152 A 
HETATM    9  N10 UNL     1      16.716  24.908  40.813  1.00  0.00    -0.325 N 
ATOM     10  H10 UNL     1      17.039  25.199  39.890  1.00  0.00     0.169 HD
HETATM   11  C12 UNL     1      16.683  23.580  41.089  1.00  0.00     0.115 A 
HETATM   12  N12 UNL     1      15.412  23.786  44.526  1.00  0.00    -0.059 N 
ENDROOT
BRANCH   1  13
HETATM   13  C3  UNL     1      14.941  21.925  46.188  1.00  0.00     0.165 C 
BRANCH  13  14
HETATM   14  C2  UNL     1      15.894  21.613  47.217  1.00  0.00     0.312 C 
HETATM   15  O2  UNL     1      16.355  22.569  47.943  1.00  0.00    -0.258 OA
BRANCH  14  16
HETATM   16  O1  UNL     1      16.425  20.378  47.555  1.00  0.00    -0.322 OA
HETATM   17  C1  UNL     1      17.770  20.002  47.272  1.00  0.00     0.213 C 
ENDBRANCH  14  16
ENDBRANCH  13  14
BRANCH  13  18
HETATM   18  C4  UNL     1      13.824  20.878  46.031  1.00  0.00     0.375 C 
BRANCH  18  19
HETATM   19  N1  UNL     1      13.574  20.125  47.212  1.00  0.00    -0.047 N 
ATOM     20  H13 UNL     1      12.734  19.556  47.105  1.00  0.00     0.277 HD
ATOM     21  H12 UNL     1      14.268  19.386  47.321  1.00  0.00     0.277 HD
ATOM     22  H11 UNL     1      13.518  20.693  48.057  1.00  0.00     0.277 HD
ENDBRANCH  18  19
BRANCH  18  23
HETATM   23  O3  UNL     1      12.670  21.561  45.663  1.00  0.00    -0.365 OA
ATOM     24  H3  UNL     1      12.567  21.452  44.725  1.00  0.00     0.212 HD
ENDBRANCH  18  23
ENDBRANCH  13  18
ENDBRANCH   1  13
BRANCH  12  25
HETATM   25  C13 UNL     1      15.091  24.858  45.390  1.00  0.00     0.749 A 
HETATM   26  N13 UNL     1      14.098  25.680  45.617  1.00  0.00    -0.068 N 
HETATM   27  O5  UNL     1      14.705  26.213  46.612  1.00  0.00    -0.127 OA
ATOM     28  H13 UNL     1      13.192  25.836  45.175  1.00  0.00     0.216 HD
HETATM   29  N14 UNL     1      15.709  25.427  46.429  1.00  0.00    -0.068 N 
ATOM     30  H14 UNL     1      16.610  25.293  46.890  1.00  0.00     0.216 HD
ENDBRANCH  12  25
BRANCH   3  31
HETATM   31  C7  UNL     1      16.561  20.661  41.834  1.00  0.00     0.149 A 
HETATM   32  N3  UNL     1      16.182  20.072  40.732  1.00  0.00    -0.268 N 
HETATM   33  N4  UNL     1      16.968  19.070  40.418  1.00  0.00    -0.227 N 
ATOM     34  H3  UNL     1      15.373  20.358  40.181  1.00  0.00     0.190 HD
HETATM   35  N5  UNL     1      17.916  18.964  41.330  1.00  0.00    -0.227 N 
ATOM     36  H4  UNL     1      16.864  18.469  39.601  1.00  0.00     0.210 HD
HETATM   37  N6  UNL     1      17.682  19.912  42.183  1.00  0.00    -0.268 N 
ATOM     38  H5  UNL     1      18.673  18.282  41.359  1.00  0.00     0.210 HD
ATOM     39  H6  UNL     1      18.251  20.088  43.011  1.00  0.00     0.190 HD
ENDBRANCH   3  31
BRANCH  11  40
HETATM   40  N11 UNL     1      17.055  22.807  40.184  1.00  0.00    -0.385 N 
ATOM     41 2H11 UNL     1      17.247  21.841  40.452  1.00  0.00     0.157 HD
ATOM     42 1H11 UNL     1      17.170  23.095  39.212  1.00  0.00     0.157 HD
ENDBRANCH  11  40
BRANCH   8  43
HETATM   43  C11 UNL     1      16.382  27.247  41.393  1.00  0.00     0.180 C 
HETATM   44  N8  UNL     1      17.474  27.819  40.615  1.00  0.00    -0.077 NA
HETATM   45  N9  UNL     1      15.530  28.080  41.768  1.00  0.00    -0.252 N 
ATOM     46  H9  UNL     1      15.756  29.024  41.455  1.00  0.00     0.195 HD
BRANCH  45  47
HETATM   47  O4  UNL     1      14.417  28.048  42.463  1.00  0.00    -0.288 OA
ATOM     48  H4  UNL     1      13.926  28.661  42.997  1.00  0.00     0.244 HD
ENDBRANCH  45  47
ENDBRANCH   8  43
TORSDOF 11
ENDMDL
MODEL 5
REMARK VINA RESULT: -5.921098250      2.571      5.199
REMARK  11 active torsions:
REMARK  status: ('A' for Active; 'I' for Inactive)
REMARK    1  A    between atoms: O1_2  and  C2_3 
REMARK    2  A    between atoms: C2_3  and  C3_5 
REMARK    3  A    between atoms: C3_5  and  C4_6 
REMARK    4  A    between atoms: C3_5  and  N2_13 
REMARK    5  A    between atoms: C4_6  and  N1_7 
REMARK    6  A    between atoms: C4_6  and  O3_11 
REMARK    7  A    between atoms: C6_15  and  C7_16 
REMARK    8  A    between atoms: C10_29  and  C11_30 
REMARK    9  A    between atoms: N9_32  and  O4_34 
REMARK   10  A    between atoms: C12_38  and  N11_39 
REMARK   11  A    between atoms: N12_42  and  C13_43 
ROOT
HETATM    1  N2  UNL     1      14.641  23.564  44.636  1.00  0.00    -0.237 N 
HETATM    2  C5  UNL     1      13.971  24.365  43.633  1.00  0.00     0.134 A 
HETATM    3  C6  UNL     1      13.956  24.117  42.314  1.00  0.00     0.046 A 
HETATM    4  C8  UNL     1      14.668  22.950  41.848  1.00  0.00     0.070 A 
HETATM    5  C9  UNL     1      15.316  22.157  42.735  1.00  0.00     0.163 A 
HETATM    6  N7  UNL     1      15.991  21.064  42.361  1.00  0.00    -0.323 N 
ATOM      7  H7  UNL     1      16.462  20.501  43.070  1.00  0.00     0.169 HD
HETATM    8  C10 UNL     1      16.064  20.688  41.057  1.00  0.00     0.152 A 
HETATM    9  N10 UNL     1      15.434  21.458  40.189  1.00  0.00    -0.325 N 
ATOM     10  H10 UNL     1      15.471  21.200  39.202  1.00  0.00     0.169 HD
HETATM   11  C12 UNL     1      14.740  22.572  40.532  1.00  0.00     0.115 A 
HETATM   12  N12 UNL     1      15.310  22.456  44.156  1.00  0.00    -0.059 N 
ENDROOT
BRANCH   1  13
HETATM   13  C3  UNL     1      14.471  24.018  45.974  1.00  0.00     0.165 C 
BRANCH  13  14
HETATM   14  C2  UNL     1      13.473  23.470  46.849  1.00  0.00     0.312 C 
HETATM   15  O2  UNL     1      13.779  22.456  47.578  1.00  0.00    -0.258 OA
BRANCH  14  16
HETATM   16  O1  UNL     1      12.162  23.884  47.029  1.00  0.00    -0.322 OA
HETATM   17  C1  UNL     1      11.189  23.869  45.988  1.00  0.00     0.213 C 
ENDBRANCH  14  16
ENDBRANCH  13  14
BRANCH  13  18
HETATM   18  C4  UNL     1      14.624  25.546  46.077  1.00  0.00     0.375 C 
BRANCH  18  19
HETATM   19  N1  UNL     1      14.004  26.107  47.229  1.00  0.00    -0.047 N 
ATOM     20  H13 UNL     1      13.236  26.722  46.960  1.00  0.00     0.277 HD
ATOM     21  H12 UNL     1      13.483  25.395  47.739  1.00  0.00     0.277 HD
ATOM     22  H11 UNL     1      14.653  26.592  47.849  1.00  0.00     0.277 HD
ENDBRANCH  18  19
BRANCH  18  23
HETATM   23  O3  UNL     1      15.987  25.821  46.103  1.00  0.00    -0.365 OA
ATOM     24  H3  UNL     1      16.144  26.385  46.852  1.00  0.00     0.212 HD
ENDBRANCH  18  23
ENDBRANCH  13  18
ENDBRANCH   1  13
BRANCH  12  25
HETATM   25  C13 UNL     1      15.971  21.550  45.015  1.00  0.00     0.749 A 
HETATM   26  N13 UNL     1      17.174  21.331  45.484  1.00  0.00    -0.068 N 
HETATM   27  O5  UNL     1      16.763  20.366  46.219  1.00  0.00    -0.127 OA
ATOM     28  H13 UNL     1      18.085  21.762  45.325  1.00  0.00     0.216 HD
HETATM   29  N14 UNL     1      15.561  20.540  45.789  1.00  0.00    -0.068 N 
ATOM     30  H14 UNL     1      14.663  20.090  45.966  1.00  0.00     0.216 HD
ENDBRANCH  12  25
BRANCH   3  31
HETATM   31  C7  UNL     1      13.232  25.024  41.432  1.00  0.00     0.149 A 
HETATM   32  N3  UNL     1      13.428  26.087  40.697  1.00  0.00    -0.268 N 
HETATM   33  N4  UNL     1      12.328  26.472  40.094  1.00  0.00    -0.227 N 
ATOM     34  H3  UNL     1      14.326  26.560  40.604  1.00  0.00     0.190 HD
HETATM   35  N5  UNL     1      11.347  25.653  40.422  1.00  0.00    -0.227 N 
ATOM     36  H4  UNL     1      12.245  27.276  39.472  1.00  0.00     0.210 HD
HETATM   37  N6  UNL     1      11.877  24.782  41.223  1.00  0.00    -0.268 N 
ATOM     38  H5  UNL     1      10.377  25.695  40.112  1.00  0.00     0.210 HD
ATOM     39  H6  UNL     1      11.363  24.010  41.649  1.00  0.00     0.190 HD
ENDBRANCH   3  31
BRANCH  11  40
HETATM   40  N11 UNL     1      14.194  23.205  39.605  1.00  0.00    -0.385 N 
ATOM     41 2H11 UNL     1      14.151  24.219  39.701  1.00  0.00     0.157 HD
ATOM     42 1H11 UNL     1      13.799  22.758  38.777  1.00  0.00     0.157 HD
ENDBRANCH  11  40
BRANCH   8  43
HETATM   43  C11 UNL     1      16.798  19.513  40.712  1.00  0.00     0.180 C 
HETATM   44  N8  UNL     1      16.375  18.689  39.587  1.00  0.00    -0.077 NA
HETATM   45  N9  UNL     1      17.814  19.090  41.302  1.00  0.00    -0.252 N 
ATOM     46  H9  UNL     1      18.171  18.233  40.881  1.00  0.00     0.195 HD
BRANCH  45  47
HETATM   47  O4  UNL     1      18.540  19.471  42.327  1.00  0.00    -0.288 OA
ATOM     48  H4  UNL     1      19.133  19.052  42.940  1.00  0.00     0.244 HD
ENDBRANCH  45  47
ENDBRANCH   8  43
TORSDOF 11
ENDMDL
