MODEL 1
REMARK VINA RESULT: -5.505219826      0.000      0.000
REMARK  7 active torsions:
REMARK  status: ('A' for Active; 'I' for Inactive)
REMARK    1  A    between atoms: C2_2  and  N1_3 
REMARK    2  A    between atoms: N1_3  and  C3_5 
REMARK    3  A    between atoms: C3_5  and  C4_6 
REMARK    4  A    between atoms: C4_6  and  N2_7 
REMARK    5  A    between atoms: N2_7  and  C5_8 
REMARK    6  A    between atoms: N2_7  and  C8_11 
REMARK    7  A    between atoms: C5_8  and  C6_9 
ROOT
HETATM    1  N2  UNL     1      65.949  11.564  25.874  1.00  0.00    -0.366 N 
ENDROOT
BRANCH   1   2
HETATM    2  C4  UNL     1      65.016  12.231  26.728  1.00  0.00     0.143 C 
BRANCH   2   3
HETATM    3  C3  UNL     1      63.844  11.377  27.135  1.00  0.00     0.139 C 
BRANCH   3   4
HETATM    4  N1  UNL     1      62.658  12.010  26.610  1.00  0.00    -0.398 N 
ATOM      5  H1  UNL     1      61.945  11.429  26.169  1.00  0.00     0.158 HD
BRANCH   4   6
HETATM    6  C2  UNL     1      62.450  13.410  26.686  1.00  0.00     0.072 C 
HETATM    7  C1  UNL     1      61.727  13.892  27.681  1.00  0.00     0.029 C 
ENDBRANCH   4   6
ENDBRANCH   3   4
ENDBRANCH   2   3
ENDBRANCH   1   2
BRANCH   1   8
HETATM    8  C5  UNL     1      66.630  10.371  26.313  1.00  0.00     0.124 C 
BRANCH   8   9
HETATM    9  C6  UNL     1      67.724  10.706  27.330  1.00  0.00     0.015 C 
HETATM   10  C7  UNL     1      69.041  10.382  26.674  1.00  0.00     0.006 C 
ENDBRANCH   8   9
ENDBRANCH   1   8
BRANCH   1  11
HETATM   11  C8  UNL     1      66.231  12.069  24.576  1.00  0.00     0.102 A 
HETATM   12  C9  UNL     1      67.459  12.477  24.069  1.00  0.00     0.050 A 
HETATM   13  C10 UNL     1      67.236  12.879  22.773  1.00  0.00     0.021 A 
HETATM   14  C11 UNL     1      65.882  12.701  22.542  1.00  0.00     0.090 A 
HETATM   15  N3  UNL     1      65.278  12.214  23.626  1.00  0.00    -0.352 N 
ATOM     16  H3  UNL     1      64.287  11.994  23.722  1.00  0.00     0.166 HD
ENDBRANCH   1  11
TORSDOF 7
ENDMDL
MODEL 2
REMARK VINA RESULT: -5.380156702      2.661      4.392
REMARK  7 active torsions:
REMARK  status: ('A' for Active; 'I' for Inactive)
REMARK    1  A    between atoms: C2_2  and  N1_3 
REMARK    2  A    between atoms: N1_3  and  C3_5 
REMARK    3  A    between atoms: C3_5  and  C4_6 
REMARK    4  A    between atoms: C4_6  and  N2_7 
REMARK    5  A    between atoms: N2_7  and  C5_8 
REMARK    6  A    between atoms: N2_7  and  C8_11 
REMARK    7  A    between atoms: C5_8  and  C6_9 
ROOT
HETATM    1  N2  UNL     1      64.763  11.009  26.974  1.00  0.00    -0.366 N 
ENDROOT
BRANCH   1   2
HETATM    2  C4  UNL     1      63.832  10.354  26.108  1.00  0.00     0.143 C 
BRANCH   2   3
HETATM    3  C3  UNL     1      63.894   8.851  26.170  1.00  0.00     0.139 C 
BRANCH   3   4
HETATM    4  N1  UNL     1      62.536   8.368  26.093  1.00  0.00    -0.398 N 
ATOM      5  H1  UNL     1      61.788   8.938  26.489  1.00  0.00     0.158 HD
BRANCH   4   6
HETATM    6  C2  UNL     1      62.206   7.131  25.484  1.00  0.00     0.072 C 
HETATM    7  C1  UNL     1      61.151   7.073  24.691  1.00  0.00     0.029 C 
ENDBRANCH   4   6
ENDBRANCH   3   4
ENDBRANCH   2   3
ENDBRANCH   1   2
BRANCH   1   8
HETATM    8  C5  UNL     1      64.305  11.768  28.111  1.00  0.00     0.124 C 
BRANCH   8   9
HETATM    9  C6  UNL     1      64.907  13.176  28.109  1.00  0.00     0.015 C 
HETATM   10  C7  UNL     1      63.792  14.126  27.759  1.00  0.00     0.006 C 
ENDBRANCH   8   9
ENDBRANCH   1   8
BRANCH   1  11
HETATM   11  C8  UNL     1      66.160  10.930  26.726  1.00  0.00     0.102 A 
HETATM   12  C9  UNL     1      66.870  11.486  25.670  1.00  0.00     0.050 A 
HETATM   13  C10 UNL     1      68.189  11.148  25.860  1.00  0.00     0.021 A 
HETATM   14  C11 UNL     1      68.230  10.399  27.025  1.00  0.00     0.090 A 
HETATM   15  N3  UNL     1      67.010  10.268  27.545  1.00  0.00    -0.352 N 
ATOM     16  H3  UNL     1      66.764   9.765  28.397  1.00  0.00     0.166 HD
ENDBRANCH   1  11
TORSDOF 7
ENDMDL
MODEL 3
REMARK VINA RESULT: -5.315014837      1.306      2.058
REMARK  7 active torsions:
REMARK  status: ('A' for Active; 'I' for Inactive)
REMARK    1  A    between atoms: C2_2  and  N1_3 
REMARK    2  A    between atoms: N1_3  and  C3_5 
REMARK    3  A    between atoms: C3_5  and  C4_6 
REMARK    4  A    between atoms: C4_6  and  N2_7 
REMARK    5  A    between atoms: N2_7  and  C5_8 
REMARK    6  A    between atoms: N2_7  and  C8_11 
REMARK    7  A    between atoms: C5_8  and  C6_9 
ROOT
HETATM    1  N2  UNL     1      65.966  11.536  25.759  1.00  0.00    -0.366 N 
ENDROOT
BRANCH   1   2
HETATM    2  C4  UNL     1      64.911  12.085  26.551  1.00  0.00     0.143 C 
BRANCH   2   3
HETATM    3  C3  UNL     1      63.903  11.068  27.017  1.00  0.00     0.139 C 
BRANCH   3   4
HETATM    4  N1  UNL     1      63.159  10.646  25.855  1.00  0.00    -0.398 N 
ATOM      5  H1  UNL     1      62.446  11.270  25.474  1.00  0.00     0.158 HD
BRANCH   4   6
HETATM    6  C2  UNL     1      63.383   9.397  25.224  1.00  0.00     0.072 C 
HETATM    7  C1  UNL     1      63.499   8.316  25.975  1.00  0.00     0.029 C 
ENDBRANCH   4   6
ENDBRANCH   3   4
ENDBRANCH   2   3
ENDBRANCH   1   2
BRANCH   1   8
HETATM    8  C5  UNL     1      66.753  10.428  26.244  1.00  0.00     0.124 C 
BRANCH   8   9
HETATM    9  C6  UNL     1      67.811  10.903  27.243  1.00  0.00     0.015 C 
HETATM   10  C7  UNL     1      69.146  10.449  26.712  1.00  0.00     0.006 C 
ENDBRANCH   8   9
ENDBRANCH   1   8
BRANCH   1  11
HETATM   11  C8  UNL     1      66.267  12.075  24.479  1.00  0.00     0.102 A 
HETATM   12  C9  UNL     1      67.503  12.488  23.999  1.00  0.00     0.050 A 
HETATM   13  C10 UNL     1      67.299  12.928  22.712  1.00  0.00     0.021 A 
HETATM   14  C11 UNL     1      65.947  12.765  22.459  1.00  0.00     0.090 A 
HETATM   15  N3  UNL     1      65.327  12.252  23.522  1.00  0.00    -0.352 N 
ATOM     16  H3  UNL     1      64.333  12.035  23.599  1.00  0.00     0.166 HD
ENDBRANCH   1  11
TORSDOF 7
ENDMDL
MODEL 4
REMARK VINA RESULT: -5.306210669      2.668      5.542
REMARK  7 active torsions:
REMARK  status: ('A' for Active; 'I' for Inactive)
REMARK    1  A    between atoms: C2_2  and  N1_3 
REMARK    2  A    between atoms: N1_3  and  C3_5 
REMARK    3  A    between atoms: C3_5  and  C4_6 
REMARK    4  A    between atoms: C4_6  and  N2_7 
REMARK    5  A    between atoms: N2_7  and  C5_8 
REMARK    6  A    between atoms: N2_7  and  C8_11 
REMARK    7  A    between atoms: C5_8  and  C6_9 
ROOT
HETATM    1  N2  UNL     1      64.140  10.150  26.295  1.00  0.00    -0.366 N 
ENDROOT
BRANCH   1   2
HETATM    2  C4  UNL     1      65.566  10.113  26.197  1.00  0.00     0.143 C 
BRANCH   2   3
HETATM    3  C3  UNL     1      66.198   8.955  26.922  1.00  0.00     0.139 C 
BRANCH   3   4
HETATM    4  N1  UNL     1      67.312   9.483  27.673  1.00  0.00    -0.398 N 
ATOM      5  H1  UNL     1      67.602   9.004  28.526  1.00  0.00     0.158 HD
BRANCH   4   6
HETATM    6  C2  UNL     1      68.017  10.644  27.265  1.00  0.00     0.072 C 
HETATM    7  C1  UNL     1      69.134  10.500  26.576  1.00  0.00     0.029 C 
ENDBRANCH   4   6
ENDBRANCH   3   4
ENDBRANCH   2   3
ENDBRANCH   1   2
BRANCH   1   8
HETATM    8  C5  UNL     1      63.475  11.220  26.997  1.00  0.00     0.124 C 
BRANCH   8   9
HETATM    9  C6  UNL     1      63.174  12.389  26.056  1.00  0.00     0.015 C 
HETATM   10  C7  UNL     1      62.281  13.338  26.812  1.00  0.00     0.006 C 
ENDBRANCH   8   9
ENDBRANCH   1   8
BRANCH   1  11
HETATM   11  C8  UNL     1      63.348   9.127  25.707  1.00  0.00     0.102 A 
HETATM   12  C9  UNL     1      62.814   8.003  26.325  1.00  0.00     0.050 A 
HETATM   13  C10 UNL     1      62.121   7.313  25.358  1.00  0.00     0.021 A 
HETATM   14  C11 UNL     1      62.260   8.045  24.189  1.00  0.00     0.090 A 
HETATM   15  N3  UNL     1      62.998   9.135  24.400  1.00  0.00    -0.352 N 
ATOM     16  H3  UNL     1      63.251   9.840  23.708  1.00  0.00     0.166 HD
ENDBRANCH   1  11
TORSDOF 7
ENDMDL
MODEL 5
REMARK VINA RESULT: -5.295551031      2.834      4.377
REMARK  7 active torsions:
REMARK  status: ('A' for Active; 'I' for Inactive)
REMARK    1  A    between atoms: C2_2  and  N1_3 
REMARK    2  A    between atoms: N1_3  and  C3_5 
REMARK    3  A    between atoms: C3_5  and  C4_6 
REMARK    4  A    between atoms: C4_6  and  N2_7 
REMARK    5  A    between atoms: N2_7  and  C5_8 
REMARK    6  A    between atoms: N2_7  and  C8_11 
REMARK    7  A    between atoms: C5_8  and  C6_9 
ROOT
HETATM    1  N2  UNL     1      64.386  10.589  26.038  1.00  0.00    -0.366 N 
ENDROOT
BRANCH   1   2
HETATM    2  C4  UNL     1      63.735   9.449  25.471  1.00  0.00     0.143 C 
BRANCH   2   3
HETATM    3  C3  UNL     1      63.118   9.707  24.121  1.00  0.00     0.139 C 
BRANCH   3   4
HETATM    4  N1  UNL     1      61.963   8.849  24.013  1.00  0.00    -0.398 N 
ATOM      5  H1  UNL     1      61.166   9.163  23.460  1.00  0.00     0.158 HD
BRANCH   4   6
HETATM    6  C2  UNL     1      61.899   7.583  24.649  1.00  0.00     0.072 C 
HETATM    7  C1  UNL     1      60.909   6.765  24.339  1.00  0.00     0.029 C 
ENDBRANCH   4   6
ENDBRANCH   3   4
ENDBRANCH   2   3
ENDBRANCH   1   2
BRANCH   1   8
HETATM    8  C5  UNL     1      63.619  11.700  26.546  1.00  0.00     0.124 C 
BRANCH   8   9
HETATM    9  C6  UNL     1      63.964  11.979  28.011  1.00  0.00     0.015 C 
HETATM   10  C7  UNL     1      64.337  13.436  28.100  1.00  0.00     0.006 C 
ENDBRANCH   8   9
ENDBRANCH   1   8
BRANCH   1  11
HETATM   11  C8  UNL     1      65.804  10.653  26.106  1.00  0.00     0.102 A 
HETATM   12  C9  UNL     1      66.666   9.769  26.744  1.00  0.00     0.050 A 
HETATM   13  C10 UNL     1      67.940  10.240  26.531  1.00  0.00     0.021 A 
HETATM   14  C11 UNL     1      67.804  11.391  25.773  1.00  0.00     0.090 A 
HETATM   15  N3  UNL     1      66.519  11.639  25.518  1.00  0.00    -0.352 N 
ATOM     16  H3  UNL     1      66.147  12.423  24.983  1.00  0.00     0.166 HD
ENDBRANCH   1  11
TORSDOF 7
ENDMDL
