MODEL 1
REMARK VINA RESULT: -6.779715690      0.000      0.000
REMARK  6 active torsions:
REMARK  status: ('A' for Active; 'I' for Inactive)
REMARK    1  A    between atoms: C1_1  and  C2_2 
REMARK    2  A    between atoms: C1_1  and  C6_12 
REMARK    3  A    between atoms: C2_2  and  N1_3 
REMARK    4  A    between atoms: N1_3  and  C3_5 
REMARK    5  A    between atoms: C6_12  and  N4_13 
REMARK    6  A    between atoms: N4_13  and  C7_16 
ROOT
HETATM    1  C1  UNL     1       7.638   3.885  -0.421  1.00  0.00     0.047 C 
ENDROOT
BRANCH   1   2
HETATM    2  C2  UNL     1       8.379   2.698  -1.021  1.00  0.00     0.124 C 
BRANCH   2   3
HETATM    3  N1  UNL     1       7.440   1.647  -1.358  1.00  0.00    -0.362 N 
ATOM      4  H1  UNL     1       7.366   0.793  -0.806  1.00  0.00     0.162 HD
BRANCH   3   5
HETATM    5  C3  UNL     1       6.614   1.875  -2.520  1.00  0.00     0.171 C 
HETATM    6  N2  UNL     1       5.341   1.953  -2.571  1.00  0.00    -0.361 N 
HETATM    7  C4  UNL     1       4.826   2.189  -3.889  1.00  0.00     0.142 C 
ATOM      8  H2  UNL     1       4.745   1.855  -1.749  1.00  0.00     0.162 HD
HETATM    9  C5  UNL     1       6.065   2.606  -4.650  1.00  0.00     0.142 C 
HETATM   10  N3  UNL     1       7.124   2.055  -3.827  1.00  0.00    -0.361 N 
ATOM     11  H3  UNL     1       8.071   1.834  -4.136  1.00  0.00     0.162 HD
ENDBRANCH   3   5
ENDBRANCH   2   3
ENDBRANCH   1   2
BRANCH   1  12
HETATM   12  C6  UNL     1       7.770   5.102  -1.342  1.00  0.00     0.238 C 
BRANCH  12  13
HETATM   13  N4  UNL     1       7.209   6.243  -0.635  1.00  0.00    -0.030 N 
ATOM     14  H42 UNL     1       7.852   6.591   0.077  1.00  0.00     0.281 HD
ATOM     15  H41 UNL     1       7.171   7.068  -1.233  1.00  0.00     0.281 HD
BRANCH  13  16
HETATM   16  C7  UNL     1       5.915   5.942  -0.072  1.00  0.00     0.493 C 
HETATM   17  N5  UNL     1       5.655   6.958   0.947  1.00  0.00    -0.016 N 
HETATM   18  C8  UNL     1       5.446   8.125   0.077  1.00  0.00     0.366 C 
ATOM     19  H52 UNL     1       4.905   6.750   1.606  1.00  0.00     0.282 HD
ATOM     20  H51 UNL     1       6.367   7.060   1.670  1.00  0.00     0.282 HD
HETATM   21  N6  UNL     1       4.528   7.560  -0.901  1.00  0.00    -0.117 NA
HETATM   22  N7  UNL     1       4.904   6.227  -1.063  1.00  0.00    -0.086 NA
ENDBRANCH  13  16
ENDBRANCH  12  13
ENDBRANCH   1  12
TORSDOF 6
ENDMDL
MODEL 2
REMARK VINA RESULT: -6.703359143      1.205      1.646
REMARK  6 active torsions:
REMARK  status: ('A' for Active; 'I' for Inactive)
REMARK    1  A    between atoms: C1_1  and  C2_2 
REMARK    2  A    between atoms: C1_1  and  C6_12 
REMARK    3  A    between atoms: C2_2  and  N1_3 
REMARK    4  A    between atoms: N1_3  and  C3_5 
REMARK    5  A    between atoms: C6_12  and  N4_13 
REMARK    6  A    between atoms: N4_13  and  C7_16 
ROOT
HETATM    1  C1  UNL     1       6.326   3.525   0.402  1.00  0.00     0.047 C 
ENDROOT
BRANCH   1   2
HETATM    2  C2  UNL     1       7.618   2.807   0.035  1.00  0.00     0.124 C 
BRANCH   2   3
HETATM    3  N1  UNL     1       7.335   1.711  -0.871  1.00  0.00    -0.362 N 
ATOM      4  H1  UNL     1       7.588   0.749  -0.647  1.00  0.00     0.162 HD
BRANCH   3   5
HETATM    5  C3  UNL     1       6.677   2.058  -2.108  1.00  0.00     0.171 C 
HETATM    6  N2  UNL     1       5.511   1.713  -2.496  1.00  0.00    -0.361 N 
HETATM    7  C4  UNL     1       5.152   2.228  -3.786  1.00  0.00     0.142 C 
ATOM      8  H2  UNL     1       4.892   1.124  -1.940  1.00  0.00     0.162 HD
HETATM    9  C5  UNL     1       6.206   3.289  -4.015  1.00  0.00     0.142 C 
HETATM   10  N3  UNL     1       7.260   2.867  -3.112  1.00  0.00    -0.361 N 
ATOM     11  H3  UNL     1       8.247   3.110  -3.186  1.00  0.00     0.162 HD
ENDBRANCH   3   5
ENDBRANCH   2   3
ENDBRANCH   1   2
BRANCH   1  12
HETATM   12  C6  UNL     1       6.616   4.999   0.702  1.00  0.00     0.238 C 
BRANCH  12  13
HETATM   13  N4  UNL     1       5.455   5.765   0.274  1.00  0.00    -0.030 N 
ATOM     14  H42 UNL     1       4.761   5.166  -0.173  1.00  0.00     0.281 HD
ATOM     15  H41 UNL     1       4.904   6.081   1.072  1.00  0.00     0.281 HD
BRANCH  13  16
HETATM   16  C7  UNL     1       5.826   6.868  -0.579  1.00  0.00     0.493 C 
HETATM   17  N5  UNL     1       5.958   6.325  -1.931  1.00  0.00    -0.016 N 
HETATM   18  C8  UNL     1       4.541   6.057  -2.223  1.00  0.00     0.366 C 
ATOM     19  H52 UNL     1       6.451   6.911  -2.604  1.00  0.00     0.282 HD
ATOM     20  H51 UNL     1       6.594   5.534  -2.036  1.00  0.00     0.282 HD
HETATM   21  N6  UNL     1       3.945   7.315  -1.801  1.00  0.00    -0.117 NA
HETATM   22  N7  UNL     1       4.692   7.753  -0.707  1.00  0.00    -0.086 NA
ENDBRANCH  13  16
ENDBRANCH  12  13
ENDBRANCH   1  12
TORSDOF 6
ENDMDL
MODEL 3
REMARK VINA RESULT: -6.531949741      1.534      5.027
REMARK  6 active torsions:
REMARK  status: ('A' for Active; 'I' for Inactive)
REMARK    1  A    between atoms: C1_1  and  C2_2 
REMARK    2  A    between atoms: C1_1  and  C6_12 
REMARK    3  A    between atoms: C2_2  and  N1_3 
REMARK    4  A    between atoms: N1_3  and  C3_5 
REMARK    5  A    between atoms: C6_12  and  N4_13 
REMARK    6  A    between atoms: N4_13  and  C7_16 
ROOT
HETATM    1  C1  UNL     1       6.648   4.169  -3.845  1.00  0.00     0.047 C 
ENDROOT
BRANCH   1   2
HETATM    2  C2  UNL     1       6.851   5.185  -2.729  1.00  0.00     0.124 C 
BRANCH   2   3
HETATM    3  N1  UNL     1       5.573   5.538  -2.142  1.00  0.00    -0.362 N 
ATOM      4  H1  UNL     1       4.707   5.079  -2.423  1.00  0.00     0.162 HD
BRANCH   3   5
HETATM    5  C3  UNL     1       5.595   6.575  -1.138  1.00  0.00     0.171 C 
HETATM    6  N2  UNL     1       4.729   7.491  -0.942  1.00  0.00    -0.361 N 
HETATM    7  C4  UNL     1       5.050   8.370   0.146  1.00  0.00     0.142 C 
ATOM      8  H2  UNL     1       3.886   7.590  -1.507  1.00  0.00     0.162 HD
HETATM    9  C5  UNL     1       6.151   7.616   0.857  1.00  0.00     0.142 C 
HETATM   10  N3  UNL     1       6.629   6.727  -0.184  1.00  0.00    -0.361 N 
ATOM     11  H3  UNL     1       7.549   6.289  -0.223  1.00  0.00     0.162 HD
ENDBRANCH   3   5
ENDBRANCH   2   3
ENDBRANCH   1   2
BRANCH   1  12
HETATM   12  C6  UNL     1       6.729   2.748  -3.279  1.00  0.00     0.238 C 
BRANCH  12  13
HETATM   13  N4  UNL     1       7.493   2.817  -2.043  1.00  0.00    -0.030 N 
ATOM     14  H42 UNL     1       8.468   2.558  -2.194  1.00  0.00     0.281 HD
ATOM     15  H41 UNL     1       7.628   3.783  -1.744  1.00  0.00     0.281 HD
BRANCH  13  16
HETATM   16  C7  UNL     1       6.894   2.023  -0.997  1.00  0.00     0.493 C 
HETATM   17  N5  UNL     1       7.814   2.066   0.139  1.00  0.00    -0.016 N 
HETATM   18  C8  UNL     1       7.626   3.465   0.549  1.00  0.00     0.366 C 
ATOM     19  H52 UNL     1       7.665   1.363   0.863  1.00  0.00     0.282 HD
ATOM     20  H51 UNL     1       8.774   1.779  -0.051  1.00  0.00     0.282 HD
HETATM   21  N6  UNL     1       6.174   3.545   0.550  1.00  0.00    -0.117 NA
HETATM   22  N7  UNL     1       5.738   2.724  -0.490  1.00  0.00    -0.086 NA
ENDBRANCH  13  16
ENDBRANCH  12  13
ENDBRANCH   1  12
TORSDOF 6
ENDMDL
MODEL 4
REMARK VINA RESULT: -6.504840423      1.671      5.020
REMARK  6 active torsions:
REMARK  status: ('A' for Active; 'I' for Inactive)
REMARK    1  A    between atoms: C1_1  and  C2_2 
REMARK    2  A    between atoms: C1_1  and  C6_12 
REMARK    3  A    between atoms: C2_2  and  N1_3 
REMARK    4  A    between atoms: N1_3  and  C3_5 
REMARK    5  A    between atoms: C6_12  and  N4_13 
REMARK    6  A    between atoms: N4_13  and  C7_16 
ROOT
HETATM    1  C1  UNL     1       6.218   4.293  -3.662  1.00  0.00     0.047 C 
ENDROOT
BRANCH   1   2
HETATM    2  C2  UNL     1       4.857   4.412  -2.989  1.00  0.00     0.124 C 
BRANCH   2   3
HETATM    3  N1  UNL     1       4.530   5.808  -2.775  1.00  0.00    -0.362 N 
ATOM      4  H1  UNL     1       4.046   6.362  -3.482  1.00  0.00     0.162 HD
BRANCH   3   5
HETATM    5  C3  UNL     1       4.928   6.372  -1.507  1.00  0.00     0.171 C 
HETATM    6  N2  UNL     1       5.673   5.844  -0.616  1.00  0.00    -0.361 N 
HETATM    7  C4  UNL     1       5.876   6.672   0.537  1.00  0.00     0.142 C 
ATOM      8  H2  UNL     1       6.086   4.916  -0.715  1.00  0.00     0.162 HD
HETATM    9  C5  UNL     1       5.386   8.020   0.057  1.00  0.00     0.142 C 
HETATM   10  N3  UNL     1       4.529   7.651  -1.053  1.00  0.00    -0.361 N 
ATOM     11  H3  UNL     1       3.771   8.214  -1.440  1.00  0.00     0.162 HD
ENDBRANCH   3   5
ENDBRANCH   2   3
ENDBRANCH   1   2
BRANCH   1  12
HETATM   12  C6  UNL     1       6.872   2.960  -3.284  1.00  0.00     0.238 C 
BRANCH  12  13
HETATM   13  N4  UNL     1       7.430   3.115  -1.949  1.00  0.00    -0.030 N 
ATOM     14  H42 UNL     1       8.449   3.149  -1.975  1.00  0.00     0.281 HD
ATOM     15  H41 UNL     1       7.247   4.046  -1.577  1.00  0.00     0.281 HD
BRANCH  13  16
HETATM   16  C7  UNL     1       6.961   2.088  -1.050  1.00  0.00     0.493 C 
HETATM   17  N5  UNL     1       7.948   1.991   0.025  1.00  0.00    -0.016 N 
HETATM   18  C8  UNL     1       7.684   3.266   0.709  1.00  0.00     0.366 C 
ATOM     19  H52 UNL     1       7.899   1.153   0.604  1.00  0.00     0.282 HD
ATOM     20  H51 UNL     1       8.912   1.830  -0.265  1.00  0.00     0.282 HD
HETATM   21  N6  UNL     1       6.233   3.220   0.798  1.00  0.00    -0.117 NA
HETATM   22  N7  UNL     1       5.792   2.578  -0.359  1.00  0.00    -0.086 NA
ENDBRANCH  13  16
ENDBRANCH  12  13
ENDBRANCH   1  12
TORSDOF 6
ENDMDL
MODEL 5
REMARK VINA RESULT: -6.416313490      1.473      3.029
REMARK  6 active torsions:
REMARK  status: ('A' for Active; 'I' for Inactive)
REMARK    1  A    between atoms: C1_1  and  C2_2 
REMARK    2  A    between atoms: C1_1  and  C6_12 
REMARK    3  A    between atoms: C2_2  and  N1_3 
REMARK    4  A    between atoms: N1_3  and  C3_5 
REMARK    5  A    between atoms: C6_12  and  N4_13 
REMARK    6  A    between atoms: N4_13  and  C7_16 
ROOT
HETATM    1  C1  UNL     1       5.483   3.690  -3.582  1.00  0.00     0.047 C 
ENDROOT
BRANCH   1   2
HETATM    2  C2  UNL     1       5.959   2.245  -3.664  1.00  0.00     0.124 C 
BRANCH   2   3
HETATM    3  N1  UNL     1       5.824   1.605  -2.371  1.00  0.00    -0.362 N 
ATOM      4  H1  UNL     1       5.138   0.869  -2.204  1.00  0.00     0.162 HD
BRANCH   3   5
HETATM    5  C3  UNL     1       6.714   2.066  -1.332  1.00  0.00     0.171 C 
HETATM    6  N2  UNL     1       7.989   2.015  -1.315  1.00  0.00    -0.361 N 
HETATM    7  C4  UNL     1       8.577   2.562  -0.126  1.00  0.00     0.142 C 
ATOM      8  H2  UNL     1       8.540   1.620  -2.077  1.00  0.00     0.162 HD
HETATM    9  C5  UNL     1       7.418   3.313   0.491  1.00  0.00     0.142 C 
HETATM   10  N3  UNL     1       6.276   2.668  -0.129  1.00  0.00    -0.361 N 
ATOM     11  H3  UNL     1       5.325   2.651   0.238  1.00  0.00     0.162 HD
ENDBRANCH   3   5
ENDBRANCH   2   3
ENDBRANCH   1   2
BRANCH   1  12
HETATM   12  C6  UNL     1       6.688   4.634  -3.521  1.00  0.00     0.238 C 
BRANCH  12  13
HETATM   13  N4  UNL     1       6.315   5.758  -2.677  1.00  0.00    -0.030 N 
ATOM     14  H42 UNL     1       7.073   6.013  -2.043  1.00  0.00     0.281 HD
ATOM     15  H41 UNL     1       6.257   6.623  -3.214  1.00  0.00     0.281 HD
BRANCH  13  16
HETATM   16  C7  UNL     1       5.091   5.504  -1.956  1.00  0.00     0.493 C 
HETATM   17  N5  UNL     1       5.281   6.037  -0.608  1.00  0.00    -0.016 N 
HETATM   18  C8  UNL     1       5.269   7.476  -0.913  1.00  0.00     0.366 C 
ATOM     19  H52 UNL     1       4.614   5.723   0.097  1.00  0.00     0.282 HD
ATOM     20  H51 UNL     1       6.096   5.693  -0.101  1.00  0.00     0.282 HD
HETATM   21  N6  UNL     1       4.092   7.552  -1.765  1.00  0.00    -0.117 NA
HETATM   22  N7  UNL     1       4.057   6.360  -2.488  1.00  0.00    -0.086 NA
ENDBRANCH  13  16
ENDBRANCH  12  13
ENDBRANCH   1  12
TORSDOF 6
ENDMDL
