MODEL 1
REMARK VINA RESULT: -4.290026480      0.000      0.000
REMARK  1 active torsions:
REMARK  status: ('A' for Active; 'I' for Inactive)
REMARK    1  A    between atoms: C2_2  and  C3_3 
ROOT
HETATM    1  C3  UNL     1       6.350  30.366  19.589  1.00  0.00     0.177 C 
HETATM    2  N1  UNL     1       6.222  31.804  20.161  1.00  0.00    -0.359 N 
ATOM      3  H1  UNL     1       5.796  32.628  19.737  1.00  0.00     0.162 HD
HETATM    4  C4  UNL     1       6.847  31.675  21.412  1.00  0.00     0.076 C 
HETATM    5  N2  UNL     1       6.525  31.861  22.589  1.00  0.00    -0.380 N 
ATOM      6  H2  UNL     1       5.633  32.236  22.913  1.00  0.00     0.160 HD
HETATM    7  C5  UNL     1       7.682  31.438  23.470  1.00  0.00     0.123 C 
HETATM    8  C6  UNL     1       7.710  29.920  22.979  1.00  0.00     0.045 C 
HETATM    9  C7  UNL     1       7.954  29.787  21.476  1.00  0.00     0.087 C 
HETATM   10  C8  UNL     1       8.329  31.291  21.170  1.00  0.00     0.100 C 
HETATM   11  N3  UNL     1       6.903  29.501  20.588  1.00  0.00    -0.397 N 
ATOM     12  H3  UNL     1       6.488  28.573  20.663  1.00  0.00     0.155 HD
ENDROOT
BRANCH   1  13
HETATM   13  C2  UNL     1       6.887  30.458  18.249  1.00  0.00     0.042 C 
HETATM   14  C1  UNL     1       7.419  29.130  17.707  1.00  0.00     0.009 C 
ENDBRANCH   1  13
TORSDOF 1
ENDMDL
MODEL 2
REMARK VINA RESULT: -3.766570873      1.074      1.303
REMARK  1 active torsions:
REMARK  status: ('A' for Active; 'I' for Inactive)
REMARK    1  A    between atoms: C2_2  and  C3_3 
ROOT
HETATM    1  C3  UNL     1       6.785  29.329  19.679  1.00  0.00     0.177 C 
HETATM    2  N1  UNL     1       6.612  30.784  19.164  1.00  0.00    -0.359 N 
ATOM      3  H1  UNL     1       6.389  31.110  18.223  1.00  0.00     0.162 HD
HETATM    4  C4  UNL     1       6.842  31.534  20.328  1.00  0.00     0.076 C 
HETATM    5  N2  UNL     1       6.213  32.367  20.988  1.00  0.00    -0.380 N 
ATOM      6  H2  UNL     1       5.298  32.750  20.750  1.00  0.00     0.160 HD
HETATM    7  C5  UNL     1       7.034  32.724  22.209  1.00  0.00     0.123 C 
HETATM    8  C6  UNL     1       7.083  31.245  22.806  1.00  0.00     0.045 C 
HETATM    9  C7  UNL     1       7.734  30.243  21.855  1.00  0.00     0.087 C 
HETATM   10  C8  UNL     1       8.297  31.266  20.791  1.00  0.00     0.100 C 
HETATM   11  N3  UNL     1       6.962  29.343  21.100  1.00  0.00    -0.397 N 
ATOM     12  H3  UNL     1       6.471  28.618  21.624  1.00  0.00     0.155 HD
ENDROOT
BRANCH   1  13
HETATM   13  C2  UNL     1       7.687  28.638  18.785  1.00  0.00     0.042 C 
HETATM   14  C1  UNL     1       7.645  29.157  17.346  1.00  0.00     0.009 C 
ENDBRANCH   1  13
TORSDOF 1
ENDMDL
MODEL 3
REMARK VINA RESULT: -3.764536436      1.241      3.869
REMARK  1 active torsions:
REMARK  status: ('A' for Active; 'I' for Inactive)
REMARK    1  A    between atoms: C2_2  and  C3_3 
ROOT
HETATM    1  C3  UNL     1       7.962  31.286  21.392  1.00  0.00     0.177 C 
HETATM    2  N1  UNL     1       7.281  32.156  20.300  1.00  0.00    -0.359 N 
ATOM      3  H1  UNL     1       7.097  33.160  20.301  1.00  0.00     0.162 HD
HETATM    4  C4  UNL     1       6.985  31.204  19.312  1.00  0.00     0.076 C 
HETATM    5  N2  UNL     1       7.258  31.048  18.118  1.00  0.00    -0.380 N 
ATOM      6  H2  UNL     1       7.789  31.697  17.536  1.00  0.00     0.160 HD
HETATM    7  C5  UNL     1       6.668  29.729  17.664  1.00  0.00     0.123 C 
HETATM    8  C6  UNL     1       7.484  28.826  18.697  1.00  0.00     0.045 C 
HETATM    9  C7  UNL     1       7.209  29.195  20.153  1.00  0.00     0.087 C 
HETATM   10  C8  UNL     1       5.995  30.177  19.918  1.00  0.00     0.100 C 
HETATM   11  N3  UNL     1       8.128  29.949  20.902  1.00  0.00    -0.397 N 
ATOM     12  H3  UNL     1       9.014  29.495  21.122  1.00  0.00     0.155 HD
ENDROOT
BRANCH   1  13
HETATM   13  C2  UNL     1       7.336  31.582  22.661  1.00  0.00     0.042 C 
HETATM   14  C1  UNL     1       7.846  30.716  23.815  1.00  0.00     0.009 C 
ENDBRANCH   1  13
TORSDOF 1
ENDMDL
MODEL 4
REMARK VINA RESULT: -3.273857783      1.629      2.599
REMARK  1 active torsions:
REMARK  status: ('A' for Active; 'I' for Inactive)
REMARK    1  A    between atoms: C2_2  and  C3_3 
ROOT
HETATM    1  C3  UNL     1       7.327  31.525  19.408  1.00  0.00     0.177 C 
HETATM    2  N1  UNL     1       6.981  30.013  19.481  1.00  0.00    -0.359 N 
ATOM      3  H1  UNL     1       6.622  29.401  18.748  1.00  0.00     0.162 HD
HETATM    4  C4  UNL     1       7.291  29.708  20.816  1.00  0.00     0.076 C 
HETATM    5  N2  UNL     1       8.038  28.915  21.396  1.00  0.00    -0.380 N 
ATOM      6  H2  UNL     1       8.620  28.206  20.950  1.00  0.00     0.160 HD
HETATM    7  C5  UNL     1       7.942  29.175  22.885  1.00  0.00     0.123 C 
HETATM    8  C6  UNL     1       8.440  30.690  22.815  1.00  0.00     0.045 C 
HETATM    9  C7  UNL     1       7.545  31.568  21.942  1.00  0.00     0.087 C 
HETATM   10  C8  UNL     1       6.359  30.548  21.727  1.00  0.00     0.100 C 
HETATM   11  N3  UNL     1       7.928  31.938  20.642  1.00  0.00    -0.397 N 
ATOM     12  H3  UNL     1       8.724  32.572  20.567  1.00  0.00     0.155 HD
ENDROOT
BRANCH   1  13
HETATM   13  C2  UNL     1       6.206  32.218  18.814  1.00  0.00     0.042 C 
HETATM   14  C1  UNL     1       5.775  33.467  19.585  1.00  0.00     0.009 C 
ENDBRANCH   1  13
TORSDOF 1
ENDMDL
MODEL 5
REMARK VINA RESULT: -3.069514050      1.316      2.186
REMARK  1 active torsions:
REMARK  status: ('A' for Active; 'I' for Inactive)
REMARK    1  A    between atoms: C2_2  and  C3_3 
ROOT
HETATM    1  C3  UNL     1       7.678  29.824  18.922  1.00  0.00     0.177 C 
HETATM    2  N1  UNL     1       7.900  29.029  20.237  1.00  0.00    -0.359 N 
ATOM      3  H1  UNL     1       8.239  28.074  20.361  1.00  0.00     0.162 HD
HETATM    4  C4  UNL     1       7.514  29.963  21.211  1.00  0.00     0.076 C 
HETATM    5  N2  UNL     1       8.043  30.496  22.191  1.00  0.00    -0.380 N 
ATOM      6  H2  UNL     1       8.977  30.296  22.549  1.00  0.00     0.160 HD
HETATM    7  C5  UNL     1       7.067  31.499  22.771  1.00  0.00     0.123 C 
HETATM    8  C6  UNL     1       6.958  32.395  21.454  1.00  0.00     0.045 C 
HETATM    9  C7  UNL     1       6.446  31.613  20.246  1.00  0.00     0.087 C 
HETATM   10  C8  UNL     1       6.014  30.290  20.993  1.00  0.00     0.100 C 
HETATM   11  N3  UNL     1       7.319  31.175  19.236  1.00  0.00    -0.397 N 
ATOM     12  H3  UNL     1       7.746  31.901  18.660  1.00  0.00     0.155 HD
ENDROOT
BRANCH   1  13
HETATM   13  C2  UNL     1       6.906  28.999  18.020  1.00  0.00     0.042 C 
HETATM   14  C1  UNL     1       7.760  28.216  17.020  1.00  0.00     0.009 C 
ENDBRANCH   1  13
TORSDOF 1
ENDMDL
