MODEL 1
REMARK VINA RESULT: -7.681511562      0.000      0.000
REMARK  14 active torsions:
REMARK  status: ('A' for Active; 'I' for Inactive)
REMARK    1  A    between atoms: C2_2  and  O1_3 
REMARK       I    between atoms: N1_7  and  C4_8 
REMARK       I    between atoms: C4_8  and  N3_12 
REMARK    2  A    between atoms: N3_12  and  N4_14 
REMARK    3  A    between atoms: C5_17  and  N5_18 
REMARK    4  A    between atoms: C6_22  and  C7_23 
REMARK    5  A    between atoms: C7_23  and  S1_24 
REMARK    6  A    between atoms: C8_28  and  N6_29 
REMARK    7  A    between atoms: N7_31  and  C9_33 
REMARK    8  A    between atoms: N8_35  and  N9_36 
REMARK       I    between atoms: N9_36  and  C11_38 
REMARK    9  A    between atoms: C11_38  and  C12_40 
REMARK   10  A    between atoms: C12_40  and  N10_41 
REMARK   11  A    between atoms: C12_40  and  C13_45 
REMARK   12  A    between atoms: C13_45  and  O7_46 
REMARK   13  A    between atoms: C13_45  and  C14_48 
REMARK   14  A    between atoms: C14_48  and  O8_49 
ROOT
HETATM    1  C1  UNL     1      13.989  15.427  41.489  1.00  0.00     0.063 C 
HETATM    2  C2  UNL     1      12.481  15.510  41.364  1.00  0.00     0.179 C 
HETATM    3  C3  UNL     1      11.916  16.353  42.446  1.00  0.00     0.280 C 
HETATM    4  O2  UNL     1      12.554  16.770  43.433  1.00  0.00    -0.269 OA
HETATM    5  N1  UNL     1      10.549  16.691  42.319  1.00  0.00    -0.113 N 
HETATM    6  C4  UNL     1       9.806  17.058  43.456  1.00  0.00     0.697 C 
HETATM    7  N2  UNL     1      10.134  18.078  44.176  1.00  0.00    -0.233 N 
ATOM      8  H21 UNL     1       9.596  18.345  45.001  1.00  0.00     0.174 HD
ATOM      9  H22 UNL     1      10.959  18.598  43.876  1.00  0.00     0.174 HD
HETATM   10  N3  UNL     1       8.641  16.323  43.881  1.00  0.00    -0.139 N 
ATOM     11  H3  UNL     1       7.774  16.809  44.109  1.00  0.00     0.205 HD
HETATM   12  C5  UNL     1       9.917  16.663  41.040  1.00  0.00     0.341 C 
HETATM   13  C6  UNL     1      10.871  16.569  39.916  1.00  0.00     0.014 C 
HETATM   14  C8  UNL     1      12.052  16.038  40.063  1.00  0.00     0.076 C 
ENDROOT
BRANCH  14  15
HETATM   15  N6  UNL     1      12.993  15.936  38.998  1.00  0.00    -0.299 N 
HETATM   16  N7  UNL     1      13.289  14.845  38.433  1.00  0.00    -0.284 N 
ATOM     17  H7  UNL     1      12.839  13.983  38.744  1.00  0.00     0.188 HD
ATOM     18  H6  UNL     1      13.453  16.787  38.675  1.00  0.00     0.186 HD
BRANCH  16  19
HETATM   19  C9  UNL     1      14.243  14.792  37.364  1.00  0.00     0.141 A 
HETATM   20  C10 UNL     1      15.388  13.989  37.303  1.00  0.00     0.171 A 
HETATM   21  N8  UNL     1      16.037  14.211  36.151  1.00  0.00    -0.210 N 
HETATM   22  C15 UNL     1      15.302  15.140  35.507  1.00  0.00     0.347 A 
HETATM   23  O9  UNL     1      15.629  15.595  34.361  1.00  0.00    -0.245 OA
HETATM   24  N11 UNL     1      14.243  15.480  36.229  1.00  0.00    -0.291 N 
ATOM     25  H11 UNL     1      13.538  16.164  35.955  1.00  0.00     0.172 HD
BRANCH  21  26
HETATM   26  N9  UNL     1      17.226  13.632  35.667  1.00  0.00    -0.258 N 
HETATM   27  C11 UNL     1      17.291  12.480  34.857  1.00  0.00     0.270 C 
HETATM   28  O6  UNL     1      16.273  11.834  34.469  1.00  0.00    -0.269 OA
ATOM     29  H9  UNL     1      18.106  14.079  35.923  1.00  0.00     0.190 HD
BRANCH  27  30
HETATM   30  C12 UNL     1      18.612  11.963  34.411  1.00  0.00     0.306 C 
BRANCH  30  31
HETATM   31  N10 UNL     1      18.419  11.056  33.294  1.00  0.00    -0.064 N 
ATOM     32 3H10 UNL     1      19.281  10.895  32.773  1.00  0.00     0.275 HD
ATOM     33 2H10 UNL     1      18.254  10.096  33.599  1.00  0.00     0.275 HD
ATOM     34 1H10 UNL     1      17.669  11.407  32.701  1.00  0.00     0.275 HD
ENDBRANCH  30  31
BRANCH  30  35
HETATM   35  C13 UNL     1      19.319  11.155  35.479  1.00  0.00     0.181 C 
BRANCH  35  36
HETATM   36  O7  UNL     1      19.039  11.552  36.766  1.00  0.00    -0.391 OA
ATOM     37  H7  UNL     1      19.805  11.772  37.282  1.00  0.00     0.210 HD
ENDBRANCH  35  36
BRANCH  35  38
HETATM   38  C14 UNL     1      19.096   9.668  35.278  1.00  0.00     0.198 C 
BRANCH  38  39
HETATM   39  O8  UNL     1      17.814   9.283  35.637  1.00  0.00    -0.398 OA
ATOM     40  H8  UNL     1      17.178   9.493  34.963  1.00  0.00     0.209 HD
ENDBRANCH  38  39
ENDBRANCH  35  38
ENDBRANCH  30  35
ENDBRANCH  27  30
ENDBRANCH  21  26
ENDBRANCH  16  19
ENDBRANCH  14  15
BRANCH   2  41
HETATM   41  O1  UNL     1      11.951  14.219  41.573  1.00  0.00    -0.374 OA
ATOM     42  H1  UNL     1      11.414  14.242  42.356  1.00  0.00     0.211 HD
ENDBRANCH   2  41
BRANCH  13  43
HETATM   43  C7  UNL     1      10.453  17.099  38.599  1.00  0.00     0.205 C 
BRANCH  43  44
HETATM   44  S1  UNL     1       9.803  15.909  37.490  1.00  0.00     0.105 S 
HETATM   45  O3  UNL     1       8.771  16.464  36.583  1.00  0.00    -0.595 OA
HETATM   46  O4  UNL     1      10.967  15.454  36.618  1.00  0.00    -0.595 OA
HETATM   47  O5  UNL     1       9.212  14.547  38.236  1.00  0.00    -0.595 OA
ENDBRANCH  43  44
ENDBRANCH  13  43
BRANCH  12  48
HETATM   48  N5  UNL     1       9.185  17.942  40.926  1.00  0.00    -0.053 N 
ATOM     49  H53 UNL     1       9.199  18.498  41.780  1.00  0.00     0.277 HD
ATOM     50  H52 UNL     1       9.648  18.625  40.327  1.00  0.00     0.277 HD
ATOM     51  H51 UNL     1       8.245  17.696  40.613  1.00  0.00     0.277 HD
ENDBRANCH  12  48
BRANCH  10  52
HETATM   52  N4  UNL     1       8.722  14.925  43.975  1.00  0.00    -0.331 N 
ATOM     53  H42 UNL     1       9.628  14.480  44.118  1.00  0.00     0.177 HD
ATOM     54  H41 UNL     1       7.865  14.378  43.896  1.00  0.00     0.177 HD
ENDBRANCH  10  52
TORSDOF 14
ENDMDL
MODEL 2
REMARK VINA RESULT: -7.645809161      3.162      5.247
REMARK  14 active torsions:
REMARK  status: ('A' for Active; 'I' for Inactive)
REMARK    1  A    between atoms: C2_2  and  O1_3 
REMARK       I    between atoms: N1_7  and  C4_8 
REMARK       I    between atoms: C4_8  and  N3_12 
REMARK    2  A    between atoms: N3_12  and  N4_14 
REMARK    3  A    between atoms: C5_17  and  N5_18 
REMARK    4  A    between atoms: C6_22  and  C7_23 
REMARK    5  A    between atoms: C7_23  and  S1_24 
REMARK    6  A    between atoms: C8_28  and  N6_29 
REMARK    7  A    between atoms: N7_31  and  C9_33 
REMARK    8  A    between atoms: N8_35  and  N9_36 
REMARK       I    between atoms: N9_36  and  C11_38 
REMARK    9  A    between atoms: C11_38  and  C12_40 
REMARK   10  A    between atoms: C12_40  and  N10_41 
REMARK   11  A    between atoms: C12_40  and  C13_45 
REMARK   12  A    between atoms: C13_45  and  O7_46 
REMARK   13  A    between atoms: C13_45  and  C14_48 
REMARK   14  A    between atoms: C14_48  and  O8_49 
ROOT
HETATM    1  C1  UNL     1      14.202  17.516  40.844  1.00  0.00     0.063 C 
HETATM    2  C2  UNL     1      12.884  16.849  41.181  1.00  0.00     0.179 C 
HETATM    3  C3  UNL     1      12.196  17.581  42.273  1.00  0.00     0.280 C 
HETATM    4  O2  UNL     1      12.708  18.488  42.957  1.00  0.00    -0.269 OA
HETATM    5  N1  UNL     1      10.860  17.194  42.533  1.00  0.00    -0.113 N 
HETATM    6  C4  UNL     1      10.284  17.455  43.790  1.00  0.00     0.697 C 
HETATM    7  N2  UNL     1      10.172  18.658  44.245  1.00  0.00    -0.233 N 
ATOM      8  H21 UNL     1       9.755  18.847  45.156  1.00  0.00     0.174 HD
ATOM      9  H22 UNL     1      10.523  19.404  43.644  1.00  0.00     0.174 HD
HETATM   10  N3  UNL     1       9.788  16.400  44.639  1.00  0.00    -0.139 N 
ATOM     11  H3  UNL     1       8.862  16.466  45.062  1.00  0.00     0.205 HD
HETATM   12  C5  UNL     1      10.090  16.542  41.524  1.00  0.00     0.341 C 
HETATM   13  C6  UNL     1      10.702  16.614  40.181  1.00  0.00     0.014 C 
HETATM   14  C8  UNL     1      11.988  16.756  40.021  1.00  0.00     0.076 C 
ENDROOT
BRANCH  14  15
HETATM   15  N6  UNL     1      12.605  16.830  38.738  1.00  0.00    -0.299 N 
HETATM   16  N7  UNL     1      13.324  15.909  38.258  1.00  0.00    -0.284 N 
ATOM     17  H7  UNL     1      13.481  15.061  38.804  1.00  0.00     0.188 HD
ATOM     18  H6  UNL     1      12.459  17.671  38.179  1.00  0.00     0.186 HD
BRANCH  16  19
HETATM   19  C9  UNL     1      13.924  16.031  36.961  1.00  0.00     0.141 A 
HETATM   20  C10 UNL     1      13.578  16.949  35.962  1.00  0.00     0.171 A 
HETATM   21  N8  UNL     1      14.356  16.763  34.886  1.00  0.00    -0.210 N 
HETATM   22  C15 UNL     1      15.174  15.744  35.216  1.00  0.00     0.347 A 
HETATM   23  O9  UNL     1      16.061  15.293  34.416  1.00  0.00    -0.245 OA
HETATM   24  N11 UNL     1      14.914  15.315  36.444  1.00  0.00    -0.291 N 
ATOM     25  H11 UNL     1      15.399  14.553  36.917  1.00  0.00     0.172 HD
BRANCH  21  26
HETATM   26  N9  UNL     1      14.363  17.451  33.657  1.00  0.00    -0.258 N 
HETATM   27  C11 UNL     1      13.295  17.469  32.737  1.00  0.00     0.270 C 
HETATM   28  O6  UNL     1      12.199  16.863  32.918  1.00  0.00    -0.269 OA
ATOM     29  H9  UNL     1      15.204  17.975  33.415  1.00  0.00     0.190 HD
BRANCH  27  30
HETATM   30  C12 UNL     1      13.426  18.234  31.468  1.00  0.00     0.306 C 
BRANCH  30  31
HETATM   31  N10 UNL     1      14.034  19.522  31.745  1.00  0.00    -0.064 N 
ATOM     32 3H10 UNL     1      13.985  19.769  32.733  1.00  0.00     0.275 HD
ATOM     33 2H10 UNL     1      15.049  19.499  31.652  1.00  0.00     0.275 HD
ATOM     34 1H10 UNL     1      13.607  20.231  31.148  1.00  0.00     0.275 HD
ENDBRANCH  30  31
BRANCH  30  35
HETATM   35  C13 UNL     1      12.089  18.540  30.825  1.00  0.00     0.181 C 
BRANCH  35  36
HETATM   36  O7  UNL     1      11.269  19.344  31.583  1.00  0.00    -0.391 OA
ATOM     37  H7  UNL     1      10.342  19.211  31.428  1.00  0.00     0.210 HD
ENDBRANCH  35  36
BRANCH  35  38
HETATM   38  C14 UNL     1      12.268  19.072  29.416  1.00  0.00     0.198 C 
BRANCH  38  39
HETATM   39  O8  UNL     1      12.246  20.458  29.378  1.00  0.00    -0.398 OA
ATOM     40  H8  UNL     1      13.073  20.834  29.654  1.00  0.00     0.209 HD
ENDBRANCH  38  39
ENDBRANCH  35  38
ENDBRANCH  30  35
ENDBRANCH  27  30
ENDBRANCH  21  26
ENDBRANCH  16  19
ENDBRANCH  14  15
BRANCH   2  41
HETATM   41  O1  UNL     1      13.159  15.566  41.697  1.00  0.00    -0.374 OA
ATOM     42  H1  UNL     1      12.999  15.583  42.634  1.00  0.00     0.211 HD
ENDBRANCH   2  41
BRANCH  13  43
HETATM   43  C7  UNL     1       9.811  16.523  39.003  1.00  0.00     0.205 C 
BRANCH  43  44
HETATM   44  S1  UNL     1       9.692  14.931  38.282  1.00  0.00     0.105 S 
HETATM   45  O3  UNL     1       8.329  14.617  37.792  1.00  0.00    -0.595 OA
HETATM   46  O4  UNL     1      10.613  14.939  37.068  1.00  0.00    -0.595 OA
HETATM   47  O5  UNL     1      10.223  13.704  39.269  1.00  0.00    -0.595 OA
ENDBRANCH  43  44
ENDBRANCH  13  43
BRANCH  12  48
HETATM   48  N5  UNL     1       8.795  17.250  41.486  1.00  0.00    -0.053 N 
ATOM     49  H53 UNL     1       8.007  16.677  41.789  1.00  0.00     0.277 HD
ATOM     50  H52 UNL     1       8.703  17.971  42.202  1.00  0.00     0.277 HD
ATOM     51  H51 UNL     1       8.700  17.605  40.534  1.00  0.00     0.277 HD
ENDBRANCH  12  48
BRANCH  10  52
HETATM   52  N4  UNL     1      10.603  15.282  44.872  1.00  0.00    -0.331 N 
ATOM     53  H42 UNL     1      10.278  14.354  44.600  1.00  0.00     0.177 HD
ATOM     54  H41 UNL     1      11.512  15.420  45.314  1.00  0.00     0.177 HD
ENDBRANCH  10  52
TORSDOF 14
ENDMDL
MODEL 3
REMARK VINA RESULT: -7.608144639      0.911      1.237
REMARK  14 active torsions:
REMARK  status: ('A' for Active; 'I' for Inactive)
REMARK    1  A    between atoms: C2_2  and  O1_3 
REMARK       I    between atoms: N1_7  and  C4_8 
REMARK       I    between atoms: C4_8  and  N3_12 
REMARK    2  A    between atoms: N3_12  and  N4_14 
REMARK    3  A    between atoms: C5_17  and  N5_18 
REMARK    4  A    between atoms: C6_22  and  C7_23 
REMARK    5  A    between atoms: C7_23  and  S1_24 
REMARK    6  A    between atoms: C8_28  and  N6_29 
REMARK    7  A    between atoms: N7_31  and  C9_33 
REMARK    8  A    between atoms: N8_35  and  N9_36 
REMARK       I    between atoms: N9_36  and  C11_38 
REMARK    9  A    between atoms: C11_38  and  C12_40 
REMARK   10  A    between atoms: C12_40  and  N10_41 
REMARK   11  A    between atoms: C12_40  and  C13_45 
REMARK   12  A    between atoms: C13_45  and  O7_46 
REMARK   13  A    between atoms: C13_45  and  C14_48 
REMARK   14  A    between atoms: C14_48  and  O8_49 
ROOT
HETATM    1  C1  UNL     1      14.003  15.336  41.659  1.00  0.00     0.063 C 
HETATM    2  C2  UNL     1      12.502  15.451  41.498  1.00  0.00     0.179 C 
HETATM    3  C3  UNL     1      11.936  16.351  42.532  1.00  0.00     0.280 C 
HETATM    4  O2  UNL     1      12.563  16.791  43.516  1.00  0.00    -0.269 OA
HETATM    5  N1  UNL     1      10.580  16.718  42.361  1.00  0.00    -0.113 N 
HETATM    6  C4  UNL     1       9.823  17.149  43.466  1.00  0.00     0.697 C 
HETATM    7  N2  UNL     1      10.163  18.188  44.153  1.00  0.00    -0.233 N 
ATOM      8  H21 UNL     1       9.614  18.501  44.954  1.00  0.00     0.174 HD
ATOM      9  H22 UNL     1      11.007  18.675  43.850  1.00  0.00     0.174 HD
HETATM   10  N3  UNL     1       8.631  16.461  43.893  1.00  0.00    -0.139 N 
ATOM     11  H3  UNL     1       7.772  16.978  44.082  1.00  0.00     0.205 HD
HETATM   12  C5  UNL     1       9.975  16.655  41.070  1.00  0.00     0.341 C 
HETATM   13  C6  UNL     1      10.951  16.492  39.972  1.00  0.00     0.014 C 
HETATM   14  C8  UNL     1      12.115  15.937  40.167  1.00  0.00     0.076 C 
ENDROOT
BRANCH  14  15
HETATM   15  N6  UNL     1      13.075  15.769  39.128  1.00  0.00    -0.299 N 
HETATM   16  N7  UNL     1      13.341  14.652  38.602  1.00  0.00    -0.284 N 
ATOM     17  H7  UNL     1      12.852  13.817  38.926  1.00  0.00     0.188 HD
ATOM     18  H6  UNL     1      13.574  16.593  38.792  1.00  0.00     0.186 HD
BRANCH  16  19
HETATM   19  C9  UNL     1      14.317  14.533  37.558  1.00  0.00     0.141 A 
HETATM   20  C10 UNL     1      15.299  13.542  37.440  1.00  0.00     0.171 A 
HETATM   21  N8  UNL     1      16.029  13.756  36.335  1.00  0.00    -0.210 N 
HETATM   22  C15 UNL     1      15.504  14.864  35.777  1.00  0.00     0.347 A 
HETATM   23  O9  UNL     1      15.959  15.366  34.695  1.00  0.00    -0.245 OA
HETATM   24  N11 UNL     1      14.492  15.320  36.504  1.00  0.00    -0.291 N 
ATOM     25  H11 UNL     1      13.936  16.147  36.288  1.00  0.00     0.172 HD
BRANCH  21  26
HETATM   26  N9  UNL     1      17.114  13.018  35.822  1.00  0.00    -0.258 N 
HETATM   27  C11 UNL     1      17.006  11.971  34.884  1.00  0.00     0.270 C 
HETATM   28  O6  UNL     1      15.908  11.576  34.394  1.00  0.00    -0.269 OA
ATOM     29  H9  UNL     1      18.047  13.261  36.154  1.00  0.00     0.190 HD
BRANCH  27  30
HETATM   30  C12 UNL     1      18.230  11.266  34.420  1.00  0.00     0.306 C 
BRANCH  30  31
HETATM   31  N10 UNL     1      18.851  10.592  35.545  1.00  0.00    -0.064 N 
ATOM     32 3H10 UNL     1      18.389   9.711  35.771  1.00  0.00     0.275 HD
ATOM     33 2H10 UNL     1      19.771  10.217  35.312  1.00  0.00     0.275 HD
ATOM     34 1H10 UNL     1      18.883  11.228  36.342  1.00  0.00     0.275 HD
ENDBRANCH  30  31
BRANCH  30  35
HETATM   35  C13 UNL     1      19.282  12.209  33.874  1.00  0.00     0.181 C 
BRANCH  35  36
HETATM   36  O7  UNL     1      18.813  13.468  33.578  1.00  0.00    -0.391 OA
ATOM     37  H7  UNL     1      17.878  13.576  33.705  1.00  0.00     0.210 HD
ENDBRANCH  35  36
BRANCH  35  38
HETATM   38  C14 UNL     1      20.501  12.250  34.776  1.00  0.00     0.198 C 
BRANCH  38  39
HETATM   39  O8  UNL     1      20.267  12.981  35.931  1.00  0.00    -0.398 OA
ATOM     40  H8  UNL     1      21.068  13.343  36.290  1.00  0.00     0.209 HD
ENDBRANCH  38  39
ENDBRANCH  35  38
ENDBRANCH  30  35
ENDBRANCH  27  30
ENDBRANCH  21  26
ENDBRANCH  16  19
ENDBRANCH  14  15
BRANCH   2  41
HETATM   41  O1  UNL     1      11.934  14.183  41.745  1.00  0.00    -0.374 OA
ATOM     42  H1  UNL     1      11.730  13.782  40.908  1.00  0.00     0.211 HD
ENDBRANCH   2  41
BRANCH  13  43
HETATM   43  C7  UNL     1      10.575  16.979  38.627  1.00  0.00     0.205 C 
BRANCH  43  44
HETATM   44  S1  UNL     1       9.921  15.761  37.551  1.00  0.00     0.105 S 
HETATM   45  O3  UNL     1       8.940  16.309  36.583  1.00  0.00    -0.595 OA
HETATM   46  O4  UNL     1      11.097  15.226  36.742  1.00  0.00    -0.595 OA
HETATM   47  O5  UNL     1       9.256  14.456  38.336  1.00  0.00    -0.595 OA
ENDBRANCH  43  44
ENDBRANCH  13  43
BRANCH  12  48
HETATM   48  N5  UNL     1       9.279  17.946  40.889  1.00  0.00    -0.053 N 
ATOM     49  H53 UNL     1       8.756  18.246  41.711  1.00  0.00     0.277 HD
ATOM     50  H52 UNL     1       9.910  18.746  40.847  1.00  0.00     0.277 HD
ATOM     51  H51 UNL     1       8.702  17.835  40.055  1.00  0.00     0.277 HD
ENDBRANCH  12  48
BRANCH  10  52
HETATM   52  N4  UNL     1       8.673  15.066  44.044  1.00  0.00    -0.331 N 
ATOM     53  H42 UNL     1       9.559  14.573  43.932  1.00  0.00     0.177 HD
ATOM     54  H41 UNL     1       7.810  14.570  44.265  1.00  0.00     0.177 HD
ENDBRANCH  10  52
TORSDOF 14
ENDMDL
MODEL 4
REMARK VINA RESULT: -7.576904664      0.806      1.170
REMARK  14 active torsions:
REMARK  status: ('A' for Active; 'I' for Inactive)
REMARK    1  A    between atoms: C2_2  and  O1_3 
REMARK       I    between atoms: N1_7  and  C4_8 
REMARK       I    between atoms: C4_8  and  N3_12 
REMARK    2  A    between atoms: N3_12  and  N4_14 
REMARK    3  A    between atoms: C5_17  and  N5_18 
REMARK    4  A    between atoms: C6_22  and  C7_23 
REMARK    5  A    between atoms: C7_23  and  S1_24 
REMARK    6  A    between atoms: C8_28  and  N6_29 
REMARK    7  A    between atoms: N7_31  and  C9_33 
REMARK    8  A    between atoms: N8_35  and  N9_36 
REMARK       I    between atoms: N9_36  and  C11_38 
REMARK    9  A    between atoms: C11_38  and  C12_40 
REMARK   10  A    between atoms: C12_40  and  N10_41 
REMARK   11  A    between atoms: C12_40  and  C13_45 
REMARK   12  A    between atoms: C13_45  and  O7_46 
REMARK   13  A    between atoms: C13_45  and  C14_48 
REMARK   14  A    between atoms: C14_48  and  O8_49 
ROOT
HETATM    1  C1  UNL     1      13.976  15.330  41.607  1.00  0.00     0.063 C 
HETATM    2  C2  UNL     1      12.472  15.456  41.486  1.00  0.00     0.179 C 
HETATM    3  C3  UNL     1      11.944  16.385  42.515  1.00  0.00     0.280 C 
HETATM    4  O2  UNL     1      12.603  16.842  43.470  1.00  0.00    -0.269 OA
HETATM    5  N1  UNL     1      10.587  16.761  42.374  1.00  0.00    -0.113 N 
HETATM    6  C4  UNL     1       9.866  17.225  43.489  1.00  0.00     0.697 C 
HETATM    7  N2  UNL     1      10.235  18.276  44.142  1.00  0.00    -0.233 N 
ATOM      8  H21 UNL     1       9.712  18.613  44.951  1.00  0.00     0.174 HD
ATOM      9  H22 UNL     1      11.074  18.748  43.804  1.00  0.00     0.174 HD
HETATM   10  N3  UNL     1       8.680  16.558  43.967  1.00  0.00    -0.139 N 
ATOM     11  H3  UNL     1       7.832  17.088  44.169  1.00  0.00     0.205 HD
HETATM   12  C5  UNL     1       9.945  16.674  41.103  1.00  0.00     0.341 C 
HETATM   13  C6  UNL     1      10.887  16.476  39.982  1.00  0.00     0.014 C 
HETATM   14  C8  UNL     1      12.051  15.915  40.156  1.00  0.00     0.076 C 
ENDROOT
BRANCH  14  15
HETATM   15  N6  UNL     1      12.979  15.713  39.094  1.00  0.00    -0.299 N 
HETATM   16  N7  UNL     1      13.191  14.588  38.561  1.00  0.00    -0.284 N 
ATOM     17  H7  UNL     1      12.679  13.771  38.896  1.00  0.00     0.188 HD
ATOM     18  H6  UNL     1      13.500  16.519  38.747  1.00  0.00     0.186 HD
BRANCH  16  19
HETATM   19  C9  UNL     1      14.137  14.435  37.494  1.00  0.00     0.141 A 
HETATM   20  C10 UNL     1      14.880  13.288  37.192  1.00  0.00     0.171 A 
HETATM   21  N8  UNL     1      15.660  13.519  36.126  1.00  0.00    -0.210 N 
HETATM   22  C15 UNL     1      15.401  14.793  35.772  1.00  0.00     0.347 A 
HETATM   23  O9  UNL     1      15.975  15.357  34.781  1.00  0.00    -0.245 OA
HETATM   24  N11 UNL     1      14.500  15.330  36.584  1.00  0.00    -0.291 N 
ATOM     25  H11 UNL     1      14.143  16.283  36.520  1.00  0.00     0.172 HD
BRANCH  21  26
HETATM   26  N9  UNL     1      16.566  12.659  35.476  1.00  0.00    -0.258 N 
HETATM   27  C11 UNL     1      17.504  11.832  36.129  1.00  0.00     0.270 C 
HETATM   28  O6  UNL     1      17.633  11.773  37.387  1.00  0.00    -0.269 OA
ATOM     29  H9  UNL     1      16.542  12.631  34.457  1.00  0.00     0.190 HD
BRANCH  27  30
HETATM   30  C12 UNL     1      18.411  10.967  35.329  1.00  0.00     0.306 C 
BRANCH  30  31
HETATM   31  N10 UNL     1      18.600  11.556  34.016  1.00  0.00    -0.064 N 
ATOM     32 3H10 UNL     1      17.794  11.412  33.408  1.00  0.00     0.275 HD
ATOM     33 2H10 UNL     1      18.580  12.576  34.043  1.00  0.00     0.275 HD
ATOM     34 1H10 UNL     1      19.462  11.197  33.608  1.00  0.00     0.275 HD
ENDBRANCH  30  31
BRANCH  30  35
HETATM   35  C13 UNL     1      17.840   9.586  35.081  1.00  0.00     0.181 C 
BRANCH  35  36
HETATM   36  O7  UNL     1      16.966   9.154  36.052  1.00  0.00    -0.391 OA
ATOM     37  H7  UNL     1      16.116   8.888  35.721  1.00  0.00     0.210 HD
ENDBRANCH  35  36
BRANCH  35  38
HETATM   38  C14 UNL     1      17.247   9.481  33.689  1.00  0.00     0.198 C 
BRANCH  38  39
HETATM   39  O8  UNL     1      15.991  10.063  33.615  1.00  0.00    -0.398 OA
ATOM     40  H8  UNL     1      15.313   9.423  33.431  1.00  0.00     0.209 HD
ENDBRANCH  38  39
ENDBRANCH  35  38
ENDBRANCH  30  35
ENDBRANCH  27  30
ENDBRANCH  21  26
ENDBRANCH  16  19
ENDBRANCH  14  15
BRANCH   2  41
HETATM   41  O1  UNL     1      11.900  14.200  41.779  1.00  0.00    -0.374 OA
ATOM     42  H1  UNL     1      10.956  14.306  41.818  1.00  0.00     0.211 HD
ENDBRANCH   2  41
BRANCH  13  43
HETATM   43  C7  UNL     1      10.476  16.935  38.637  1.00  0.00     0.205 C 
BRANCH  43  44
HETATM   44  S1  UNL     1       9.703  15.721  37.639  1.00  0.00     0.105 S 
HETATM   45  O3  UNL     1       8.743  16.294  36.666  1.00  0.00    -0.595 OA
HETATM   46  O4  UNL     1      10.812  15.055  36.834  1.00  0.00    -0.595 OA
HETATM   47  O5  UNL     1       8.958  14.513  38.506  1.00  0.00    -0.595 OA
ENDBRANCH  43  44
ENDBRANCH  13  43
BRANCH  12  48
HETATM   48  N5  UNL     1       9.256  17.967  40.912  1.00  0.00    -0.053 N 
ATOM     49  H53 UNL     1       9.721  18.582  40.245  1.00  0.00     0.277 HD
ATOM     50  H52 UNL     1       8.372  17.887  40.409  1.00  0.00     0.277 HD
ATOM     51  H51 UNL     1       9.161  18.371  41.844  1.00  0.00     0.277 HD
ENDBRANCH  12  48
BRANCH  10  52
HETATM   52  N4  UNL     1       8.715  15.167  44.149  1.00  0.00    -0.331 N 
ATOM     53  H42 UNL     1       9.509  14.632  43.799  1.00  0.00     0.177 HD
ATOM     54  H41 UNL     1       7.938  14.717  44.633  1.00  0.00     0.177 HD
ENDBRANCH  10  52
TORSDOF 14
ENDMDL
MODEL 5
REMARK VINA RESULT: -7.490372067      4.004      6.354
REMARK  14 active torsions:
REMARK  status: ('A' for Active; 'I' for Inactive)
REMARK    1  A    between atoms: C2_2  and  O1_3 
REMARK       I    between atoms: N1_7  and  C4_8 
REMARK       I    between atoms: C4_8  and  N3_12 
REMARK    2  A    between atoms: N3_12  and  N4_14 
REMARK    3  A    between atoms: C5_17  and  N5_18 
REMARK    4  A    between atoms: C6_22  and  C7_23 
REMARK    5  A    between atoms: C7_23  and  S1_24 
REMARK    6  A    between atoms: C8_28  and  N6_29 
REMARK    7  A    between atoms: N7_31  and  C9_33 
REMARK    8  A    between atoms: N8_35  and  N9_36 
REMARK       I    between atoms: N9_36  and  C11_38 
REMARK    9  A    between atoms: C11_38  and  C12_40 
REMARK   10  A    between atoms: C12_40  and  N10_41 
REMARK   11  A    between atoms: C12_40  and  C13_45 
REMARK   12  A    between atoms: C13_45  and  O7_46 
REMARK   13  A    between atoms: C13_45  and  C14_48 
REMARK   14  A    between atoms: C14_48  and  O8_49 
ROOT
HETATM    1  C1  UNL     1      10.651  17.171  37.968  1.00  0.00     0.063 C 
HETATM    2  C2  UNL     1      11.485  17.386  39.214  1.00  0.00     0.179 C 
HETATM    3  C3  UNL     1      10.956  16.575  40.339  1.00  0.00     0.280 C 
HETATM    4  O2  UNL     1       9.870  15.963  40.328  1.00  0.00    -0.269 OA
HETATM    5  N1  UNL     1      11.769  16.514  41.495  1.00  0.00    -0.113 N 
HETATM    6  C4  UNL     1      11.197  16.199  42.741  1.00  0.00     0.697 C 
HETATM    7  N2  UNL     1      10.588  15.078  42.940  1.00  0.00    -0.233 N 
ATOM      8  H21 UNL     1      10.173  14.849  43.843  1.00  0.00     0.174 HD
ATOM      9  H22 UNL     1      10.545  14.439  42.146  1.00  0.00     0.174 HD
HETATM   10  N3  UNL     1      11.257  17.102  43.863  1.00  0.00    -0.139 N 
ATOM     11  H3  UNL     1      11.551  16.771  44.782  1.00  0.00     0.205 HD
HETATM   12  C5  UNL     1      13.170  16.770  41.404  1.00  0.00     0.341 C 
HETATM   13  C6  UNL     1      13.676  16.777  40.015  1.00  0.00     0.014 C 
HETATM   14  C8  UNL     1      12.902  17.061  39.006  1.00  0.00     0.076 C 
ENDROOT
BRANCH  14  15
HETATM   15  N6  UNL     1      13.362  17.074  37.657  1.00  0.00    -0.299 N 
HETATM   16  N7  UNL     1      13.639  16.026  37.008  1.00  0.00    -0.284 N 
ATOM     17  H7  UNL     1      13.533  15.116  37.457  1.00  0.00     0.188 HD
ATOM     18  H6  UNL     1      13.474  17.975  37.193  1.00  0.00     0.186 HD
BRANCH  16  19
HETATM   19  C9  UNL     1      14.099  16.091  35.651  1.00  0.00     0.141 A 
HETATM   20  C10 UNL     1      13.502  16.791  34.597  1.00  0.00     0.171 A 
HETATM   21  N8  UNL     1      14.215  16.618  33.474  1.00  0.00    -0.210 N 
HETATM   22  C15 UNL     1      15.242  15.821  33.830  1.00  0.00     0.347 A 
HETATM   23  O9  UNL     1      16.134  15.444  32.999  1.00  0.00    -0.245 OA
HETATM   24  N11 UNL     1      15.168  15.512  35.119  1.00  0.00    -0.291 N 
ATOM     25  H11 UNL     1      15.830  14.921  35.621  1.00  0.00     0.172 HD
BRANCH  21  26
HETATM   26  N9  UNL     1      13.989  17.131  32.182  1.00  0.00    -0.258 N 
HETATM   27  C11 UNL     1      14.308  18.440  31.767  1.00  0.00     0.270 C 
HETATM   28  O6  UNL     1      14.840  19.307  32.520  1.00  0.00    -0.269 OA
ATOM     29  H9  UNL     1      13.564  16.508  31.495  1.00  0.00     0.190 HD
BRANCH  27  30
HETATM   30  C12 UNL     1      14.018  18.864  30.371  1.00  0.00     0.306 C 
BRANCH  30  31
HETATM   31  N10 UNL     1      14.588  20.179  30.142  1.00  0.00    -0.064 N 
ATOM     32 3H10 UNL     1      13.891  20.920  30.215  1.00  0.00     0.275 HD
ATOM     33 2H10 UNL     1      15.195  20.476  30.906  1.00  0.00     0.275 HD
ATOM     34 1H10 UNL     1      15.067  20.186  29.242  1.00  0.00     0.275 HD
ENDBRANCH  30  31
BRANCH  30  35
HETATM   35  C13 UNL     1      12.535  19.005  30.095  1.00  0.00     0.181 C 
BRANCH  35  36
HETATM   36  O7  UNL     1      11.809  19.502  31.153  1.00  0.00    -0.391 OA
ATOM     37  H7  UNL     1      10.938  19.801  30.921  1.00  0.00     0.210 HD
ENDBRANCH  35  36
BRANCH  35  38
HETATM   38  C14 UNL     1      12.288  19.782  28.816  1.00  0.00     0.198 C 
BRANCH  38  39
HETATM   39  O8  UNL     1      11.782  21.048  29.067  1.00  0.00    -0.398 OA
ATOM     40  H8  UNL     1      10.860  21.112  28.846  1.00  0.00     0.209 HD
ENDBRANCH  38  39
ENDBRANCH  35  38
ENDBRANCH  30  35
ENDBRANCH  27  30
ENDBRANCH  21  26
ENDBRANCH  16  19
ENDBRANCH  14  15
BRANCH   2  41
HETATM   41  O1  UNL     1      11.340  18.731  39.614  1.00  0.00    -0.374 OA
ATOM     42  H1  UNL     1      12.193  19.148  39.566  1.00  0.00     0.211 HD
ENDBRANCH   2  41
BRANCH  13  43
HETATM   43  C7  UNL     1      15.101  16.450  39.791  1.00  0.00     0.205 C 
BRANCH  43  44
HETATM   44  S1  UNL     1      15.422  14.785  39.352  1.00  0.00     0.105 S 
HETATM   45  O3  UNL     1      16.249  14.657  38.129  1.00  0.00    -0.595 OA
HETATM   46  O4  UNL     1      16.225  14.184  40.500  1.00  0.00    -0.595 OA
HETATM   47  O5  UNL     1      14.054  13.855  39.195  1.00  0.00    -0.595 OA
ENDBRANCH  43  44
ENDBRANCH  13  43
BRANCH  12  48
HETATM   48  N5  UNL     1      13.827  15.668  42.135  1.00  0.00    -0.053 N 
ATOM     49  H53 UNL     1      13.701  15.716  43.146  1.00  0.00     0.277 HD
ATOM     50  H52 UNL     1      13.378  14.762  41.999  1.00  0.00     0.277 HD
ATOM     51  H51 UNL     1      14.805  15.686  41.844  1.00  0.00     0.277 HD
ENDBRANCH  12  48
BRANCH  10  52
HETATM   52  N4  UNL     1      10.905  18.447  43.667  1.00  0.00    -0.331 N 
ATOM     53  H42 UNL     1      10.299  18.701  42.887  1.00  0.00     0.177 HD
ATOM     54  H41 UNL     1      11.265  19.148  44.314  1.00  0.00     0.177 HD
ENDBRANCH  10  52
TORSDOF 14
ENDMDL
