MODEL 1
REMARK VINA RESULT: -7.850043852      0.000      0.000
REMARK  13 active torsions:
REMARK  status: ('A' for Active; 'I' for Inactive)
REMARK    1  A    between atoms: O1_1  and  C1_3 
REMARK    2  A    between atoms: C1_3  and  C2_4 
REMARK    3  A    between atoms: C2_4  and  C3_5 
REMARK    4  A    between atoms: C3_5  and  C4_6 
REMARK    5  A    between atoms: C4_6  and  S1_7 
REMARK    6  A    between atoms: S1_7  and  C5_8 
REMARK    7  A    between atoms: C5_8  and  C6_9 
REMARK    8  A    between atoms: C12_16  and  N1_17 
REMARK    9  A    between atoms: C16_24  and  C17_25 
REMARK   10  A    between atoms: C17_25  and  O3_26 
REMARK   11  A    between atoms: C18_28  and  O4_29 
REMARK   12  A    between atoms: C19_31  and  O5_32 
REMARK   13  A    between atoms: C20_34  and  O6_35 
ROOT
HETATM    1  C6  UNL     1      -3.199   2.211  14.288  1.00  0.00     0.085 C 
HETATM    2  S2  UNL     1      -4.250   2.568  15.684  1.00  0.00    -0.160 SA
HETATM    3  C7  UNL     1      -3.852   1.659  17.186  1.00  0.00     0.081 C 
HETATM    4  C8  UNL     1      -4.384   0.232  17.074  1.00  0.00     0.019 C 
HETATM    5  C9  UNL     1      -4.705  -0.027  15.610  1.00  0.00     0.014 C 
HETATM    6  C10 UNL     1      -3.407  -0.266  14.961  1.00  0.00     0.018 C 
HETATM    7  C11 UNL     1      -2.526  -0.866  16.065  1.00  0.00     0.033 C 
HETATM    8  C12 UNL     1      -3.308  -0.767  17.353  1.00  0.00     0.098 C 
HETATM    9  C20 UNL     1      -2.724   0.819  14.235  1.00  0.00     0.137 C 
ENDROOT
BRANCH   8  10
HETATM   10  N1  UNL     1      -3.802  -2.047  17.792  1.00  0.00    -0.317 N 
HETATM   11  C13 UNL     1      -4.929  -2.635  17.333  1.00  0.00     0.185 A 
HETATM   12  N2  UNL     1      -5.078  -3.812  17.963  1.00  0.00    -0.350 N 
HETATM   13  C14 UNL     1      -4.037  -3.966  18.825  1.00  0.00     0.093 A 
ATOM     14  H2  UNL     1      -5.840  -4.476  17.820  1.00  0.00     0.166 HD
HETATM   15  C15 UNL     1      -3.242  -2.858  18.712  1.00  0.00     0.172 A 
HETATM   16  C19 UNL     1      -3.775  -5.108  19.735  1.00  0.00     0.203 C 
HETATM   17  O2  UNL     1      -2.084  -2.770  19.508  1.00  0.00    -0.324 OA
HETATM   18  C16 UNL     1      -1.607  -3.968  20.099  1.00  0.00     0.185 C 
HETATM   19  C18 UNL     1      -2.703  -4.777  20.725  1.00  0.00     0.184 C 
BRANCH  18  20
HETATM   20  C17 UNL     1      -0.892  -4.744  19.027  1.00  0.00     0.199 C 
BRANCH  20  21
HETATM   21  O3  UNL     1      -0.086  -5.750  19.497  1.00  0.00    -0.398 OA
ATOM     22  H3  UNL     1       0.835  -5.644  19.291  1.00  0.00     0.209 HD
ENDBRANCH  20  21
ENDBRANCH  18  20
BRANCH  19  23
HETATM   23  O4  UNL     1      -2.147  -5.961  21.208  1.00  0.00    -0.390 OA
ATOM     24  H4  UNL     1      -2.848  -6.594  21.315  1.00  0.00     0.210 HD
ENDBRANCH  19  23
BRANCH  16  25
HETATM   25  O5  UNL     1      -4.965  -5.444  20.417  1.00  0.00    -0.387 OA
ATOM     26  H5  UNL     1      -5.294  -6.272  20.087  1.00  0.00     0.210 HD
ENDBRANCH  16  25
ENDBRANCH   8  10
BRANCH   9  27
HETATM   27  O6  UNL     1      -2.637   0.408  12.858  1.00  0.00    -0.394 OA
ATOM     28  H6  UNL     1      -1.779   0.030  12.704  1.00  0.00     0.210 HD
ENDBRANCH   9  27
BRANCH   1  29
HETATM   29  C5  UNL     1      -2.131   3.282  14.124  1.00  0.00     0.091 C 
BRANCH  29  30
HETATM   30  S1  UNL     1      -0.561   2.972  14.854  1.00  0.00    -0.168 SA
BRANCH  30  31
HETATM   31  C4  UNL     1      -0.490   2.451  16.551  1.00  0.00     0.074 C 
BRANCH  31  32
HETATM   32  C3  UNL     1       0.283   1.136  16.596  1.00  0.00     0.012 C 
BRANCH  32  33
HETATM   33  C2  UNL     1       0.359   0.554  17.986  1.00  0.00     0.027 C 
BRANCH  33  34
HETATM   34  C1  UNL     1      -0.686   1.325  18.805  1.00  0.00     0.164 C 
BRANCH  34  35
HETATM   35  O1  UNL     1      -1.245   0.361  19.671  1.00  0.00    -0.401 OA
ATOM     36  H1  UNL     1      -2.061   0.746  19.966  1.00  0.00     0.209 HD
ENDBRANCH  34  35
ENDBRANCH  33  34
ENDBRANCH  32  33
ENDBRANCH  31  32
ENDBRANCH  30  31
ENDBRANCH  29  30
ENDBRANCH   1  29
TORSDOF 13
ENDMDL
MODEL 2
REMARK VINA RESULT: -7.844048428      2.665      3.109
REMARK  13 active torsions:
REMARK  status: ('A' for Active; 'I' for Inactive)
REMARK    1  A    between atoms: O1_1  and  C1_3 
REMARK    2  A    between atoms: C1_3  and  C2_4 
REMARK    3  A    between atoms: C2_4  and  C3_5 
REMARK    4  A    between atoms: C3_5  and  C4_6 
REMARK    5  A    between atoms: C4_6  and  S1_7 
REMARK    6  A    between atoms: S1_7  and  C5_8 
REMARK    7  A    between atoms: C5_8  and  C6_9 
REMARK    8  A    between atoms: C12_16  and  N1_17 
REMARK    9  A    between atoms: C16_24  and  C17_25 
REMARK   10  A    between atoms: C17_25  and  O3_26 
REMARK   11  A    between atoms: C18_28  and  O4_29 
REMARK   12  A    between atoms: C19_31  and  O5_32 
REMARK   13  A    between atoms: C20_34  and  O6_35 
ROOT
HETATM    1  C6  UNL     1      -2.154   1.818  14.359  1.00  0.00     0.085 C 
HETATM    2  S2  UNL     1      -3.935   1.816  14.263  1.00  0.00    -0.160 SA
HETATM    3  C7  UNL     1      -4.781   1.753  15.850  1.00  0.00     0.081 C 
HETATM    4  C8  UNL     1      -4.748   0.324  16.388  1.00  0.00     0.019 C 
HETATM    5  C9  UNL     1      -3.695  -0.441  15.603  1.00  0.00     0.014 C 
HETATM    6  C10 UNL     1      -2.402  -0.009  16.157  1.00  0.00     0.018 C 
HETATM    7  C11 UNL     1      -2.708   0.350  17.618  1.00  0.00     0.033 C 
HETATM    8  C12 UNL     1      -4.208   0.285  17.781  1.00  0.00     0.098 C 
HETATM    9  C20 UNL     1      -1.613   1.036  15.482  1.00  0.00     0.137 C 
ENDROOT
BRANCH   8  10
HETATM   10  N1  UNL     1      -4.626  -0.867  18.536  1.00  0.00    -0.317 N 
HETATM   11  C13 UNL     1      -5.912  -1.185  18.806  1.00  0.00     0.185 A 
HETATM   12  N2  UNL     1      -5.925  -2.317  19.528  1.00  0.00    -0.350 N 
HETATM   13  C14 UNL     1      -4.638  -2.715  19.716  1.00  0.00     0.093 A 
ATOM     14  H2  UNL     1      -6.756  -2.796  19.877  1.00  0.00     0.166 HD
HETATM   15  C15 UNL     1      -3.830  -1.803  19.092  1.00  0.00     0.172 A 
HETATM   16  C19 UNL     1      -4.156  -3.909  20.453  1.00  0.00     0.203 C 
HETATM   17  O2  UNL     1      -2.436  -1.988  19.139  1.00  0.00    -0.324 OA
HETATM   18  C16 UNL     1      -1.960  -3.276  19.499  1.00  0.00     0.185 C 
HETATM   19  C18 UNL     1      -2.680  -3.843  20.686  1.00  0.00     0.184 C 
BRANCH  18  20
HETATM   20  C17 UNL     1      -2.104  -4.161  18.292  1.00  0.00     0.199 C 
BRANCH  20  21
HETATM   21  O3  UNL     1      -1.513  -3.671  17.155  1.00  0.00    -0.398 OA
ATOM     22  H3  UNL     1      -2.113  -3.518  16.435  1.00  0.00     0.209 HD
ENDBRANCH  20  21
ENDBRANCH  18  20
BRANCH  19  23
HETATM   23  O4  UNL     1      -2.196  -5.131  20.912  1.00  0.00    -0.390 OA
ATOM     24  H4  UNL     1      -2.919  -5.739  20.809  1.00  0.00     0.210 HD
ENDBRANCH  19  23
BRANCH  16  25
HETATM   25  O5  UNL     1      -4.829  -3.995  21.692  1.00  0.00    -0.387 OA
ATOM     26  H5  UNL     1      -5.691  -4.371  21.556  1.00  0.00     0.210 HD
ENDBRANCH  16  25
ENDBRANCH   8  10
BRANCH   9  27
HETATM   27  O6  UNL     1      -0.376   0.424  15.072  1.00  0.00    -0.394 OA
ATOM     28  H6  UNL     1       0.211   0.388  15.818  1.00  0.00     0.210 HD
ENDBRANCH   9  27
BRANCH   1  29
HETATM   29  C5  UNL     1      -1.603   3.229  14.208  1.00  0.00     0.091 C 
BRANCH  29  30
HETATM   30  S1  UNL     1      -2.344   4.491  15.185  1.00  0.00    -0.168 SA
BRANCH  30  31
HETATM   31  C4  UNL     1      -2.435   4.273  16.946  1.00  0.00     0.074 C 
BRANCH  31  32
HETATM   32  C3  UNL     1      -2.630   5.652  17.569  1.00  0.00     0.012 C 
BRANCH  32  33
HETATM   33  C2  UNL     1      -4.083   5.983  17.804  1.00  0.00     0.027 C 
BRANCH  33  34
HETATM   34  C1  UNL     1      -4.154   7.517  17.790  1.00  0.00     0.164 C 
BRANCH  34  35
HETATM   35  O1  UNL     1      -4.196   7.862  16.422  1.00  0.00    -0.401 OA
ATOM     36  H1  UNL     1      -5.082   8.171  16.278  1.00  0.00     0.209 HD
ENDBRANCH  34  35
ENDBRANCH  33  34
ENDBRANCH  32  33
ENDBRANCH  31  32
ENDBRANCH  30  31
ENDBRANCH  29  30
ENDBRANCH   1  29
TORSDOF 13
ENDMDL
MODEL 3
REMARK VINA RESULT: -7.796836314      2.281      4.269
REMARK  13 active torsions:
REMARK  status: ('A' for Active; 'I' for Inactive)
REMARK    1  A    between atoms: O1_1  and  C1_3 
REMARK    2  A    between atoms: C1_3  and  C2_4 
REMARK    3  A    between atoms: C2_4  and  C3_5 
REMARK    4  A    between atoms: C3_5  and  C4_6 
REMARK    5  A    between atoms: C4_6  and  S1_7 
REMARK    6  A    between atoms: S1_7  and  C5_8 
REMARK    7  A    between atoms: C5_8  and  C6_9 
REMARK    8  A    between atoms: C12_16  and  N1_17 
REMARK    9  A    between atoms: C16_24  and  C17_25 
REMARK   10  A    between atoms: C17_25  and  O3_26 
REMARK   11  A    between atoms: C18_28  and  O4_29 
REMARK   12  A    between atoms: C19_31  and  O5_32 
REMARK   13  A    between atoms: C20_34  and  O6_35 
ROOT
HETATM    1  C6  UNL     1      -2.889   3.339  15.207  1.00  0.00     0.085 C 
HETATM    2  S2  UNL     1      -1.250   2.693  14.930  1.00  0.00    -0.160 SA
HETATM    3  C7  UNL     1      -1.116   0.900  15.016  1.00  0.00     0.081 C 
HETATM    4  C8  UNL     1      -1.108   0.459  16.478  1.00  0.00     0.019 C 
HETATM    5  C9  UNL     1      -1.603   1.628  17.315  1.00  0.00     0.014 C 
HETATM    6  C10 UNL     1      -3.064   1.645  17.139  1.00  0.00     0.018 C 
HETATM    7  C11 UNL     1      -3.440   0.180  16.879  1.00  0.00     0.033 C 
HETATM    8  C12 UNL     1      -2.146  -0.585  16.731  1.00  0.00     0.098 C 
HETATM    9  C20 UNL     1      -3.687   2.559  16.165  1.00  0.00     0.137 C 
ENDROOT
BRANCH   8  10
HETATM   10  N1  UNL     1      -1.870  -1.417  17.873  1.00  0.00    -0.317 N 
HETATM   11  C13 UNL     1      -0.886  -1.188  18.771  1.00  0.00     0.185 A 
HETATM   12  N2  UNL     1      -0.922  -2.162  19.695  1.00  0.00    -0.350 N 
HETATM   13  C14 UNL     1      -1.936  -3.011  19.377  1.00  0.00     0.093 A 
ATOM     14  H2  UNL     1      -0.297  -2.250  20.497  1.00  0.00     0.166 HD
HETATM   15  C15 UNL     1      -2.525  -2.538  18.236  1.00  0.00     0.172 A 
HETATM   16  C19 UNL     1      -2.357  -4.233  20.105  1.00  0.00     0.203 C 
HETATM   17  O2  UNL     1      -3.614  -3.246  17.693  1.00  0.00    -0.324 OA
HETATM   18  C16 UNL     1      -4.271  -4.179  18.534  1.00  0.00     0.185 C 
HETATM   19  C18 UNL     1      -3.310  -5.048  19.290  1.00  0.00     0.184 C 
BRANCH  18  20
HETATM   20  C17 UNL     1      -5.157  -3.399  19.465  1.00  0.00     0.199 C 
BRANCH  20  21
HETATM   21  O3  UNL     1      -6.130  -4.145  20.082  1.00  0.00    -0.398 OA
ATOM     22  H3  UNL     1      -5.803  -4.755  20.733  1.00  0.00     0.209 HD
ENDBRANCH  20  21
ENDBRANCH  18  20
BRANCH  19  23
HETATM   23  O4  UNL     1      -4.046  -5.874  20.139  1.00  0.00    -0.390 OA
ATOM     24  H4  UNL     1      -3.720  -5.753  21.023  1.00  0.00     0.210 HD
ENDBRANCH  19  23
BRANCH  16  25
HETATM   25  O5  UNL     1      -1.218  -5.006  20.419  1.00  0.00    -0.387 OA
ATOM     26  H5  UNL     1      -1.092  -5.012  21.361  1.00  0.00     0.210 HD
ENDBRANCH  16  25
ENDBRANCH   8  10
BRANCH   9  27
HETATM   27  O6  UNL     1      -4.525   3.457  16.916  1.00  0.00    -0.394 OA
ATOM     28  H6  UNL     1      -5.187   3.817  16.337  1.00  0.00     0.210 HD
ENDBRANCH   9  27
BRANCH   1  29
HETATM   29  C5  UNL     1      -3.573   3.668  13.888  1.00  0.00     0.091 C 
BRANCH  29  30
HETATM   30  S1  UNL     1      -4.886   2.616  13.377  1.00  0.00    -0.168 SA
BRANCH  30  31
HETATM   31  C4  UNL     1      -4.546   0.897  13.083  1.00  0.00     0.074 C 
BRANCH  31  32
HETATM   32  C3  UNL     1      -5.654   0.089  13.751  1.00  0.00     0.012 C 
BRANCH  32  33
HETATM   33  C2  UNL     1      -6.565   0.942  14.598  1.00  0.00     0.027 C 
BRANCH  33  34
HETATM   34  C1  UNL     1      -7.505  -0.048  15.304  1.00  0.00     0.164 C 
BRANCH  34  35
HETATM   35  O1  UNL     1      -8.708   0.668  15.485  1.00  0.00    -0.401 OA
ATOM     36  H1  UNL     1      -9.352   0.190  14.977  1.00  0.00     0.209 HD
ENDBRANCH  34  35
ENDBRANCH  33  34
ENDBRANCH  32  33
ENDBRANCH  31  32
ENDBRANCH  30  31
ENDBRANCH  29  30
ENDBRANCH   1  29
TORSDOF 13
ENDMDL
MODEL 4
REMARK VINA RESULT: -7.753987022      3.768      6.101
REMARK  13 active torsions:
REMARK  status: ('A' for Active; 'I' for Inactive)
REMARK    1  A    between atoms: O1_1  and  C1_3 
REMARK    2  A    between atoms: C1_3  and  C2_4 
REMARK    3  A    between atoms: C2_4  and  C3_5 
REMARK    4  A    between atoms: C3_5  and  C4_6 
REMARK    5  A    between atoms: C4_6  and  S1_7 
REMARK    6  A    between atoms: S1_7  and  C5_8 
REMARK    7  A    between atoms: C5_8  and  C6_9 
REMARK    8  A    between atoms: C12_16  and  N1_17 
REMARK    9  A    between atoms: C16_24  and  C17_25 
REMARK   10  A    between atoms: C17_25  and  O3_26 
REMARK   11  A    between atoms: C18_28  and  O4_29 
REMARK   12  A    between atoms: C19_31  and  O5_32 
REMARK   13  A    between atoms: C20_34  and  O6_35 
ROOT
HETATM    1  C6  UNL     1      -6.315   1.933  13.573  1.00  0.00     0.085 C 
HETATM    2  S2  UNL     1      -4.643   2.553  13.517  1.00  0.00    -0.160 SA
HETATM    3  C7  UNL     1      -3.373   1.349  13.939  1.00  0.00     0.081 C 
HETATM    4  C8  UNL     1      -3.321   1.174  15.455  1.00  0.00     0.019 C 
HETATM    5  C9  UNL     1      -4.598   1.766  16.032  1.00  0.00     0.014 C 
HETATM    6  C10 UNL     1      -5.646   0.768  15.770  1.00  0.00     0.018 C 
HETATM    7  C11 UNL     1      -4.907  -0.578  15.763  1.00  0.00     0.033 C 
HETATM    8  C12 UNL     1      -3.431  -0.268  15.835  1.00  0.00     0.098 C 
HETATM    9  C20 UNL     1      -6.543   0.915  14.610  1.00  0.00     0.137 C 
ENDROOT
BRANCH   8  10
HETATM   10  N1  UNL     1      -2.871  -0.574  17.126  1.00  0.00    -0.317 N 
HETATM   11  C13 UNL     1      -2.078   0.257  17.838  1.00  0.00     0.185 A 
HETATM   12  N2  UNL     1      -1.744  -0.357  18.984  1.00  0.00    -0.350 N 
HETATM   13  C14 UNL     1      -2.329  -1.584  18.994  1.00  0.00     0.093 A 
ATOM     14  H2  UNL     1      -1.152   0.031  19.720  1.00  0.00     0.166 HD
HETATM   15  C15 UNL     1      -3.033  -1.714  17.828  1.00  0.00     0.172 A 
HETATM   16  C19 UNL     1      -2.245  -2.620  20.053  1.00  0.00     0.203 C 
HETATM   17  O2  UNL     1      -3.739  -2.908  17.592  1.00  0.00    -0.324 OA
HETATM   18  C16 UNL     1      -3.988  -3.751  18.706  1.00  0.00     0.185 C 
HETATM   19  C18 UNL     1      -2.777  -3.932  19.571  1.00  0.00     0.184 C 
BRANCH  18  20
HETATM   20  C17 UNL     1      -5.131  -3.150  19.476  1.00  0.00     0.199 C 
BRANCH  20  21
HETATM   21  O3  UNL     1      -5.933  -4.067  20.108  1.00  0.00    -0.398 OA
ATOM     22  H3  UNL     1      -6.412  -3.723  20.853  1.00  0.00     0.209 HD
ENDBRANCH  20  21
ENDBRANCH  18  20
BRANCH  19  23
HETATM   23  O4  UNL     1      -3.141  -4.708  20.671  1.00  0.00    -0.390 OA
ATOM     24  H4  UNL     1      -2.347  -4.998  21.103  1.00  0.00     0.210 HD
ENDBRANCH  19  23
BRANCH  16  25
HETATM   25  O5  UNL     1      -0.899  -2.770  20.453  1.00  0.00    -0.387 OA
ATOM     26  H5  UNL     1      -0.538  -1.918  20.670  1.00  0.00     0.210 HD
ENDBRANCH  16  25
ENDBRANCH   8  10
BRANCH   9  27
HETATM   27  O6  UNL     1      -7.876   1.069  15.132  1.00  0.00    -0.394 OA
ATOM     28  H6  UNL     1      -8.426   0.379  14.780  1.00  0.00     0.210 HD
ENDBRANCH   9  27
BRANCH   1  29
HETATM   29  C5  UNL     1      -6.811   1.581  12.178  1.00  0.00     0.091 C 
BRANCH  29  30
HETATM   30  S1  UNL     1      -8.198   2.475  11.568  1.00  0.00    -0.168 SA
BRANCH  30  31
HETATM   31  C4  UNL     1      -8.332   4.208  11.933  1.00  0.00     0.074 C 
BRANCH  31  32
HETATM   32  C3  UNL     1      -7.900   4.975  10.687  1.00  0.00     0.012 C 
BRANCH  32  33
HETATM   33  C2  UNL     1      -8.206   4.229   9.411  1.00  0.00     0.027 C 
BRANCH  33  34
HETATM   34  C1  UNL     1      -7.464   4.998   8.307  1.00  0.00     0.164 C 
BRANCH  34  35
HETATM   35  O1  UNL     1      -8.190   4.719   7.128  1.00  0.00    -0.401 OA
ATOM     36  H1  UNL     1      -8.897   5.353   7.125  1.00  0.00     0.209 HD
ENDBRANCH  34  35
ENDBRANCH  33  34
ENDBRANCH  32  33
ENDBRANCH  31  32
ENDBRANCH  30  31
ENDBRANCH  29  30
ENDBRANCH   1  29
TORSDOF 13
ENDMDL
MODEL 5
REMARK VINA RESULT: -7.750725017      2.466      2.894
REMARK  13 active torsions:
REMARK  status: ('A' for Active; 'I' for Inactive)
REMARK    1  A    between atoms: O1_1  and  C1_3 
REMARK    2  A    between atoms: C1_3  and  C2_4 
REMARK    3  A    between atoms: C2_4  and  C3_5 
REMARK    4  A    between atoms: C3_5  and  C4_6 
REMARK    5  A    between atoms: C4_6  and  S1_7 
REMARK    6  A    between atoms: S1_7  and  C5_8 
REMARK    7  A    between atoms: C5_8  and  C6_9 
REMARK    8  A    between atoms: C12_16  and  N1_17 
REMARK    9  A    between atoms: C16_24  and  C17_25 
REMARK   10  A    between atoms: C17_25  and  O3_26 
REMARK   11  A    between atoms: C18_28  and  O4_29 
REMARK   12  A    between atoms: C19_31  and  O5_32 
REMARK   13  A    between atoms: C20_34  and  O6_35 
ROOT
HETATM    1  C6  UNL     1      -1.949   2.223  14.071  1.00  0.00     0.085 C 
HETATM    2  S2  UNL     1      -3.718   2.025  13.977  1.00  0.00    -0.160 SA
HETATM    3  C7  UNL     1      -4.504   1.487  15.505  1.00  0.00     0.081 C 
HETATM    4  C8  UNL     1      -4.286  -0.013  15.689  1.00  0.00     0.019 C 
HETATM    5  C9  UNL     1      -3.172  -0.437  14.744  1.00  0.00     0.014 C 
HETATM    6  C10 UNL     1      -1.925   0.008  15.384  1.00  0.00     0.018 C 
HETATM    7  C11 UNL     1      -2.227  -0.028  16.888  1.00  0.00     0.033 C 
HETATM    8  C12 UNL     1      -3.704  -0.312  17.032  1.00  0.00     0.098 C 
HETATM    9  C20 UNL     1      -1.286   1.271  14.976  1.00  0.00     0.137 C 
ENDROOT
BRANCH   8  10
HETATM   10  N1  UNL     1      -3.959  -1.652  17.493  1.00  0.00    -0.317 N 
HETATM   11  C13 UNL     1      -4.979  -2.431  17.067  1.00  0.00     0.185 A 
HETATM   12  N2  UNL     1      -4.908  -3.608  17.709  1.00  0.00    -0.350 N 
HETATM   13  C14 UNL     1      -3.837  -3.571  18.545  1.00  0.00     0.093 A 
ATOM     14  H2  UNL     1      -5.548  -4.394  17.590  1.00  0.00     0.166 HD
HETATM   15  C15 UNL     1      -3.247  -2.344  18.405  1.00  0.00     0.172 A 
HETATM   16  C19 UNL     1      -3.361  -4.640  19.457  1.00  0.00     0.203 C 
HETATM   17  O2  UNL     1      -2.104  -2.050  19.171  1.00  0.00    -0.324 OA
HETATM   18  C16 UNL     1      -1.413  -3.141  19.759  1.00  0.00     0.185 C 
HETATM   19  C18 UNL     1      -2.340  -4.119  20.417  1.00  0.00     0.184 C 
BRANCH  18  20
HETATM   20  C17 UNL     1      -0.601  -3.794  18.676  1.00  0.00     0.199 C 
BRANCH  20  21
HETATM   21  O3  UNL     1       0.430  -4.577  19.133  1.00  0.00    -0.398 OA
ATOM     22  H3  UNL     1       0.959  -4.969  18.449  1.00  0.00     0.209 HD
ENDBRANCH  20  21
ENDBRANCH  18  20
BRANCH  19  23
HETATM   23  O4  UNL     1      -1.578  -5.184  20.895  1.00  0.00    -0.390 OA
ATOM     24  H4  UNL     1      -0.691  -5.083  20.569  1.00  0.00     0.210 HD
ENDBRANCH  19  23
BRANCH  16  25
HETATM   25  O5  UNL     1      -4.459  -5.168  20.171  1.00  0.00    -0.387 OA
ATOM     26  H5  UNL     1      -4.682  -6.022  19.820  1.00  0.00     0.210 HD
ENDBRANCH  16  25
ENDBRANCH   8  10
BRANCH   9  27
HETATM   27  O6  UNL     1       0.002   0.928  14.432  1.00  0.00    -0.394 OA
ATOM     28  H6  UNL     1       0.503   1.725  14.300  1.00  0.00     0.210 HD
ENDBRANCH   9  27
BRANCH   1  29
HETATM   29  C5  UNL     1      -1.574   3.686  14.258  1.00  0.00     0.091 C 
BRANCH  29  30
HETATM   30  S1  UNL     1      -2.589   4.646  15.327  1.00  0.00    -0.168 SA
BRANCH  30  31
HETATM   31  C4  UNL     1      -2.559   4.310  17.072  1.00  0.00     0.074 C 
BRANCH  31  32
HETATM   32  C3  UNL     1      -2.718   5.642  17.799  1.00  0.00     0.012 C 
BRANCH  32  33
HETATM   33  C2  UNL     1      -4.147   6.128  17.815  1.00  0.00     0.027 C 
BRANCH  33  34
HETATM   34  C1  UNL     1      -4.054   7.659  17.747  1.00  0.00     0.164 C 
BRANCH  34  35
HETATM   35  O1  UNL     1      -2.717   7.952  18.098  1.00  0.00    -0.401 OA
ATOM     36  H1  UNL     1      -2.516   8.754  17.631  1.00  0.00     0.209 HD
ENDBRANCH  34  35
ENDBRANCH  33  34
ENDBRANCH  32  33
ENDBRANCH  31  32
ENDBRANCH  30  31
ENDBRANCH  29  30
ENDBRANCH   1  29
TORSDOF 13
ENDMDL
