MODEL 1
REMARK VINA RESULT: -9.607396548      0.000      0.000
REMARK  18 active torsions:
REMARK  status: ('A' for Active; 'I' for Inactive)
REMARK    1  A    between atoms: C2_8  and  S1_9 
REMARK    2  A    between atoms: S1_9  and  C3_10 
REMARK    3  A    between atoms: C3_10  and  C4_11 
REMARK    4  A    between atoms: C4_11  and  N5_12 
REMARK    5  A    between atoms: C5_19  and  S2_20 
REMARK    6  A    between atoms: S2_20  and  C6_21 
REMARK    7  A    between atoms: C6_21  and  C7_22 
REMARK    8  A    between atoms: C8_23  and  C9_24 
REMARK    9  A    between atoms: C11_30  and  N10_31 
REMARK   10  A    between atoms: N10_31  and  C12_33 
REMARK   11  A    between atoms: C12_33  and  C13_38 
REMARK   12  A    between atoms: N11_34  and  O4_36 
REMARK   13  A    between atoms: C13_38  and  N14_48 
REMARK       I    between atoms: N12_39  and  C14_41 
REMARK   14  A    between atoms: C14_41  and  C15_43 
REMARK   15  A    between atoms: C15_43  and  N13_44 
REMARK   16  A    between atoms: N14_48  and  C16_50 
REMARK   17  A    between atoms: C16_50  and  N15_52 
REMARK   18  A    between atoms: N15_52  and  N16_54 
ROOT
HETATM    1  C7  UNL     1      94.962  19.886   5.796  1.00  0.00    -0.027 C 
HETATM    2  C8  UNL     1      95.154  20.313   7.029  1.00  0.00     0.119 C 
HETATM    3  N9  UNL     1      94.011  20.543   7.876  1.00  0.00    -0.293 N 
HETATM    4  C10 UNL     1      93.343  21.377   8.775  1.00  0.00     0.251 C 
HETATM    5  O3  UNL     1      93.634  22.157   9.740  1.00  0.00    -0.271 OA
HETATM    6  C11 UNL     1      92.091  20.919   8.068  1.00  0.00     0.209 C 
HETATM    7  C17 UNL     1      92.891  19.620   8.016  1.00  0.00     0.187 C 
HETATM    8  S4  UNL     1      92.680  18.672   6.496  1.00  0.00    -0.136 SA
HETATM    9  C18 UNL     1      93.566  19.690   5.236  1.00  0.00     0.113 C 
ENDROOT
BRANCH   6  10
HETATM   10  N10 UNL     1      90.943  20.919   8.881  1.00  0.00    -0.356 N 
ATOM     11  H10 UNL     1      90.620  20.040   9.288  1.00  0.00     0.162 HD
BRANCH  10  12
HETATM   12  C12 UNL     1      90.225  22.109   9.147  1.00  0.00     0.167 C 
HETATM   13  N11 UNL     1      90.279  22.652  10.350  1.00  0.00    -0.250 N 
ATOM     14  H11 UNL     1      89.750  23.510  10.508  1.00  0.00     0.196 HD
BRANCH  13  15
HETATM   15  O4  UNL     1      90.992  22.147  11.390  1.00  0.00    -0.288 OA
ATOM     16  H4  UNL     1      91.777  22.546  11.748  1.00  0.00     0.244 HD
ENDBRANCH  13  15
BRANCH  12  17
HETATM   17  C13 UNL     1      89.406  22.804   8.174  1.00  0.00     0.156 C 
HETATM   18  N12 UNL     1      89.685  23.832   7.599  1.00  0.00    -0.308 N 
HETATM   19  C14 UNL     1      90.580  24.824   7.406  1.00  0.00     0.248 C 
ATOM     20  H12 UNL     1      88.894  24.041   6.989  1.00  0.00     0.170 HD
HETATM   21  O5  UNL     1      90.949  25.696   8.282  1.00  0.00    -0.271 OA
BRANCH  19  22
HETATM   22  C15 UNL     1      91.266  25.014   6.069  1.00  0.00     0.332 C 
BRANCH  22  23
HETATM   23  N13 UNL     1      90.337  24.556   5.063  1.00  0.00    -0.071 N 
ATOM     24 3H13 UNL     1      89.589  23.974   5.440  1.00  0.00     0.274 HD
ATOM     25 2H13 UNL     1      89.745  25.299   4.692  1.00  0.00     0.274 HD
ATOM     26 1H13 UNL     1      90.892  24.086   4.348  1.00  0.00     0.274 HD
ENDBRANCH  22  23
ENDBRANCH  19  22
BRANCH  17  27
HETATM   27  N14 UNL     1      88.125  22.176   7.906  1.00  0.00    -0.315 N 
ATOM     28  H14 UNL     1      88.078  21.215   7.567  1.00  0.00     0.170 HD
BRANCH  27  29
HETATM   29  C16 UNL     1      86.957  22.912   8.123  1.00  0.00     0.191 C 
HETATM   30  S3  UNL     1      85.923  23.213   6.896  1.00  0.00    -0.039 SA
BRANCH  29  31
HETATM   31  N15 UNL     1      86.602  23.436   9.405  1.00  0.00    -0.283 N 
ATOM     32  H15 UNL     1      85.933  22.919   9.974  1.00  0.00     0.188 HD
BRANCH  31  33
HETATM   33  N16 UNL     1      87.122  24.607   9.905  1.00  0.00    -0.343 N 
ATOM     34 2H16 UNL     1      86.468  25.278  10.308  1.00  0.00     0.176 HD
ATOM     35 1H16 UNL     1      88.119  24.825   9.889  1.00  0.00     0.176 HD
ENDBRANCH  31  33
ENDBRANCH  29  31
ENDBRANCH  27  29
ENDBRANCH  17  27
ENDBRANCH  12  17
ENDBRANCH  10  12
ENDBRANCH   6  10
BRANCH   2  36
HETATM   36  C9  UNL     1      96.456  20.538   7.594  1.00  0.00     0.227 C 
HETATM   37  O1  UNL     1      97.146  19.488   7.927  1.00  0.00    -0.643 OA
HETATM   38  O2  UNL     1      97.111  21.718   7.850  1.00  0.00    -0.643 OA
ENDBRANCH   2  36
BRANCH   1  39
HETATM   39  C6  UNL     1      96.046  19.587   4.871  1.00  0.00     0.120 C 
BRANCH  39  40
HETATM   40  S2  UNL     1      95.970  17.961   4.104  1.00  0.00    -0.087 SA
BRANCH  40  41
HETATM   41  C5  UNL     1      97.330  16.898   4.411  1.00  0.00     0.178 A 
HETATM   42  N5  UNL     1      97.621  16.229   5.521  1.00  0.00    -0.253 N 
HETATM   43  N6  UNL     1      98.768  15.577   5.326  1.00  0.00    -0.224 N 
HETATM   44  N7  UNL     1      99.205  15.820   4.118  1.00  0.00    -0.226 N 
ATOM     45  H6  UNL     1      99.232  14.982   6.012  1.00  0.00     0.210 HD
HETATM   46  N8  UNL     1      98.343  16.624   3.539  1.00  0.00    -0.263 N 
ATOM     47  H7  UNL     1     100.060  15.451   3.701  1.00  0.00     0.210 HD
ATOM     48  H8  UNL     1      98.419  16.987   2.589  1.00  0.00     0.190 HD
BRANCH  42  49
HETATM   49  C4  UNL     1      96.879  16.169   6.746  1.00  0.00     0.163 C 
BRANCH  49  50
HETATM   50  C3  UNL     1      97.717  15.641   7.889  1.00  0.00     0.104 C 
BRANCH  50  51
HETATM   51  S1  UNL     1      97.375  13.895   8.213  1.00  0.00    -0.090 SA
BRANCH  51  52
HETATM   52  C2  UNL     1      98.599  13.219   9.321  1.00  0.00     0.175 A 
HETATM   53  N1  UNL     1      98.466  12.194  10.177  1.00  0.00    -0.257 N 
HETATM   54  C1  UNL     1      97.282  11.378  10.398  1.00  0.00     0.177 C 
HETATM   55  N2  UNL     1      99.648  12.073  10.783  1.00  0.00    -0.003 NA
HETATM   56  N3  UNL     1     100.486  12.994  10.316  1.00  0.00    -0.224 N 
HETATM   57  N4  UNL     1      99.848  13.706   9.416  1.00  0.00    -0.266 N 
ATOM     58  H3  UNL     1     101.455  13.125  10.607  1.00  0.00     0.205 HD
ATOM     59  H4  UNL     1     100.231  14.487   8.883  1.00  0.00     0.190 HD
ENDBRANCH  51  52
ENDBRANCH  50  51
ENDBRANCH  49  50
ENDBRANCH  42  49
ENDBRANCH  40  41
ENDBRANCH  39  40
ENDBRANCH   1  39
TORSDOF 18
ENDMDL
MODEL 2
REMARK VINA RESULT: -9.540132726      2.528      3.947
REMARK  18 active torsions:
REMARK  status: ('A' for Active; 'I' for Inactive)
REMARK    1  A    between atoms: C2_8  and  S1_9 
REMARK    2  A    between atoms: S1_9  and  C3_10 
REMARK    3  A    between atoms: C3_10  and  C4_11 
REMARK    4  A    between atoms: C4_11  and  N5_12 
REMARK    5  A    between atoms: C5_19  and  S2_20 
REMARK    6  A    between atoms: S2_20  and  C6_21 
REMARK    7  A    between atoms: C6_21  and  C7_22 
REMARK    8  A    between atoms: C8_23  and  C9_24 
REMARK    9  A    between atoms: C11_30  and  N10_31 
REMARK   10  A    between atoms: N10_31  and  C12_33 
REMARK   11  A    between atoms: C12_33  and  C13_38 
REMARK   12  A    between atoms: N11_34  and  O4_36 
REMARK   13  A    between atoms: C13_38  and  N14_48 
REMARK       I    between atoms: N12_39  and  C14_41 
REMARK   14  A    between atoms: C14_41  and  C15_43 
REMARK   15  A    between atoms: C15_43  and  N13_44 
REMARK   16  A    between atoms: N14_48  and  C16_50 
REMARK   17  A    between atoms: C16_50  and  N15_52 
REMARK   18  A    between atoms: N15_52  and  N16_54 
ROOT
HETATM    1  C7  UNL     1      92.838  20.962   8.479  1.00  0.00    -0.027 C 
HETATM    2  C8  UNL     1      92.879  21.889   7.542  1.00  0.00     0.119 C 
HETATM    3  N9  UNL     1      91.771  22.798   7.407  1.00  0.00    -0.293 N 
HETATM    4  C10 UNL     1      90.851  23.440   6.575  1.00  0.00     0.251 C 
HETATM    5  O3  UNL     1      90.830  23.973   5.418  1.00  0.00    -0.271 OA
HETATM    6  C11 UNL     1      89.870  23.211   7.699  1.00  0.00     0.209 C 
HETATM    7  C17 UNL     1      91.128  23.484   8.521  1.00  0.00     0.187 C 
HETATM    8  S4  UNL     1      91.272  22.492  10.021  1.00  0.00    -0.136 SA
HETATM    9  C18 UNL     1      91.625  20.799   9.376  1.00  0.00     0.113 C 
ENDROOT
BRANCH   6  10
HETATM   10  N10 UNL     1      88.849  24.176   7.773  1.00  0.00    -0.356 N 
ATOM     11  H10 UNL     1      89.025  25.116   7.419  1.00  0.00     0.162 HD
BRANCH  10  12
HETATM   12  C12 UNL     1      87.584  23.871   8.328  1.00  0.00     0.167 C 
HETATM   13  N11 UNL     1      87.340  24.148   9.597  1.00  0.00    -0.250 N 
ATOM     14  H11 UNL     1      86.417  23.915   9.965  1.00  0.00     0.196 HD
BRANCH  13  15
HETATM   15  O4  UNL     1      88.233  24.723  10.444  1.00  0.00    -0.288 OA
ATOM     16  H4  UNL     1      88.278  24.549  11.377  1.00  0.00     0.244 HD
ENDBRANCH  13  15
BRANCH  12  17
HETATM   17  C13 UNL     1      86.495  23.257   7.594  1.00  0.00     0.156 C 
HETATM   18  N12 UNL     1      85.322  23.277   7.892  1.00  0.00    -0.308 N 
HETATM   19  C14 UNL     1      84.373  23.685   8.762  1.00  0.00     0.248 C 
ATOM     20  H12 UNL     1      84.834  22.754   7.164  1.00  0.00     0.170 HD
HETATM   21  O5  UNL     1      84.258  23.312   9.991  1.00  0.00    -0.271 OA
BRANCH  19  22
HETATM   22  C15 UNL     1      83.299  24.668   8.346  1.00  0.00     0.332 C 
BRANCH  22  23
HETATM   23  N13 UNL     1      83.768  25.977   8.734  1.00  0.00    -0.071 N 
ATOM     24 3H13 UNL     1      84.467  25.952   9.476  1.00  0.00     0.274 HD
ATOM     25 2H13 UNL     1      84.351  26.424   8.026  1.00  0.00     0.274 HD
ATOM     26 1H13 UNL     1      82.941  26.521   8.978  1.00  0.00     0.274 HD
ENDBRANCH  22  23
ENDBRANCH  19  22
BRANCH  17  27
HETATM   27  N14 UNL     1      86.903  22.546   6.395  1.00  0.00    -0.315 N 
ATOM     28  H14 UNL     1      87.599  22.944   5.766  1.00  0.00     0.170 HD
BRANCH  27  29
HETATM   29  C16 UNL     1      86.322  21.305   6.121  1.00  0.00     0.191 C 
HETATM   30  S3  UNL     1      85.633  21.011   4.670  1.00  0.00    -0.039 SA
BRANCH  29  31
HETATM   31  N15 UNL     1      86.295  20.238   7.072  1.00  0.00    -0.283 N 
ATOM     32  H15 UNL     1      87.182  19.838   7.379  1.00  0.00     0.188 HD
BRANCH  31  33
HETATM   33  N16 UNL     1      85.130  19.727   7.592  1.00  0.00    -0.343 N 
ATOM     34 2H16 UNL     1      84.291  19.788   7.015  1.00  0.00     0.176 HD
ATOM     35 1H16 UNL     1      85.074  19.297   8.515  1.00  0.00     0.176 HD
ENDBRANCH  31  33
ENDBRANCH  29  31
ENDBRANCH  27  29
ENDBRANCH  17  27
ENDBRANCH  12  17
ENDBRANCH  10  12
ENDBRANCH   6  10
BRANCH   2  36
HETATM   36  C9  UNL     1      93.995  22.064   6.653  1.00  0.00     0.227 C 
HETATM   37  O1  UNL     1      93.808  21.764   5.402  1.00  0.00    -0.643 OA
HETATM   38  O2  UNL     1      95.268  22.508   6.917  1.00  0.00    -0.643 OA
ENDBRANCH   2  36
BRANCH   1  39
HETATM   39  C6  UNL     1      93.919  20.019   8.725  1.00  0.00     0.120 C 
BRANCH  39  40
HETATM   40  S2  UNL     1      94.336  18.954   7.336  1.00  0.00    -0.087 SA
BRANCH  40  41
HETATM   41  C5  UNL     1      96.029  18.904   6.881  1.00  0.00     0.178 A 
HETATM   42  N5  UNL     1      96.854  17.863   6.886  1.00  0.00    -0.253 N 
HETATM   43  N6  UNL     1      98.059  18.286   6.503  1.00  0.00    -0.224 N 
HETATM   44  N7  UNL     1      98.011  19.569   6.257  1.00  0.00    -0.226 N 
ATOM     45  H6  UNL     1      98.890  17.700   6.416  1.00  0.00     0.210 HD
HETATM   46  N8  UNL     1      96.780  19.970   6.481  1.00  0.00    -0.263 N 
ATOM     47  H7  UNL     1      98.788  20.153   5.948  1.00  0.00     0.210 HD
ATOM     48  H8  UNL     1      96.440  20.925   6.372  1.00  0.00     0.190 HD
BRANCH  42  49
HETATM   49  C4  UNL     1      96.568  16.500   7.225  1.00  0.00     0.163 C 
BRANCH  49  50
HETATM   50  C3  UNL     1      97.799  15.768   7.709  1.00  0.00     0.104 C 
BRANCH  50  51
HETATM   51  S1  UNL     1      97.461  14.014   7.995  1.00  0.00    -0.090 SA
BRANCH  51  52
HETATM   52  C2  UNL     1      98.623  13.343   9.170  1.00  0.00     0.175 A 
HETATM   53  N1  UNL     1      98.453  12.305  10.004  1.00  0.00    -0.257 N 
HETATM   54  C1  UNL     1      97.269  11.471  10.143  1.00  0.00     0.177 C 
HETATM   55  N2  UNL     1      99.596  12.194  10.681  1.00  0.00    -0.003 NA
HETATM   56  N3  UNL     1     100.449  13.132  10.277  1.00  0.00    -0.224 N 
HETATM   57  N4  UNL     1      99.858  13.845   9.347  1.00  0.00    -0.266 N 
ATOM     58  H3  UNL     1     101.396  13.272  10.629  1.00  0.00     0.205 HD
ATOM     59  H4  UNL     1     100.262  14.637   8.848  1.00  0.00     0.190 HD
ENDBRANCH  51  52
ENDBRANCH  50  51
ENDBRANCH  49  50
ENDBRANCH  42  49
ENDBRANCH  40  41
ENDBRANCH  39  40
ENDBRANCH   1  39
TORSDOF 18
ENDMDL
MODEL 3
REMARK VINA RESULT: -9.361347449      1.810      2.333
REMARK  18 active torsions:
REMARK  status: ('A' for Active; 'I' for Inactive)
REMARK    1  A    between atoms: C2_8  and  S1_9 
REMARK    2  A    between atoms: S1_9  and  C3_10 
REMARK    3  A    between atoms: C3_10  and  C4_11 
REMARK    4  A    between atoms: C4_11  and  N5_12 
REMARK    5  A    between atoms: C5_19  and  S2_20 
REMARK    6  A    between atoms: S2_20  and  C6_21 
REMARK    7  A    between atoms: C6_21  and  C7_22 
REMARK    8  A    between atoms: C8_23  and  C9_24 
REMARK    9  A    between atoms: C11_30  and  N10_31 
REMARK   10  A    between atoms: N10_31  and  C12_33 
REMARK   11  A    between atoms: C12_33  and  C13_38 
REMARK   12  A    between atoms: N11_34  and  O4_36 
REMARK   13  A    between atoms: C13_38  and  N14_48 
REMARK       I    between atoms: N12_39  and  C14_41 
REMARK   14  A    between atoms: C14_41  and  C15_43 
REMARK   15  A    between atoms: C15_43  and  N13_44 
REMARK   16  A    between atoms: N14_48  and  C16_50 
REMARK   17  A    between atoms: C16_50  and  N15_52 
REMARK   18  A    between atoms: N15_52  and  N16_54 
ROOT
HETATM    1  C7  UNL     1      93.744  19.703   7.217  1.00  0.00    -0.027 C 
HETATM    2  C8  UNL     1      93.982  20.945   6.844  1.00  0.00     0.119 C 
HETATM    3  N9  UNL     1      93.236  22.014   7.455  1.00  0.00    -0.293 N 
HETATM    4  C10 UNL     1      92.492  23.187   7.304  1.00  0.00     0.251 C 
HETATM    5  O3  UNL     1      92.513  24.236   6.580  1.00  0.00    -0.271 OA
HETATM    6  C11 UNL     1      91.634  22.633   8.415  1.00  0.00     0.209 C 
HETATM    7  C17 UNL     1      93.000  22.140   8.888  1.00  0.00     0.187 C 
HETATM    8  S4  UNL     1      92.981  20.507   9.654  1.00  0.00    -0.136 SA
HETATM    9  C18 UNL     1      92.664  19.375   8.231  1.00  0.00     0.113 C 
ENDROOT
BRANCH   6  10
HETATM   10  N10 UNL     1      91.014  23.618   9.204  1.00  0.00    -0.356 N 
ATOM     11  H10 UNL     1      91.521  24.477   9.420  1.00  0.00     0.162 HD
BRANCH  10  12
HETATM   12  C12 UNL     1      89.702  23.446   9.704  1.00  0.00     0.167 C 
HETATM   13  N11 UNL     1      89.518  22.878  10.883  1.00  0.00    -0.250 N 
ATOM     14  H11 UNL     1      88.559  22.769  11.213  1.00  0.00     0.196 HD
BRANCH  13  15
HETATM   15  O4  UNL     1      90.520  22.431  11.685  1.00  0.00    -0.288 OA
ATOM     16  H4  UNL     1      91.282  22.943  11.930  1.00  0.00     0.244 HD
ENDBRANCH  13  15
BRANCH  12  17
HETATM   17  C13 UNL     1      88.499  23.854   9.005  1.00  0.00     0.156 C 
HETATM   18  N12 UNL     1      88.444  24.444   7.948  1.00  0.00    -0.308 N 
HETATM   19  C14 UNL     1      89.113  25.008   6.921  1.00  0.00     0.248 C 
ATOM     20  H12 UNL     1      87.452  24.570   7.745  1.00  0.00     0.170 HD
HETATM   21  O5  UNL     1      89.880  26.042   6.990  1.00  0.00    -0.271 OA
BRANCH  19  22
HETATM   22  C15 UNL     1      89.014  24.445   5.517  1.00  0.00     0.332 C 
BRANCH  22  23
HETATM   23  N13 UNL     1      90.310  24.632   4.908  1.00  0.00    -0.071 N 
ATOM     24 3H13 UNL     1      90.514  25.606   4.683  1.00  0.00     0.274 HD
ATOM     25 2H13 UNL     1      91.085  24.486   5.555  1.00  0.00     0.274 HD
ATOM     26 1H13 UNL     1      90.340  24.016   4.096  1.00  0.00     0.274 HD
ENDBRANCH  22  23
ENDBRANCH  19  22
BRANCH  17  27
HETATM   27  N14 UNL     1      87.262  23.512   9.684  1.00  0.00    -0.315 N 
ATOM     28  H14 UNL     1      87.210  23.513  10.702  1.00  0.00     0.170 HD
BRANCH  27  29
HETATM   29  C16 UNL     1      86.143  23.183   8.914  1.00  0.00     0.191 C 
HETATM   30  S3  UNL     1      84.803  24.114   8.953  1.00  0.00    -0.039 SA
BRANCH  29  31
HETATM   31  N15 UNL     1      86.102  22.035   8.063  1.00  0.00    -0.283 N 
ATOM     32  H15 UNL     1      86.112  21.110   8.493  1.00  0.00     0.188 HD
BRANCH  31  33
HETATM   33  N16 UNL     1      86.051  22.121   6.692  1.00  0.00    -0.343 N 
ATOM     34 2H16 UNL     1      86.743  22.711   6.231  1.00  0.00     0.176 HD
ATOM     35 1H16 UNL     1      85.359  21.625   6.129  1.00  0.00     0.176 HD
ENDBRANCH  31  33
ENDBRANCH  29  31
ENDBRANCH  27  29
ENDBRANCH  17  27
ENDBRANCH  12  17
ENDBRANCH  10  12
ENDBRANCH   6  10
BRANCH   2  36
HETATM   36  C9  UNL     1      94.976  21.300   5.869  1.00  0.00     0.227 C 
HETATM   37  O1  UNL     1      96.139  21.667   6.317  1.00  0.00    -0.643 OA
HETATM   38  O2  UNL     1      94.895  21.319   4.497  1.00  0.00    -0.643 OA
ENDBRANCH   2  36
BRANCH   1  39
HETATM   39  C6  UNL     1      94.467  18.553   6.691  1.00  0.00     0.120 C 
BRANCH  39  40
HETATM   40  S2  UNL     1      96.044  18.212   7.487  1.00  0.00    -0.087 SA
BRANCH  40  41
HETATM   41  C5  UNL     1      97.285  17.503   6.471  1.00  0.00     0.178 A 
HETATM   42  N5  UNL     1      97.391  16.247   6.053  1.00  0.00    -0.253 N 
HETATM   43  N6  UNL     1      98.510  16.141   5.335  1.00  0.00    -0.224 N 
HETATM   44  N7  UNL     1      99.110  17.302   5.292  1.00  0.00    -0.226 N 
ATOM     45  H6  UNL     1      98.846  15.287   4.889  1.00  0.00     0.210 HD
HETATM   46  N8  UNL     1      98.381  18.151   5.979  1.00  0.00    -0.263 N 
ATOM     47  H7  UNL     1      99.986  17.510   4.813  1.00  0.00     0.210 HD
ATOM     48  H8  UNL     1      98.598  19.137   6.122  1.00  0.00     0.190 HD
BRANCH  42  49
HETATM   49  C4  UNL     1      96.499  15.151   6.287  1.00  0.00     0.163 C 
BRANCH  49  50
HETATM   50  C3  UNL     1      97.195  13.989   6.958  1.00  0.00     0.104 C 
BRANCH  50  51
HETATM   51  S1  UNL     1      97.876  14.459   8.566  1.00  0.00    -0.090 SA
BRANCH  51  52
HETATM   52  C2  UNL     1      98.204  13.007   9.549  1.00  0.00     0.175 A 
HETATM   53  N1  UNL     1      99.279  12.745  10.309  1.00  0.00    -0.257 N 
HETATM   54  C1  UNL     1     100.440  13.598  10.517  1.00  0.00     0.177 C 
HETATM   55  N2  UNL     1      99.064  11.541  10.838  1.00  0.00    -0.003 NA
HETATM   56  N3  UNL     1      97.891  11.072  10.420  1.00  0.00    -0.224 N 
HETATM   57  N4  UNL     1      97.355  11.968   9.625  1.00  0.00    -0.266 N 
ATOM     58  H3  UNL     1      97.482  10.173  10.673  1.00  0.00     0.205 HD
ATOM     59  H4  UNL     1      96.455  11.890   9.150  1.00  0.00     0.190 HD
ENDBRANCH  51  52
ENDBRANCH  50  51
ENDBRANCH  49  50
ENDBRANCH  42  49
ENDBRANCH  40  41
ENDBRANCH  39  40
ENDBRANCH   1  39
TORSDOF 18
ENDMDL
MODEL 4
REMARK VINA RESULT: -9.208605079      2.315      3.649
REMARK  18 active torsions:
REMARK  status: ('A' for Active; 'I' for Inactive)
REMARK    1  A    between atoms: C2_8  and  S1_9 
REMARK    2  A    between atoms: S1_9  and  C3_10 
REMARK    3  A    between atoms: C3_10  and  C4_11 
REMARK    4  A    between atoms: C4_11  and  N5_12 
REMARK    5  A    between atoms: C5_19  and  S2_20 
REMARK    6  A    between atoms: S2_20  and  C6_21 
REMARK    7  A    between atoms: C6_21  and  C7_22 
REMARK    8  A    between atoms: C8_23  and  C9_24 
REMARK    9  A    between atoms: C11_30  and  N10_31 
REMARK   10  A    between atoms: N10_31  and  C12_33 
REMARK   11  A    between atoms: C12_33  and  C13_38 
REMARK   12  A    between atoms: N11_34  and  O4_36 
REMARK   13  A    between atoms: C13_38  and  N14_48 
REMARK       I    between atoms: N12_39  and  C14_41 
REMARK   14  A    between atoms: C14_41  and  C15_43 
REMARK   15  A    between atoms: C15_43  and  N13_44 
REMARK   16  A    between atoms: N14_48  and  C16_50 
REMARK   17  A    between atoms: C16_50  and  N15_52 
REMARK   18  A    between atoms: N15_52  and  N16_54 
ROOT
HETATM    1  C7  UNL     1      93.014  20.241   8.274  1.00  0.00    -0.027 C 
HETATM    2  C8  UNL     1      93.235  21.516   8.020  1.00  0.00     0.119 C 
HETATM    3  N9  UNL     1      92.154  22.456   8.165  1.00  0.00    -0.293 N 
HETATM    4  C10 UNL     1      91.426  23.526   7.638  1.00  0.00     0.251 C 
HETATM    5  O3  UNL     1      91.652  24.593   6.979  1.00  0.00    -0.271 OA
HETATM    6  C11 UNL     1      90.223  22.826   8.221  1.00  0.00     0.209 C 
HETATM    7  C17 UNL     1      91.247  22.499   9.305  1.00  0.00     0.187 C 
HETATM    8  S4  UNL     1      91.080  20.852  10.022  1.00  0.00    -0.136 SA
HETATM    9  C18 UNL     1      91.635  19.740   8.658  1.00  0.00     0.113 C 
ENDROOT
BRANCH   6  10
HETATM   10  N10 UNL     1      89.176  23.693   8.584  1.00  0.00    -0.356 N 
ATOM     11  H10 UNL     1      89.279  24.277   9.414  1.00  0.00     0.162 HD
BRANCH  10  12
HETATM   12  C12 UNL     1      87.986  23.772   7.824  1.00  0.00     0.167 C 
HETATM   13  N11 UNL     1      87.841  24.733   6.929  1.00  0.00    -0.250 N 
ATOM     14  H11 UNL     1      86.970  24.761   6.399  1.00  0.00     0.196 HD
BRANCH  13  15
HETATM   15  O4  UNL     1      88.773  25.686   6.667  1.00  0.00    -0.288 OA
ATOM     16  H4  UNL     1      88.590  26.515   6.240  1.00  0.00     0.244 HD
ENDBRANCH  13  15
BRANCH  12  17
HETATM   17  C13 UNL     1      86.872  22.853   7.952  1.00  0.00     0.156 C 
HETATM   18  N12 UNL     1      85.763  23.116   8.361  1.00  0.00    -0.308 N 
HETATM   19  C14 UNL     1      84.919  24.050   8.850  1.00  0.00     0.248 C 
ATOM     20  H12 UNL     1      85.230  22.247   8.317  1.00  0.00     0.170 HD
HETATM   21  O5  UNL     1      85.036  24.662   9.979  1.00  0.00    -0.271 OA
BRANCH  19  22
HETATM   22  C15 UNL     1      83.692  24.482   8.074  1.00  0.00     0.332 C 
BRANCH  22  23
HETATM   23  N13 UNL     1      83.558  23.559   6.972  1.00  0.00    -0.071 N 
ATOM     24 3H13 UNL     1      84.415  23.448   6.432  1.00  0.00     0.274 HD
ATOM     25 2H13 UNL     1      83.467  22.587   7.268  1.00  0.00     0.274 HD
ATOM     26 1H13 UNL     1      82.770  23.887   6.414  1.00  0.00     0.274 HD
ENDBRANCH  22  23
ENDBRANCH  19  22
BRANCH  17  27
HETATM   27  N14 UNL     1      87.166  21.489   7.549  1.00  0.00    -0.315 N 
ATOM     28  H14 UNL     1      88.074  21.072   7.753  1.00  0.00     0.170 HD
BRANCH  27  29
HETATM   29  C16 UNL     1      86.181  20.760   6.877  1.00  0.00     0.191 C 
HETATM   30  S3  UNL     1      85.931  20.977   5.279  1.00  0.00    -0.039 SA
BRANCH  29  31
HETATM   31  N15 UNL     1      85.350  19.800   7.533  1.00  0.00    -0.283 N 
ATOM     32  H15 UNL     1      85.634  19.456   8.450  1.00  0.00     0.188 HD
BRANCH  31  33
HETATM   33  N16 UNL     1      84.185  19.318   6.983  1.00  0.00    -0.343 N 
ATOM     34 2H16 UNL     1      84.223  18.983   6.021  1.00  0.00     0.176 HD
ATOM     35 1H16 UNL     1      83.302  19.285   7.493  1.00  0.00     0.176 HD
ENDBRANCH  31  33
ENDBRANCH  29  31
ENDBRANCH  27  29
ENDBRANCH  17  27
ENDBRANCH  12  17
ENDBRANCH  10  12
ENDBRANCH   6  10
BRANCH   2  36
HETATM   36  C9  UNL     1      94.518  22.033   7.629  1.00  0.00     0.227 C 
HETATM   37  O1  UNL     1      95.432  22.105   8.550  1.00  0.00    -0.643 OA
HETATM   38  O2  UNL     1      94.949  22.481   6.404  1.00  0.00    -0.643 OA
ENDBRANCH   2  36
BRANCH   1  39
HETATM   39  C6  UNL     1      94.045  19.216   8.196  1.00  0.00     0.120 C 
BRANCH  39  40
HETATM   40  S2  UNL     1      94.619  18.834   6.534  1.00  0.00    -0.087 SA
BRANCH  40  41
HETATM   41  C5  UNL     1      96.351  18.645   6.339  1.00  0.00     0.178 A 
HETATM   42  N5  UNL     1      97.084  17.548   6.488  1.00  0.00    -0.253 N 
HETATM   43  N6  UNL     1      98.362  17.869   6.282  1.00  0.00    -0.224 N 
HETATM   44  N7  UNL     1      98.449  19.145   6.006  1.00  0.00    -0.226 N 
ATOM     45  H6  UNL     1      99.148  17.222   6.331  1.00  0.00     0.210 HD
HETATM   46  N8  UNL     1      97.234  19.641   6.035  1.00  0.00    -0.263 N 
ATOM     47  H7  UNL     1      99.306  19.660   5.806  1.00  0.00     0.210 HD
ATOM     48  H8  UNL     1      96.988  20.615   5.858  1.00  0.00     0.190 HD
BRANCH  42  49
HETATM   49  C4  UNL     1      96.647  16.221   6.807  1.00  0.00     0.163 C 
BRANCH  49  50
HETATM   50  C3  UNL     1      97.398  15.647   7.987  1.00  0.00     0.104 C 
BRANCH  50  51
HETATM   51  S1  UNL     1      97.680  13.870   7.796  1.00  0.00    -0.090 SA
BRANCH  51  52
HETATM   52  C2  UNL     1      98.725  13.264   9.109  1.00  0.00     0.175 A 
HETATM   53  N1  UNL     1      98.460  12.295   9.999  1.00  0.00    -0.257 N 
HETATM   54  C1  UNL     1      97.248  11.496  10.098  1.00  0.00     0.177 C 
HETATM   55  N2  UNL     1      99.542  12.211  10.775  1.00  0.00    -0.003 NA
HETATM   56  N3  UNL     1     100.448  13.099  10.376  1.00  0.00    -0.224 N 
HETATM   57  N4  UNL     1      99.953  13.754   9.351  1.00  0.00    -0.266 N 
ATOM     58  H3  UNL     1     101.366  13.247  10.795  1.00  0.00     0.205 HD
ATOM     59  H4  UNL     1     100.416  14.499   8.832  1.00  0.00     0.190 HD
ENDBRANCH  51  52
ENDBRANCH  50  51
ENDBRANCH  49  50
ENDBRANCH  42  49
ENDBRANCH  40  41
ENDBRANCH  39  40
ENDBRANCH   1  39
TORSDOF 18
ENDMDL
MODEL 5
REMARK VINA RESULT: -9.030738247      3.460      5.955
REMARK  18 active torsions:
REMARK  status: ('A' for Active; 'I' for Inactive)
REMARK    1  A    between atoms: C2_8  and  S1_9 
REMARK    2  A    between atoms: S1_9  and  C3_10 
REMARK    3  A    between atoms: C3_10  and  C4_11 
REMARK    4  A    between atoms: C4_11  and  N5_12 
REMARK    5  A    between atoms: C5_19  and  S2_20 
REMARK    6  A    between atoms: S2_20  and  C6_21 
REMARK    7  A    between atoms: C6_21  and  C7_22 
REMARK    8  A    between atoms: C8_23  and  C9_24 
REMARK    9  A    between atoms: C11_30  and  N10_31 
REMARK   10  A    between atoms: N10_31  and  C12_33 
REMARK   11  A    between atoms: C12_33  and  C13_38 
REMARK   12  A    between atoms: N11_34  and  O4_36 
REMARK   13  A    between atoms: C13_38  and  N14_48 
REMARK       I    between atoms: N12_39  and  C14_41 
REMARK   14  A    between atoms: C14_41  and  C15_43 
REMARK   15  A    between atoms: C15_43  and  N13_44 
REMARK   16  A    between atoms: N14_48  and  C16_50 
REMARK   17  A    between atoms: C16_50  and  N15_52 
REMARK   18  A    between atoms: N15_52  and  N16_54 
ROOT
HETATM    1  C7  UNL     1      92.699  21.256   8.614  1.00  0.00    -0.027 C 
HETATM    2  C8  UNL     1      92.715  22.079   7.584  1.00  0.00     0.119 C 
HETATM    3  N9  UNL     1      91.597  22.963   7.376  1.00  0.00    -0.293 N 
HETATM    4  C10 UNL     1      90.657  23.509   6.500  1.00  0.00     0.251 C 
HETATM    5  O3  UNL     1      90.610  23.918   5.294  1.00  0.00    -0.271 OA
HETATM    6  C11 UNL     1      89.700  23.394   7.661  1.00  0.00     0.209 C 
HETATM    7  C17 UNL     1      90.971  23.759   8.425  1.00  0.00     0.187 C 
HETATM    8  S4  UNL     1      91.152  22.931  10.017  1.00  0.00    -0.136 SA
HETATM    9  C18 UNL     1      91.505  21.182   9.547  1.00  0.00     0.113 C 
ENDROOT
BRANCH   6  10
HETATM   10  N10 UNL     1      88.673  24.355   7.654  1.00  0.00    -0.356 N 
ATOM     11  H10 UNL     1      88.854  25.275   7.250  1.00  0.00     0.162 HD
BRANCH  10  12
HETATM   12  C12 UNL     1      87.396  24.076   8.194  1.00  0.00     0.167 C 
HETATM   13  N11 UNL     1      87.159  24.304   9.473  1.00  0.00    -0.250 N 
ATOM     14  H11 UNL     1      86.228  24.091   9.830  1.00  0.00     0.196 HD
BRANCH  13  15
HETATM   15  O4  UNL     1      88.073  24.804  10.346  1.00  0.00    -0.288 OA
ATOM     16  H4  UNL     1      88.039  25.677  10.719  1.00  0.00     0.244 HD
ENDBRANCH  13  15
BRANCH  12  17
HETATM   17  C13 UNL     1      86.285  23.540   7.431  1.00  0.00     0.156 C 
HETATM   18  N12 UNL     1      85.124  23.508   7.773  1.00  0.00    -0.308 N 
HETATM   19  C14 UNL     1      84.205  23.796   8.719  1.00  0.00     0.248 C 
ATOM     20  H12 UNL     1      84.613  23.070   7.005  1.00  0.00     0.170 HD
HETATM   21  O5  UNL     1      84.140  23.276   9.898  1.00  0.00    -0.271 OA
BRANCH  19  22
HETATM   22  C15 UNL     1      83.107  24.808   8.464  1.00  0.00     0.332 C 
BRANCH  22  23
HETATM   23  N13 UNL     1      82.306  24.281   7.386  1.00  0.00    -0.071 N 
ATOM     24 3H13 UNL     1      82.364  23.266   7.298  1.00  0.00     0.274 HD
ATOM     25 2H13 UNL     1      81.303  24.335   7.564  1.00  0.00     0.274 HD
ATOM     26 1H13 UNL     1      82.594  24.775   6.542  1.00  0.00     0.274 HD
ENDBRANCH  22  23
ENDBRANCH  19  22
BRANCH  17  27
HETATM   27  N14 UNL     1      86.653  22.983   6.141  1.00  0.00    -0.315 N 
ATOM     28  H14 UNL     1      87.104  23.563   5.434  1.00  0.00     0.170 HD
BRANCH  27  29
HETATM   29  C16 UNL     1      86.377  21.637   5.888  1.00  0.00     0.191 C 
HETATM   30  S3  UNL     1      86.736  20.491   6.994  1.00  0.00    -0.039 SA
BRANCH  29  31
HETATM   31  N15 UNL     1      85.776  21.188   4.671  1.00  0.00    -0.283 N 
ATOM     32  H15 UNL     1      85.451  21.886   4.003  1.00  0.00     0.188 HD
BRANCH  31  33
HETATM   33  N16 UNL     1      85.617  19.858   4.360  1.00  0.00    -0.343 N 
ATOM     34 2H16 UNL     1      86.435  19.255   4.442  1.00  0.00     0.176 HD
ATOM     35 1H16 UNL     1      84.727  19.460   4.057  1.00  0.00     0.176 HD
ENDBRANCH  31  33
ENDBRANCH  29  31
ENDBRANCH  27  29
ENDBRANCH  17  27
ENDBRANCH  12  17
ENDBRANCH  10  12
ENDBRANCH   6  10
BRANCH   2  36
HETATM   36  C9  UNL     1      93.813  22.166   6.659  1.00  0.00     0.227 C 
HETATM   37  O1  UNL     1      94.855  22.841   7.041  1.00  0.00    -0.643 OA
HETATM   38  O2  UNL     1      93.943  21.638   5.397  1.00  0.00    -0.643 OA
ENDBRANCH   2  36
BRANCH   1  39
HETATM   39  C6  UNL     1      93.792  20.350   8.936  1.00  0.00     0.120 C 
BRANCH  39  40
HETATM   40  S2  UNL     1      94.237  19.194   7.631  1.00  0.00    -0.087 SA
BRANCH  40  41
HETATM   41  C5  UNL     1      95.901  19.252   7.082  1.00  0.00     0.178 A 
HETATM   42  N5  UNL     1      96.678  18.246   6.695  1.00  0.00    -0.253 N 
HETATM   43  N6  UNL     1      97.881  18.739   6.399  1.00  0.00    -0.224 N 
HETATM   44  N7  UNL     1      97.879  20.033   6.591  1.00  0.00    -0.226 N 
ATOM     45  H6  UNL     1      98.679  18.193   6.074  1.00  0.00     0.210 HD
HETATM   46  N8  UNL     1      96.680  20.370   7.008  1.00  0.00    -0.263 N 
ATOM     47  H7  UNL     1      98.666  20.665   6.443  1.00  0.00     0.210 HD
ATOM     48  H8  UNL     1      96.379  21.316   7.239  1.00  0.00     0.190 HD
BRANCH  42  49
HETATM   49  C4  UNL     1      96.348  16.856   6.585  1.00  0.00     0.163 C 
BRANCH  49  50
HETATM   50  C3  UNL     1      96.311  16.395   5.146  1.00  0.00     0.104 C 
BRANCH  50  51
HETATM   51  S1  UNL     1      94.662  16.590   4.427  1.00  0.00    -0.090 SA
BRANCH  51  52
HETATM   52  C2  UNL     1      94.509  18.190   3.652  1.00  0.00     0.175 A 
HETATM   53  N1  UNL     1      93.493  18.659   2.912  1.00  0.00    -0.257 N 
HETATM   54  C1  UNL     1      92.259  17.967   2.570  1.00  0.00     0.177 C 
HETATM   55  N2  UNL     1      93.844  19.895   2.556  1.00  0.00    -0.003 NA
HETATM   56  N3  UNL     1      95.041  20.182   3.061  1.00  0.00    -0.224 N 
HETATM   57  N4  UNL     1      95.459  19.138   3.737  1.00  0.00    -0.266 N 
ATOM     58  H3  UNL     1      95.545  21.061   2.943  1.00  0.00     0.205 HD
ATOM     59  H4  UNL     1      96.344  19.059   4.237  1.00  0.00     0.190 HD
ENDBRANCH  51  52
ENDBRANCH  50  51
ENDBRANCH  49  50
ENDBRANCH  42  49
ENDBRANCH  40  41
ENDBRANCH  39  40
ENDBRANCH   1  39
TORSDOF 18
ENDMDL
