MODEL 1
REMARK VINA RESULT: -7.376539018      0.000      0.000
REMARK  10 active torsions:
REMARK  status: ('A' for Active; 'I' for Inactive)
REMARK    1  A    between atoms: C2_2  and  C3_3 
REMARK    2  A    between atoms: C4_7  and  C5_8 
REMARK    3  A    between atoms: C5_8  and  C6_9 
REMARK    4  A    between atoms: C6_9  and  C7_10 
REMARK       I    between atoms: C7_10  and  N2_12 
REMARK    5  A    between atoms: N2_12  and  C8_14 
REMARK    6  A    between atoms: C8_14  and  C9_15 
REMARK    7  A    between atoms: C9_15  and  C10_16 
REMARK    8  A    between atoms: C10_16  and  C11_17 
REMARK    9  A    between atoms: C11_17  and  N3_18 
REMARK   10  A    between atoms: C17_27  and  C18_28 
ROOT
HETATM    1  C7  UNL     1       2.594  11.301   7.023  1.00  0.00     0.217 C 
HETATM    2  O2  UNL     1       2.647  11.573   5.780  1.00  0.00    -0.274 OA
HETATM    3  N2  UNL     1       2.973  12.309   7.923  1.00  0.00    -0.361 N 
ATOM      4  H2  UNL     1       2.936  12.104   8.921  1.00  0.00     0.162 HD
ENDROOT
BRANCH   1   5
HETATM    5  C6  UNL     1       2.143   9.960   7.406  1.00  0.00     0.109 C 
BRANCH   5   6
HETATM    6  C5  UNL     1       0.606   9.867   7.392  1.00  0.00     0.077 C 
BRANCH   6   7
HETATM    7  C4  UNL     1       0.243   8.709   6.567  1.00  0.00     0.085 A 
HETATM    8  O1  UNL     1       1.072   7.847   5.979  1.00  0.00    -0.242 OA
HETATM    9  N1  UNL     1       0.405   6.950   5.332  1.00  0.00    -0.265 N 
HETATM   10  C3  UNL     1      -0.909   7.201   5.478  1.00  0.00     0.041 A 
ATOM     11  H1  UNL     1       0.807   6.178   4.799  1.00  0.00     0.194 HD
HETATM   12  C17 UNL     1      -1.049   8.325   6.267  1.00  0.00     0.002 A 
BRANCH  10  13
HETATM   13  C2  UNL     1      -1.997   6.360   4.885  1.00  0.00     0.055 C 
HETATM   14  C1  UNL     1      -1.379   5.242   4.105  1.00  0.00     0.011 C 
ENDBRANCH  10  13
BRANCH  12  15
HETATM   15  C18 UNL     1      -2.327   8.907   6.616  1.00  0.00     0.023 C 
HETATM   16  C19 UNL     1      -2.762  10.121   5.835  1.00  0.00     0.009 C 
HETATM   17  C20 UNL     1      -4.121  10.338   6.551  1.00  0.00     0.001 C 
HETATM   18  C21 UNL     1      -4.683   8.910   6.595  1.00  0.00     0.001 C 
HETATM   19  C22 UNL     1      -3.509   7.995   6.325  1.00  0.00     0.009 C 
ENDBRANCH  12  15
ENDBRANCH   6   7
ENDBRANCH   5   6
ENDBRANCH   1   5
BRANCH   3  20
HETATM   20  C8  UNL     1       3.416  13.628   7.508  1.00  0.00     0.123 C 
BRANCH  20  21
HETATM   21  C9  UNL     1       4.909  13.718   7.758  1.00  0.00     0.025 C 
BRANCH  21  22
HETATM   22  C10 UNL     1       5.390  13.064   8.981  1.00  0.00     0.046 C 
BRANCH  22  23
HETATM   23  C11 UNL     1       5.519  13.809  10.249  1.00  0.00     0.064 C 
BRANCH  23  24
HETATM   24  N3  UNL     1       5.309  13.175  11.462  1.00  0.00    -0.359 N 
HETATM   25  C12 UNL     1       5.906  11.970  11.777  1.00  0.00     0.164 C 
HETATM   26  C13 UNL     1       6.719  12.041  13.052  1.00  0.00     0.256 C 
HETATM   27  O3  UNL     1       7.872  11.562  13.118  1.00  0.00    -0.267 OA
HETATM   28  N4  UNL     1       6.082  12.680  14.147  1.00  0.00    -0.354 N 
HETATM   29  C14 UNL     1       4.820  13.336  13.880  1.00  0.00     0.148 C 
ATOM     30  H4  UNL     1       6.495  12.679  15.079  1.00  0.00     0.162 HD
HETATM   31  C15 UNL     1       4.770  13.969  12.525  1.00  0.00     0.102 C 
HETATM   32  C16 UNL     1       3.379  14.472  12.281  1.00  0.00     0.034 C 
ENDBRANCH  23  24
ENDBRANCH  22  23
ENDBRANCH  21  22
ENDBRANCH  20  21
ENDBRANCH   3  20
TORSDOF 10
ENDMDL
MODEL 2
REMARK VINA RESULT: -7.318302869      1.854      2.382
REMARK  10 active torsions:
REMARK  status: ('A' for Active; 'I' for Inactive)
REMARK    1  A    between atoms: C2_2  and  C3_3 
REMARK    2  A    between atoms: C4_7  and  C5_8 
REMARK    3  A    between atoms: C5_8  and  C6_9 
REMARK    4  A    between atoms: C6_9  and  C7_10 
REMARK       I    between atoms: C7_10  and  N2_12 
REMARK    5  A    between atoms: N2_12  and  C8_14 
REMARK    6  A    between atoms: C8_14  and  C9_15 
REMARK    7  A    between atoms: C9_15  and  C10_16 
REMARK    8  A    between atoms: C10_16  and  C11_17 
REMARK    9  A    between atoms: C11_17  and  N3_18 
REMARK   10  A    between atoms: C17_27  and  C18_28 
ROOT
HETATM    1  C7  UNL     1       0.827  10.253   6.943  1.00  0.00     0.217 C 
HETATM    2  O2  UNL     1       1.393   9.587   7.870  1.00  0.00    -0.274 OA
HETATM    3  N2  UNL     1       1.634  11.107   6.176  1.00  0.00    -0.361 N 
ATOM      4  H2  UNL     1       1.192  11.648   5.432  1.00  0.00     0.162 HD
ENDROOT
BRANCH   1   5
HETATM    5  C6  UNL     1      -0.616  10.071   6.761  1.00  0.00     0.109 C 
BRANCH   5   6
HETATM    6  C5  UNL     1      -1.075   8.704   7.302  1.00  0.00     0.077 C 
BRANCH   6   7
HETATM    7  C4  UNL     1      -0.975   7.740   6.199  1.00  0.00     0.085 A 
HETATM    8  O1  UNL     1       0.110   7.074   5.808  1.00  0.00    -0.242 OA
HETATM    9  N1  UNL     1      -0.169   6.309   4.804  1.00  0.00    -0.265 N 
HETATM   10  C3  UNL     1      -1.471   6.454   4.501  1.00  0.00     0.041 A 
ATOM     11  H1  UNL     1       0.490   5.697   4.322  1.00  0.00     0.194 HD
HETATM   12  C17 UNL     1      -2.020   7.367   5.378  1.00  0.00     0.002 A 
BRANCH  10  13
HETATM   13  C2  UNL     1      -2.166   5.711   3.403  1.00  0.00     0.055 C 
HETATM   14  C1  UNL     1      -1.278   4.606   2.923  1.00  0.00     0.011 C 
ENDBRANCH  10  13
BRANCH  12  15
HETATM   15  C18 UNL     1      -3.403   7.790   5.336  1.00  0.00     0.023 C 
HETATM   16  C19 UNL     1      -4.099   7.991   6.658  1.00  0.00     0.009 C 
HETATM   17  C20 UNL     1      -5.475   8.425   6.092  1.00  0.00     0.001 C 
HETATM   18  C21 UNL     1      -5.066   9.427   5.005  1.00  0.00     0.001 C 
HETATM   19  C22 UNL     1      -3.595   9.180   4.747  1.00  0.00     0.009 C 
ENDBRANCH  12  15
ENDBRANCH   6   7
ENDBRANCH   5   6
ENDBRANCH   1   5
BRANCH   3  20
HETATM   20  C8  UNL     1       3.061  11.263   6.385  1.00  0.00     0.123 C 
BRANCH  20  21
HETATM   21  C9  UNL     1       3.278  12.523   7.199  1.00  0.00     0.025 C 
BRANCH  21  22
HETATM   22  C10 UNL     1       4.665  12.799   7.590  1.00  0.00     0.046 C 
BRANCH  22  23
HETATM   23  C11 UNL     1       5.068  14.120   8.109  1.00  0.00     0.064 C 
BRANCH  23  24
HETATM   24  N3  UNL     1       5.459  14.269   9.430  1.00  0.00    -0.359 N 
HETATM   25  C12 UNL     1       5.479  13.210  10.317  1.00  0.00     0.164 C 
HETATM   26  C13 UNL     1       6.841  13.004  10.945  1.00  0.00     0.256 C 
HETATM   27  O3  UNL     1       7.356  11.868  11.027  1.00  0.00    -0.267 OA
HETATM   28  N4  UNL     1       7.474  14.179  11.425  1.00  0.00    -0.354 N 
HETATM   29  C14 UNL     1       6.840  15.442  11.112  1.00  0.00     0.148 C 
ATOM     30  H4  UNL     1       8.337  14.136  11.967  1.00  0.00     0.162 HD
HETATM   31  C15 UNL     1       6.200  15.449   9.758  1.00  0.00     0.102 C 
HETATM   32  C16 UNL     1       5.435  16.728   9.597  1.00  0.00     0.034 C 
ENDBRANCH  23  24
ENDBRANCH  22  23
ENDBRANCH  21  22
ENDBRANCH  20  21
ENDBRANCH   3  20
TORSDOF 10
ENDMDL
MODEL 3
REMARK VINA RESULT: -7.298496023      2.617      9.809
REMARK  10 active torsions:
REMARK  status: ('A' for Active; 'I' for Inactive)
REMARK    1  A    between atoms: C2_2  and  C3_3 
REMARK    2  A    between atoms: C4_7  and  C5_8 
REMARK    3  A    between atoms: C5_8  and  C6_9 
REMARK    4  A    between atoms: C6_9  and  C7_10 
REMARK       I    between atoms: C7_10  and  N2_12 
REMARK    5  A    between atoms: N2_12  and  C8_14 
REMARK    6  A    between atoms: C8_14  and  C9_15 
REMARK    7  A    between atoms: C9_15  and  C10_16 
REMARK    8  A    between atoms: C10_16  and  C11_17 
REMARK    9  A    between atoms: C11_17  and  N3_18 
REMARK   10  A    between atoms: C17_27  and  C18_28 
ROOT
HETATM    1  C7  UNL     1       4.886  13.528   8.895  1.00  0.00     0.217 C 
HETATM    2  O2  UNL     1       5.386  13.822   7.761  1.00  0.00    -0.274 OA
HETATM    3  N2  UNL     1       3.494  13.632   9.034  1.00  0.00    -0.361 N 
ATOM      4  H2  UNL     1       3.081  13.400   9.938  1.00  0.00     0.162 HD
ENDROOT
BRANCH   1   5
HETATM    5  C6  UNL     1       5.808  13.108   9.954  1.00  0.00     0.109 C 
BRANCH   5   6
HETATM    6  C5  UNL     1       5.833  14.133  11.104  1.00  0.00     0.077 C 
BRANCH   6   7
HETATM    7  C4  UNL     1       7.100  13.955  11.824  1.00  0.00     0.085 A 
HETATM    8  O1  UNL     1       8.324  14.239  11.381  1.00  0.00    -0.242 OA
HETATM    9  N1  UNL     1       9.206  13.956  12.282  1.00  0.00    -0.265 N 
HETATM   10  C3  UNL     1       8.574  13.467  13.364  1.00  0.00     0.041 A 
ATOM     11  H1  UNL     1      10.214  14.083  12.188  1.00  0.00     0.194 HD
HETATM   12  C17 UNL     1       7.219  13.453  13.104  1.00  0.00     0.002 A 
BRANCH  10  13
HETATM   13  C2  UNL     1       9.267  13.046  14.623  1.00  0.00     0.055 C 
HETATM   14  C1  UNL     1      10.675  12.657  14.299  1.00  0.00     0.011 C 
ENDBRANCH  10  13
BRANCH  12  15
HETATM   15  C18 UNL     1       6.227  12.965  14.037  1.00  0.00     0.023 C 
HETATM   16  C19 UNL     1       5.231  13.968  14.563  1.00  0.00     0.009 C 
HETATM   17  C20 UNL     1       4.431  12.995  15.467  1.00  0.00     0.001 C 
HETATM   18  C21 UNL     1       4.251  11.783  14.541  1.00  0.00     0.001 C 
HETATM   19  C22 UNL     1       5.260  11.961  13.427  1.00  0.00     0.009 C 
ENDBRANCH  12  15
ENDBRANCH   6   7
ENDBRANCH   5   6
ENDBRANCH   1   5
BRANCH   3  20
HETATM   20  C8  UNL     1       2.610  14.052   7.962  1.00  0.00     0.123 C 
BRANCH  20  21
HETATM   21  C9  UNL     1       1.182  13.862   8.436  1.00  0.00     0.025 C 
BRANCH  21  22
HETATM   22  C10 UNL     1       0.220  13.447   7.408  1.00  0.00     0.046 C 
BRANCH  22  23
HETATM   23  C11 UNL     1      -0.356  12.089   7.400  1.00  0.00     0.064 C 
BRANCH  23  24
HETATM   24  N3  UNL     1       0.353  11.026   6.865  1.00  0.00    -0.359 N 
HETATM   25  C12 UNL     1       1.327  11.201   5.901  1.00  0.00     0.164 C 
HETATM   26  C13 UNL     1       2.666  10.630   6.319  1.00  0.00     0.256 C 
HETATM   27  O3  UNL     1       3.725  11.278   6.173  1.00  0.00    -0.267 OA
HETATM   28  N4  UNL     1       2.625   9.327   6.878  1.00  0.00    -0.354 N 
HETATM   29  C14 UNL     1       1.317   8.767   7.143  1.00  0.00     0.148 C 
ATOM     30  H4  UNL     1       3.479   8.809   7.084  1.00  0.00     0.162 HD
HETATM   31  C15 UNL     1       0.327   9.795   7.594  1.00  0.00     0.102 C 
HETATM   32  C16 UNL     1      -1.025   9.152   7.681  1.00  0.00     0.034 C 
ENDBRANCH  23  24
ENDBRANCH  22  23
ENDBRANCH  21  22
ENDBRANCH  20  21
ENDBRANCH   3  20
TORSDOF 10
ENDMDL
MODEL 4
REMARK VINA RESULT: -7.237002929      4.194      5.945
REMARK  10 active torsions:
REMARK  status: ('A' for Active; 'I' for Inactive)
REMARK    1  A    between atoms: C2_2  and  C3_3 
REMARK    2  A    between atoms: C4_7  and  C5_8 
REMARK    3  A    between atoms: C5_8  and  C6_9 
REMARK    4  A    between atoms: C6_9  and  C7_10 
REMARK       I    between atoms: C7_10  and  N2_12 
REMARK    5  A    between atoms: N2_12  and  C8_14 
REMARK    6  A    between atoms: C8_14  and  C9_15 
REMARK    7  A    between atoms: C9_15  and  C10_16 
REMARK    8  A    between atoms: C10_16  and  C11_17 
REMARK    9  A    between atoms: C11_17  and  N3_18 
REMARK   10  A    between atoms: C17_27  and  C18_28 
ROOT
HETATM    1  C7  UNL     1       0.873   7.895   6.467  1.00  0.00     0.217 C 
HETATM    2  O2  UNL     1       1.186   7.324   7.562  1.00  0.00    -0.274 OA
HETATM    3  N2  UNL     1       1.226   9.245   6.319  1.00  0.00    -0.361 N 
ATOM      4  H2  UNL     1       0.979   9.715   5.447  1.00  0.00     0.162 HD
ENDROOT
BRANCH   1   5
HETATM    5  C6  UNL     1       0.170   7.094   5.461  1.00  0.00     0.109 C 
BRANCH   5   6
HETATM    6  C5  UNL     1      -1.266   6.773   5.914  1.00  0.00     0.077 C 
BRANCH   6   7
HETATM    7  C4  UNL     1      -2.089   6.641   4.704  1.00  0.00     0.085 A 
HETATM    8  O1  UNL     1      -1.915   5.780   3.703  1.00  0.00    -0.242 OA
HETATM    9  N1  UNL     1      -2.828   5.945   2.803  1.00  0.00    -0.265 N 
HETATM   10  C3  UNL     1      -3.643   6.940   3.196  1.00  0.00     0.041 A 
ATOM     11  H1  UNL     1      -2.915   5.410   1.940  1.00  0.00     0.194 HD
HETATM   12  C17 UNL     1      -3.197   7.410   4.414  1.00  0.00     0.002 A 
BRANCH  10  13
HETATM   13  C2  UNL     1      -4.835   7.406   2.418  1.00  0.00     0.055 C 
HETATM   14  C1  UNL     1      -5.161   6.390   1.369  1.00  0.00     0.011 C 
ENDBRANCH  10  13
BRANCH  12  15
HETATM   15  C18 UNL     1      -3.820   8.502   5.131  1.00  0.00     0.023 C 
HETATM   16  C19 UNL     1      -4.668   8.142   6.325  1.00  0.00     0.009 C 
HETATM   17  C20 UNL     1      -5.075   9.585   6.719  1.00  0.00     0.001 C 
HETATM   18  C21 UNL     1      -3.735  10.327   6.620  1.00  0.00     0.001 C 
HETATM   19  C22 UNL     1      -2.824   9.428   5.812  1.00  0.00     0.009 C 
ENDBRANCH  12  15
ENDBRANCH   6   7
ENDBRANCH   5   6
ENDBRANCH   1   5
BRANCH   3  20
HETATM   20  C8  UNL     1       1.922  10.009   7.338  1.00  0.00     0.123 C 
BRANCH  20  21
HETATM   21  C9  UNL     1       2.992  10.835   6.650  1.00  0.00     0.025 C 
BRANCH  21  22
HETATM   22  C10 UNL     1       2.994  12.267   6.969  1.00  0.00     0.046 C 
BRANCH  22  23
HETATM   23  C11 UNL     1       1.747  12.979   7.310  1.00  0.00     0.064 C 
BRANCH  23  24
HETATM   24  N3  UNL     1       0.807  13.260   6.333  1.00  0.00    -0.359 N 
HETATM   25  C12 UNL     1       1.164  13.602   5.044  1.00  0.00     0.164 C 
HETATM   26  C13 UNL     1       0.548  12.684   4.009  1.00  0.00     0.256 C 
HETATM   27  O3  UNL     1       1.228  12.208   3.073  1.00  0.00    -0.267 OA
HETATM   28  N4  UNL     1      -0.834  12.413   4.179  1.00  0.00    -0.354 N 
HETATM   29  C14 UNL     1      -1.452  12.892   5.397  1.00  0.00     0.148 C 
ATOM     30  H4  UNL     1      -1.368  11.903   3.476  1.00  0.00     0.162 HD
HETATM   31  C15 UNL     1      -0.534  12.823   6.578  1.00  0.00     0.102 C 
HETATM   32  C16 UNL     1      -1.203  13.490   7.743  1.00  0.00     0.034 C 
ENDBRANCH  23  24
ENDBRANCH  22  23
ENDBRANCH  21  22
ENDBRANCH  20  21
ENDBRANCH   3  20
TORSDOF 10
ENDMDL
MODEL 5
REMARK VINA RESULT: -7.170568379      1.363      2.624
REMARK  10 active torsions:
REMARK  status: ('A' for Active; 'I' for Inactive)
REMARK    1  A    between atoms: C2_2  and  C3_3 
REMARK    2  A    between atoms: C4_7  and  C5_8 
REMARK    3  A    between atoms: C5_8  and  C6_9 
REMARK    4  A    between atoms: C6_9  and  C7_10 
REMARK       I    between atoms: C7_10  and  N2_12 
REMARK    5  A    between atoms: N2_12  and  C8_14 
REMARK    6  A    between atoms: C8_14  and  C9_15 
REMARK    7  A    between atoms: C9_15  and  C10_16 
REMARK    8  A    between atoms: C10_16  and  C11_17 
REMARK    9  A    between atoms: C11_17  and  N3_18 
REMARK   10  A    between atoms: C17_27  and  C18_28 
ROOT
HETATM    1  C7  UNL     1       2.644  11.203   6.667  1.00  0.00     0.217 C 
HETATM    2  O2  UNL     1       2.438  11.874   5.604  1.00  0.00    -0.274 OA
HETATM    3  N2  UNL     1       2.950  11.920   7.834  1.00  0.00    -0.361 N 
ATOM      4  H2  UNL     1       3.119  11.395   8.692  1.00  0.00     0.162 HD
ENDROOT
BRANCH   1   5
HETATM    5  C6  UNL     1       2.547   9.744   6.578  1.00  0.00     0.109 C 
BRANCH   5   6
HETATM    6  C5  UNL     1       1.604   9.185   7.661  1.00  0.00     0.077 C 
BRANCH   6   7
HETATM    7  C4  UNL     1       0.268   9.740   7.409  1.00  0.00     0.085 A 
HETATM    8  O1  UNL     1      -0.171  10.956   7.727  1.00  0.00    -0.242 OA
HETATM    9  N1  UNL     1      -1.399  11.104   7.355  1.00  0.00    -0.265 N 
HETATM   10  C3  UNL     1      -1.811   9.965   6.770  1.00  0.00     0.041 A 
ATOM     11  H1  UNL     1      -1.962  11.945   7.482  1.00  0.00     0.194 HD
HETATM   12  C17 UNL     1      -0.763   9.066   6.788  1.00  0.00     0.002 A 
BRANCH  10  13
HETATM   13  C2  UNL     1      -3.177   9.763   6.191  1.00  0.00     0.055 C 
HETATM   14  C1  UNL     1      -4.136  10.692   6.869  1.00  0.00     0.011 C 
ENDBRANCH  10  13
BRANCH  12  15
HETATM   15  C18 UNL     1      -0.851   7.721   6.264  1.00  0.00     0.023 C 
HETATM   16  C19 UNL     1      -2.144   7.329   5.594  1.00  0.00     0.009 C 
HETATM   17  C20 UNL     1      -1.743   5.879   5.223  1.00  0.00     0.001 C 
HETATM   18  C21 UNL     1      -0.331   6.080   4.654  1.00  0.00     0.001 C 
HETATM   19  C22 UNL     1       0.108   7.453   5.113  1.00  0.00     0.009 C 
ENDBRANCH  12  15
ENDBRANCH   6   7
ENDBRANCH   5   6
ENDBRANCH   1   5
BRANCH   3  20
HETATM   20  C8  UNL     1       3.039  13.368   7.885  1.00  0.00     0.123 C 
BRANCH  20  21
HETATM   21  C9  UNL     1       4.506  13.746   7.827  1.00  0.00     0.025 C 
BRANCH  21  22
HETATM   22  C10 UNL     1       5.350  13.191   8.892  1.00  0.00     0.046 C 
BRANCH  22  23
HETATM   23  C11 UNL     1       5.491  13.872  10.193  1.00  0.00     0.064 C 
BRANCH  23  24
HETATM   24  N3  UNL     1       5.240  13.194  11.374  1.00  0.00    -0.359 N 
HETATM   25  C12 UNL     1       5.814  11.970  11.657  1.00  0.00     0.164 C 
HETATM   26  C13 UNL     1       6.592  11.980  12.956  1.00  0.00     0.256 C 
HETATM   27  O3  UNL     1       7.737  11.484  13.034  1.00  0.00    -0.267 OA
HETATM   28  N4  UNL     1       5.932  12.584  14.057  1.00  0.00    -0.354 N 
HETATM   29  C14 UNL     1       4.685  13.265  13.783  1.00  0.00     0.148 C 
ATOM     30  H4  UNL     1       6.319  12.540  15.000  1.00  0.00     0.162 HD
HETATM   31  C15 UNL     1       4.681  13.952  12.453  1.00  0.00     0.102 C 
HETATM   32  C16 UNL     1       3.303  14.482  12.191  1.00  0.00     0.034 C 
ENDBRANCH  23  24
ENDBRANCH  22  23
ENDBRANCH  21  22
ENDBRANCH  20  21
ENDBRANCH   3  20
TORSDOF 10
ENDMDL
