MODEL 1
REMARK VINA RESULT: -8.550550966      0.000      0.000
REMARK  18 active torsions:
REMARK  status: ('A' for Active; 'I' for Inactive)
REMARK    1  A    between atoms: O1_2  and  C2_3 
REMARK    2  A    between atoms: C2_3  and  C3_4 
REMARK    3  A    between atoms: C2_3  and  C10_16 
REMARK    4  A    between atoms: C5_6  and  O2_7 
REMARK    5  A    between atoms: C6_9  and  O3_10 
REMARK    6  A    between atoms: C10_16  and  O4_17 
REMARK    7  A    between atoms: C10_16  and  C11_19 
REMARK    8  A    between atoms: C11_19  and  O5_20 
REMARK    9  A    between atoms: C11_19  and  N2_22 
REMARK   10  A    between atoms: C16_28  and  C17_29 
REMARK   11  A    between atoms: C17_29  and  O6_30 
REMARK   12  A    between atoms: C17_29  and  C20_34 
REMARK   13  A    between atoms: O6_30  and  C18_31 
REMARK   14  A    between atoms: C20_34  and  O8_35 
REMARK   15  A    between atoms: C20_34  and  O9_37 
REMARK   16  A    between atoms: C21_40  and  O11_41 
REMARK   17  A    between atoms: C21_40  and  C22_43 
REMARK   18  A    between atoms: C22_43  and  O12_45 
ROOT
HETATM    1  C3  UNL     1     108.337  56.979  40.280  1.00  0.00    -0.003 A 
HETATM    2  C4  UNL     1     107.147  57.405  40.838  1.00  0.00     0.050 A 
HETATM    3  C5  UNL     1     105.909  56.916  40.470  1.00  0.00     0.099 A 
HETATM    4  C6  UNL     1     105.814  55.951  39.500  1.00  0.00     0.100 A 
HETATM    5  C7  UNL     1     106.989  55.502  38.922  1.00  0.00     0.062 A 
HETATM    6  C8  UNL     1     108.238  56.008  39.306  1.00  0.00     0.056 A 
HETATM    7  C9  UNL     1     109.395  55.426  38.679  1.00  0.00     0.100 C 
HETATM    8  N1  UNL     1     110.318  54.931  38.180  1.00  0.00    -0.191 NA
ENDROOT
BRANCH   1   9
HETATM    9  C2  UNL     1     109.655  57.570  40.645  1.00  0.00     0.188 C 
BRANCH   9  10
HETATM   10  O1  UNL     1     109.977  58.581  39.788  1.00  0.00    -0.383 OA
HETATM   11  C1  UNL     1     111.061  58.486  38.989  1.00  0.00     0.202 C 
ENDBRANCH   9  10
BRANCH   9  12
HETATM   12  C10 UNL     1     109.468  58.159  42.061  1.00  0.00     0.200 C 
BRANCH  12  13
HETATM   13  O4  UNL     1     110.646  57.936  42.727  1.00  0.00    -0.388 OA
ATOM     14  H4  UNL     1     110.478  57.222  43.330  1.00  0.00     0.210 HD
ENDBRANCH  12  13
BRANCH  12  15
HETATM   15  C11 UNL     1     109.287  59.682  41.972  1.00  0.00     0.249 C 
BRANCH  15  16
HETATM   16  O5  UNL     1     108.832  60.066  43.223  1.00  0.00    -0.374 OA
ATOM     17  H5  UNL     1     108.030  60.547  43.059  1.00  0.00     0.212 HD
ENDBRANCH  15  16
BRANCH  15  18
HETATM   18  N2  UNL     1     110.641  60.222  41.882  1.00  0.00    -0.368 N 
HETATM   19  C12 UNL     1     110.877  61.450  42.159  1.00  0.00    -0.008 C 
HETATM   20  C13 UNL     1     112.137  62.260  42.148  1.00  0.00     0.063 C 
HETATM   21  C15 UNL     1     110.161  62.654  42.578  1.00  0.00     0.072 C 
HETATM   22  C14 UNL     1     111.244  63.436  41.774  1.00  0.00     0.068 C 
HETATM   23  C21 UNL     1     111.429  64.637  42.622  1.00  0.00     0.193 C 
HETATM   24  O10 UNL     1     111.414  64.135  43.916  1.00  0.00    -0.344 OA
HETATM   25  C16 UNL     1     110.276  63.278  43.883  1.00  0.00     0.169 C 
ATOM     26  H2  UNL     1     111.407  59.614  41.595  1.00  0.00     0.161 HD
BRANCH  23  27
HETATM   27  O11 UNL     1     110.389  65.555  42.493  1.00  0.00    -0.363 OA
ATOM     28  H11 UNL     1     110.397  66.006  41.657  1.00  0.00     0.213 HD
ENDBRANCH  23  27
BRANCH  23  29
HETATM   29  C22 UNL     1     112.715  65.371  42.318  1.00  0.00     0.176 C 
HETATM   30  C23 UNL     1     112.477  66.851  42.504  1.00  0.00     0.045 C 
BRANCH  29  31
HETATM   31  O12 UNL     1     113.067  65.091  40.995  1.00  0.00    -0.390 OA
ATOM     32  H12 UNL     1     113.991  65.286  40.892  1.00  0.00     0.210 HD
ENDBRANCH  29  31
ENDBRANCH  23  29
BRANCH  25  33
HETATM   33  C17 UNL     1     110.132  62.542  45.156  1.00  0.00     0.216 C 
BRANCH  33  34
HETATM   34  O6  UNL     1     110.432  61.196  45.047  1.00  0.00    -0.309 OA
BRANCH  34  35
HETATM   35  C18 UNL     1     110.017  60.157  45.814  1.00  0.00     0.255 C 
HETATM   36  C19 UNL     1     109.171  60.411  47.018  1.00  0.00     0.126 C 
HETATM   37  O7  UNL     1     110.326  58.985  45.536  1.00  0.00    -0.266 OA
ENDBRANCH  34  35
ENDBRANCH  33  34
BRANCH  33  38
HETATM   38  C20 UNL     1     111.233  63.170  46.101  1.00  0.00     0.285 C 
BRANCH  38  39
HETATM   39  O8  UNL     1     110.814  63.014  47.407  1.00  0.00    -0.369 OA
ATOM     40  H8  UNL     1     111.150  63.746  47.913  1.00  0.00     0.212 HD
ENDBRANCH  38  39
BRANCH  38  41
HETATM   41  O9  UNL     1     112.430  62.523  45.926  1.00  0.00    -0.369 OA
ATOM     42  H9  UNL     1     113.002  62.686  46.667  1.00  0.00     0.212 HD
ENDBRANCH  38  41
ENDBRANCH  33  38
ENDBRANCH  25  33
ENDBRANCH  15  18
ENDBRANCH  12  15
ENDBRANCH   9  12
ENDBRANCH   1   9
BRANCH   4  43
HETATM   43  O3  UNL     1     104.586  55.424  39.092  1.00  0.00    -0.358 OA
ATOM     44  H3  UNL     1     104.493  54.912  38.297  1.00  0.00     0.217 HD
ENDBRANCH   4  43
BRANCH   3  45
HETATM   45  O2  UNL     1     104.789  57.429  41.106  1.00  0.00    -0.358 OA
ATOM     46  H2  UNL     1     104.729  57.339  42.051  1.00  0.00     0.217 HD
ENDBRANCH   3  45
TORSDOF 18
ENDMDL
MODEL 2
REMARK VINA RESULT: -8.464783281      2.826      8.399
REMARK  18 active torsions:
REMARK  status: ('A' for Active; 'I' for Inactive)
REMARK    1  A    between atoms: O1_2  and  C2_3 
REMARK    2  A    between atoms: C2_3  and  C3_4 
REMARK    3  A    between atoms: C2_3  and  C10_16 
REMARK    4  A    between atoms: C5_6  and  O2_7 
REMARK    5  A    between atoms: C6_9  and  O3_10 
REMARK    6  A    between atoms: C10_16  and  O4_17 
REMARK    7  A    between atoms: C10_16  and  C11_19 
REMARK    8  A    between atoms: C11_19  and  O5_20 
REMARK    9  A    between atoms: C11_19  and  N2_22 
REMARK   10  A    between atoms: C16_28  and  C17_29 
REMARK   11  A    between atoms: C17_29  and  O6_30 
REMARK   12  A    between atoms: C17_29  and  C20_34 
REMARK   13  A    between atoms: O6_30  and  C18_31 
REMARK   14  A    between atoms: C20_34  and  O8_35 
REMARK   15  A    between atoms: C20_34  and  O9_37 
REMARK   16  A    between atoms: C21_40  and  O11_41 
REMARK   17  A    between atoms: C21_40  and  C22_43 
REMARK   18  A    between atoms: C22_43  and  O12_45 
ROOT
HETATM    1  C3  UNL     1     112.452  65.876  42.147  1.00  0.00    -0.003 A 
HETATM    2  C4  UNL     1     111.799  66.894  42.816  1.00  0.00     0.050 A 
HETATM    3  C5  UNL     1     112.118  68.230  42.679  1.00  0.00     0.099 A 
HETATM    4  C6  UNL     1     113.135  68.610  41.840  1.00  0.00     0.100 A 
HETATM    5  C7  UNL     1     113.809  67.613  41.154  1.00  0.00     0.062 A 
HETATM    6  C8  UNL     1     113.473  66.261  41.303  1.00  0.00     0.056 A 
HETATM    7  C9  UNL     1     114.203  65.318  40.497  1.00  0.00     0.100 C 
HETATM    8  N1  UNL     1     114.785  64.574  39.825  1.00  0.00    -0.191 NA
ENDROOT
BRANCH   1   9
HETATM    9  C2  UNL     1     112.135  64.436  42.362  1.00  0.00     0.188 C 
BRANCH   9  10
HETATM   10  O1  UNL     1     112.792  63.963  43.460  1.00  0.00    -0.383 OA
HETATM   11  C1  UNL     1     113.703  62.973  43.343  1.00  0.00     0.202 C 
ENDBRANCH   9  10
BRANCH   9  12
HETATM   12  C10 UNL     1     110.614  64.382  42.632  1.00  0.00     0.200 C 
BRANCH  12  13
HETATM   13  O4  UNL     1     110.010  64.323  41.402  1.00  0.00    -0.388 OA
ATOM     14  H4  UNL     1     110.145  63.438  41.083  1.00  0.00     0.210 HD
ENDBRANCH  12  13
BRANCH  12  15
HETATM   15  C11 UNL     1     110.261  63.080  43.366  1.00  0.00     0.249 C 
BRANCH  15  16
HETATM   16  O5  UNL     1     110.302  63.402  44.713  1.00  0.00    -0.374 OA
ATOM     17  H5  UNL     1     111.216  63.585  44.896  1.00  0.00     0.212 HD
ENDBRANCH  15  16
BRANCH  15  18
HETATM   18  N2  UNL     1     108.848  62.852  43.078  1.00  0.00    -0.368 N 
HETATM   19  C12 UNL     1     108.373  61.664  43.021  1.00  0.00    -0.008 C 
HETATM   20  C13 UNL     1     106.997  61.141  42.745  1.00  0.00     0.063 C 
HETATM   21  C15 UNL     1     108.823  60.278  43.154  1.00  0.00     0.072 C 
HETATM   22  C14 UNL     1     107.700  59.939  42.126  1.00  0.00     0.068 C 
HETATM   23  C21 UNL     1     107.227  58.629  42.631  1.00  0.00     0.193 C 
HETATM   24  O10 UNL     1     107.208  58.792  44.009  1.00  0.00    -0.344 OA
HETATM   25  C16 UNL     1     108.477  59.393  44.249  1.00  0.00     0.169 C 
ATOM     26  H2  UNL     1     108.231  63.649  42.918  1.00  0.00     0.161 HD
BRANCH  23  27
HETATM   27  O11 UNL     1     108.096  57.585  42.322  1.00  0.00    -0.363 OA
ATOM     28  H11 UNL     1     107.784  57.046  41.604  1.00  0.00     0.213 HD
ENDBRANCH  23  27
BRANCH  23  29
HETATM   29  C22 UNL     1     105.866  58.254  42.090  1.00  0.00     0.176 C 
HETATM   30  C23 UNL     1     106.055  57.269  40.961  1.00  0.00     0.045 C 
BRANCH  29  31
HETATM   31  O12 UNL     1     105.252  59.422  41.627  1.00  0.00    -0.390 OA
ATOM     32  H12 UNL     1     104.383  59.192  41.319  1.00  0.00     0.210 HD
ENDBRANCH  29  31
ENDBRANCH  23  29
BRANCH  25  33
HETATM   33  C17 UNL     1     108.627  59.758  45.673  1.00  0.00     0.216 C 
BRANCH  33  34
HETATM   34  O6  UNL     1     108.401  58.700  46.536  1.00  0.00    -0.309 OA
BRANCH  34  35
HETATM   35  C18 UNL     1     108.128  58.716  47.864  1.00  0.00     0.255 C 
HETATM   36  C19 UNL     1     106.967  57.943  48.395  1.00  0.00     0.126 C 
HETATM   37  O7  UNL     1     108.828  59.366  48.660  1.00  0.00    -0.266 OA
ENDBRANCH  34  35
ENDBRANCH  33  34
BRANCH  33  38
HETATM   38  C20 UNL     1     110.154  60.139  45.824  1.00  0.00     0.285 C 
BRANCH  38  39
HETATM   39  O8  UNL     1     110.246  61.187  46.718  1.00  0.00    -0.369 OA
ATOM     40  H8  UNL     1     111.167  61.387  46.842  1.00  0.00     0.212 HD
ENDBRANCH  38  39
BRANCH  38  41
HETATM   41  O9  UNL     1     110.863  59.067  46.303  1.00  0.00    -0.369 OA
ATOM     42  H9  UNL     1     111.197  59.258  47.172  1.00  0.00     0.212 HD
ENDBRANCH  38  41
ENDBRANCH  33  38
ENDBRANCH  25  33
ENDBRANCH  15  18
ENDBRANCH  12  15
ENDBRANCH   9  12
ENDBRANCH   1   9
BRANCH   4  43
HETATM   43  O3  UNL     1     113.497  69.948  41.667  1.00  0.00    -0.358 OA
ATOM     44  H3  UNL     1     114.149  70.371  42.214  1.00  0.00     0.217 HD
ENDBRANCH   4  43
BRANCH   3  45
HETATM   45  O2  UNL     1     111.386  69.154  43.408  1.00  0.00    -0.358 OA
ATOM     46  H2  UNL     1     110.910  69.825  42.932  1.00  0.00     0.217 HD
ENDBRANCH   3  45
TORSDOF 18
ENDMDL
MODEL 3
REMARK VINA RESULT: -8.440389326      1.750      2.348
REMARK  18 active torsions:
REMARK  status: ('A' for Active; 'I' for Inactive)
REMARK    1  A    between atoms: O1_2  and  C2_3 
REMARK    2  A    between atoms: C2_3  and  C3_4 
REMARK    3  A    between atoms: C2_3  and  C10_16 
REMARK    4  A    between atoms: C5_6  and  O2_7 
REMARK    5  A    between atoms: C6_9  and  O3_10 
REMARK    6  A    between atoms: C10_16  and  O4_17 
REMARK    7  A    between atoms: C10_16  and  C11_19 
REMARK    8  A    between atoms: C11_19  and  O5_20 
REMARK    9  A    between atoms: C11_19  and  N2_22 
REMARK   10  A    between atoms: C16_28  and  C17_29 
REMARK   11  A    between atoms: C17_29  and  O6_30 
REMARK   12  A    between atoms: C17_29  and  C20_34 
REMARK   13  A    between atoms: O6_30  and  C18_31 
REMARK   14  A    between atoms: C20_34  and  O8_35 
REMARK   15  A    between atoms: C20_34  and  O9_37 
REMARK   16  A    between atoms: C21_40  and  O11_41 
REMARK   17  A    between atoms: C21_40  and  C22_43 
REMARK   18  A    between atoms: C22_43  and  O12_45 
ROOT
HETATM    1  C3  UNL     1     106.691  57.555  40.595  1.00  0.00    -0.003 A 
HETATM    2  C4  UNL     1     105.522  56.831  40.462  1.00  0.00     0.050 A 
HETATM    3  C5  UNL     1     105.429  55.644  39.762  1.00  0.00     0.099 A 
HETATM    4  C6  UNL     1     106.540  55.121  39.151  1.00  0.00     0.100 A 
HETATM    5  C7  UNL     1     107.729  55.822  39.266  1.00  0.00     0.062 A 
HETATM    6  C8  UNL     1     107.806  57.025  39.980  1.00  0.00     0.056 A 
HETATM    7  C9  UNL     1     109.105  57.637  40.083  1.00  0.00     0.100 C 
HETATM    8  N1  UNL     1     110.162  58.105  40.174  1.00  0.00    -0.191 NA
ENDROOT
BRANCH   1   9
HETATM    9  C2  UNL     1     106.751  58.867  41.297  1.00  0.00     0.188 C 
BRANCH   9  10
HETATM   10  O1  UNL     1     105.707  59.658  40.919  1.00  0.00    -0.383 OA
HETATM   11  C1  UNL     1     105.641  60.947  41.314  1.00  0.00     0.202 C 
ENDBRANCH   9  10
BRANCH   9  12
HETATM   12  C10 UNL     1     106.608  58.540  42.801  1.00  0.00     0.200 C 
BRANCH  12  13
HETATM   13  O4  UNL     1     107.127  57.282  42.969  1.00  0.00    -0.388 OA
ATOM     14  H4  UNL     1     106.477  56.679  42.627  1.00  0.00     0.210 HD
ENDBRANCH  12  13
BRANCH  12  15
HETATM   15  C11 UNL     1     107.479  59.497  43.628  1.00  0.00     0.249 C 
BRANCH  15  16
HETATM   16  O5  UNL     1     107.543  58.928  44.890  1.00  0.00    -0.374 OA
ATOM     17  H5  UNL     1     108.412  59.135  45.211  1.00  0.00     0.212 HD
ENDBRANCH  15  16
BRANCH  15  18
HETATM   18  N2  UNL     1     108.826  59.354  43.083  1.00  0.00    -0.368 N 
HETATM   19  C12 UNL     1     109.547  60.383  42.837  1.00  0.00    -0.008 C 
HETATM   20  C13 UNL     1     110.931  60.534  42.282  1.00  0.00     0.063 C 
HETATM   21  C15 UNL     1     109.469  61.841  42.916  1.00  0.00     0.072 C 
HETATM   22  C14 UNL     1     110.427  61.842  41.686  1.00  0.00     0.068 C 
HETATM   23  C21 UNL     1     111.281  63.017  41.979  1.00  0.00     0.193 C 
HETATM   24  O10 UNL     1     111.520  62.919  43.343  1.00  0.00    -0.344 OA
HETATM   25  C16 UNL     1     110.214  62.664  43.851  1.00  0.00     0.169 C 
ATOM     26  H2  UNL     1     109.196  58.422  42.894  1.00  0.00     0.161 HD
BRANCH  23  27
HETATM   27  O11 UNL     1     110.640  64.228  41.729  1.00  0.00    -0.363 OA
ATOM     28  H11 UNL     1     111.048  64.723  41.028  1.00  0.00     0.213 HD
ENDBRANCH  23  27
BRANCH  23  29
HETATM   29  C22 UNL     1     112.565  63.016  41.181  1.00  0.00     0.176 C 
HETATM   30  C23 UNL     1     113.286  64.318  41.434  1.00  0.00     0.045 C 
BRANCH  29  31
HETATM   31  O12 UNL     1     112.230  62.892  39.830  1.00  0.00    -0.390 OA
ATOM     32  H12 UNL     1     112.799  63.470  39.335  1.00  0.00     0.210 HD
ENDBRANCH  29  31
ENDBRANCH  23  29
BRANCH  25  33
HETATM   33  C17 UNL     1     110.253  62.416  45.307  1.00  0.00     0.216 C 
BRANCH  33  34
HETATM   34  O6  UNL     1     110.549  61.104  45.631  1.00  0.00    -0.309 OA
BRANCH  34  35
HETATM   35  C18 UNL     1     109.919  60.267  46.491  1.00  0.00     0.255 C 
HETATM   36  C19 UNL     1     109.264  60.812  47.716  1.00  0.00     0.126 C 
HETATM   37  O7  UNL     1     109.873  59.041  46.284  1.00  0.00    -0.266 OA
ENDBRANCH  34  35
ENDBRANCH  33  34
BRANCH  33  38
HETATM   38  C20 UNL     1     111.466  63.288  45.824  1.00  0.00     0.285 C 
BRANCH  38  39
HETATM   39  O8  UNL     1     111.220  63.627  47.138  1.00  0.00    -0.369 OA
ATOM     40  H8  UNL     1     111.859  64.280  47.399  1.00  0.00     0.212 HD
ENDBRANCH  38  39
BRANCH  38  41
HETATM   41  O9  UNL     1     112.631  62.568  45.749  1.00  0.00    -0.369 OA
ATOM     42  H9  UNL     1     112.483  61.675  46.040  1.00  0.00     0.212 HD
ENDBRANCH  38  41
ENDBRANCH  33  38
ENDBRANCH  25  33
ENDBRANCH  15  18
ENDBRANCH  12  15
ENDBRANCH   9  12
ENDBRANCH   1   9
BRANCH   4  43
HETATM   43  O3  UNL     1     106.499  53.924  38.431  1.00  0.00    -0.358 OA
ATOM     44  H3  UNL     1     106.736  53.090  38.820  1.00  0.00     0.217 HD
ENDBRANCH   4  43
BRANCH   3  45
HETATM   45  O2  UNL     1     104.195  55.016  39.702  1.00  0.00    -0.358 OA
ATOM     46  H2  UNL     1     104.158  54.083  39.879  1.00  0.00     0.217 HD
ENDBRANCH   3  45
TORSDOF 18
ENDMDL
MODEL 4
REMARK VINA RESULT: -8.015486423      2.552      8.378
REMARK  18 active torsions:
REMARK  status: ('A' for Active; 'I' for Inactive)
REMARK    1  A    between atoms: O1_2  and  C2_3 
REMARK    2  A    between atoms: C2_3  and  C3_4 
REMARK    3  A    between atoms: C2_3  and  C10_16 
REMARK    4  A    between atoms: C5_6  and  O2_7 
REMARK    5  A    between atoms: C6_9  and  O3_10 
REMARK    6  A    between atoms: C10_16  and  O4_17 
REMARK    7  A    between atoms: C10_16  and  C11_19 
REMARK    8  A    between atoms: C11_19  and  O5_20 
REMARK    9  A    between atoms: C11_19  and  N2_22 
REMARK   10  A    between atoms: C16_28  and  C17_29 
REMARK   11  A    between atoms: C17_29  and  O6_30 
REMARK   12  A    between atoms: C17_29  and  C20_34 
REMARK   13  A    between atoms: O6_30  and  C18_31 
REMARK   14  A    between atoms: C20_34  and  O8_35 
REMARK   15  A    between atoms: C20_34  and  O9_37 
REMARK   16  A    between atoms: C21_40  and  O11_41 
REMARK   17  A    between atoms: C21_40  and  C22_43 
REMARK   18  A    between atoms: C22_43  and  O12_45 
ROOT
HETATM    1  C3  UNL     1     112.304  66.294  42.327  1.00  0.00    -0.003 A 
HETATM    2  C4  UNL     1     113.203  67.343  42.284  1.00  0.00     0.050 A 
HETATM    3  C5  UNL     1     112.884  68.642  42.626  1.00  0.00     0.099 A 
HETATM    4  C6  UNL     1     111.613  68.949  43.038  1.00  0.00     0.100 A 
HETATM    5  C7  UNL     1     110.687  67.921  43.093  1.00  0.00     0.062 A 
HETATM    6  C8  UNL     1     111.027  66.607  42.744  1.00  0.00     0.056 A 
HETATM    7  C9  UNL     1     110.001  65.609  42.896  1.00  0.00     0.100 C 
HETATM    8  N1  UNL     1     109.170  64.814  43.044  1.00  0.00    -0.191 NA
ENDROOT
BRANCH   1   9
HETATM    9  C2  UNL     1     112.653  64.914  41.889  1.00  0.00     0.188 C 
BRANCH   9  10
HETATM   10  O1  UNL     1     113.569  64.953  40.879  1.00  0.00    -0.383 OA
HETATM   11  C1  UNL     1     114.318  63.868  40.588  1.00  0.00     0.202 C 
ENDBRANCH   9  10
BRANCH   9  12
HETATM   12  C10 UNL     1     113.300  64.239  43.120  1.00  0.00     0.200 C 
BRANCH  12  13
HETATM   13  O4  UNL     1     113.224  65.153  44.141  1.00  0.00    -0.388 OA
ATOM     14  H4  UNL     1     113.388  64.669  44.942  1.00  0.00     0.210 HD
ENDBRANCH  12  13
BRANCH  12  15
HETATM   15  C11 UNL     1     112.463  63.023  43.547  1.00  0.00     0.249 C 
BRANCH  15  16
HETATM   16  O5  UNL     1     111.565  63.512  44.482  1.00  0.00    -0.374 OA
ATOM     17  H5  UNL     1     111.814  63.103  45.302  1.00  0.00     0.212 HD
ENDBRANCH  15  16
BRANCH  15  18
HETATM   18  N2  UNL     1     111.649  62.693  42.381  1.00  0.00    -0.368 N 
HETATM   19  C12 UNL     1     111.118  61.534  42.258  1.00  0.00    -0.008 C 
HETATM   20  C13 UNL     1     110.261  60.927  41.190  1.00  0.00     0.063 C 
HETATM   21  C15 UNL     1     111.049  60.260  42.974  1.00  0.00     0.072 C 
HETATM   22  C14 UNL     1     110.927  59.608  41.562  1.00  0.00     0.068 C 
HETATM   23  C21 UNL     1     109.980  58.501  41.832  1.00  0.00     0.193 C 
HETATM   24  O10 UNL     1     109.038  59.068  42.678  1.00  0.00    -0.344 OA
HETATM   25  C16 UNL     1     109.864  59.738  43.627  1.00  0.00     0.169 C 
ATOM     26  H2  UNL     1     111.502  63.394  41.655  1.00  0.00     0.161 HD
BRANCH  23  27
HETATM   27  O11 UNL     1     110.577  57.428  42.491  1.00  0.00    -0.363 OA
ATOM     28  H11 UNL     1     110.414  57.434  43.427  1.00  0.00     0.213 HD
ENDBRANCH  23  27
BRANCH  23  29
HETATM   29  C22 UNL     1     109.348  57.956  40.571  1.00  0.00     0.176 C 
HETATM   30  C23 UNL     1     107.915  57.588  40.875  1.00  0.00     0.045 C 
BRANCH  29  31
HETATM   31  O12 UNL     1     110.074  56.828  40.179  1.00  0.00    -0.390 OA
ATOM     32  H12 UNL     1     110.642  57.082  39.461  1.00  0.00     0.210 HD
ENDBRANCH  29  31
ENDBRANCH  23  29
BRANCH  25  33
HETATM   33  C17 UNL     1     109.048  60.514  44.582  1.00  0.00     0.216 C 
BRANCH  33  34
HETATM   34  O6  UNL     1     109.781  61.442  45.301  1.00  0.00    -0.309 OA
BRANCH  34  35
HETATM   35  C18 UNL     1     109.833  61.647  46.640  1.00  0.00     0.255 C 
HETATM   36  C19 UNL     1     109.366  60.582  47.576  1.00  0.00     0.126 C 
HETATM   37  O7  UNL     1     110.264  62.713  47.114  1.00  0.00    -0.266 OA
ENDBRANCH  34  35
ENDBRANCH  33  34
BRANCH  33  38
HETATM   38  C20 UNL     1     108.053  61.339  43.672  1.00  0.00     0.285 C 
BRANCH  38  39
HETATM   39  O8  UNL     1     106.908  60.589  43.500  1.00  0.00    -0.369 OA
ATOM     40  H8  UNL     1     106.539  60.803  42.651  1.00  0.00     0.212 HD
ENDBRANCH  38  39
BRANCH  38  41
HETATM   41  O9  UNL     1     107.732  62.527  44.280  1.00  0.00    -0.369 OA
ATOM     42  H9  UNL     1     108.079  63.255  43.777  1.00  0.00     0.212 HD
ENDBRANCH  38  41
ENDBRANCH  33  38
ENDBRANCH  25  33
ENDBRANCH  15  18
ENDBRANCH  12  15
ENDBRANCH   9  12
ENDBRANCH   1   9
BRANCH   4  43
HETATM   43  O3  UNL     1     111.239  70.248  43.394  1.00  0.00    -0.358 OA
ATOM     44  H3  UNL     1     111.016  70.484  44.287  1.00  0.00     0.217 HD
ENDBRANCH   4  43
BRANCH   3  45
HETATM   45  O2  UNL     1     113.879  69.604  42.537  1.00  0.00    -0.358 OA
ATOM     46  H2  UNL     1     114.237  69.799  41.679  1.00  0.00     0.217 HD
ENDBRANCH   3  45
TORSDOF 18
ENDMDL
MODEL 5
REMARK VINA RESULT: -7.969874713      1.544      2.766
REMARK  18 active torsions:
REMARK  status: ('A' for Active; 'I' for Inactive)
REMARK    1  A    between atoms: O1_2  and  C2_3 
REMARK    2  A    between atoms: C2_3  and  C3_4 
REMARK    3  A    between atoms: C2_3  and  C10_16 
REMARK    4  A    between atoms: C5_6  and  O2_7 
REMARK    5  A    between atoms: C6_9  and  O3_10 
REMARK    6  A    between atoms: C10_16  and  O4_17 
REMARK    7  A    between atoms: C10_16  and  C11_19 
REMARK    8  A    between atoms: C11_19  and  O5_20 
REMARK    9  A    between atoms: C11_19  and  N2_22 
REMARK   10  A    between atoms: C16_28  and  C17_29 
REMARK   11  A    between atoms: C17_29  and  O6_30 
REMARK   12  A    between atoms: C17_29  and  C20_34 
REMARK   13  A    between atoms: O6_30  and  C18_31 
REMARK   14  A    between atoms: C20_34  and  O8_35 
REMARK   15  A    between atoms: C20_34  and  O9_37 
REMARK   16  A    between atoms: C21_40  and  O11_41 
REMARK   17  A    between atoms: C21_40  and  C22_43 
REMARK   18  A    between atoms: C22_43  and  O12_45 
ROOT
HETATM    1  C3  UNL     1     108.245  56.928  40.028  1.00  0.00    -0.003 A 
HETATM    2  C4  UNL     1     107.534  57.635  40.978  1.00  0.00     0.050 A 
HETATM    3  C5  UNL     1     106.229  57.349  41.330  1.00  0.00     0.099 A 
HETATM    4  C6  UNL     1     105.568  56.311  40.725  1.00  0.00     0.100 A 
HETATM    5  C7  UNL     1     106.253  55.581  39.768  1.00  0.00     0.062 A 
HETATM    6  C8  UNL     1     107.578  55.884  39.423  1.00  0.00     0.056 A 
HETATM    7  C9  UNL     1     108.209  55.022  38.458  1.00  0.00     0.100 C 
HETATM    8  N1  UNL     1     108.711  54.306  37.696  1.00  0.00    -0.191 NA
ENDROOT
BRANCH   1   9
HETATM    9  C2  UNL     1     109.628  57.297  39.616  1.00  0.00     0.188 C 
BRANCH   9  10
HETATM   10  O1  UNL     1     109.601  58.058  38.485  1.00  0.00    -0.383 OA
HETATM   11  C1  UNL     1     110.136  57.599  37.334  1.00  0.00     0.202 C 
ENDBRANCH   9  10
BRANCH   9  12
HETATM   12  C10 UNL     1     110.192  58.150  40.775  1.00  0.00     0.200 C 
BRANCH  12  13
HETATM   13  O4  UNL     1     110.503  57.270  41.781  1.00  0.00    -0.388 OA
ATOM     14  H4  UNL     1     109.773  56.664  41.837  1.00  0.00     0.210 HD
ENDBRANCH  12  13
BRANCH  12  15
HETATM   15  C11 UNL     1     111.508  58.814  40.341  1.00  0.00     0.249 C 
BRANCH  15  16
HETATM   16  O5  UNL     1     111.129  59.854  39.508  1.00  0.00    -0.374 OA
ATOM     17  H5  UNL     1     111.941  60.197  39.156  1.00  0.00     0.212 HD
ENDBRANCH  15  16
BRANCH  15  18
HETATM   18  N2  UNL     1     112.021  59.464  41.545  1.00  0.00    -0.368 N 
HETATM   19  C12 UNL     1     111.542  60.584  41.940  1.00  0.00    -0.008 C 
HETATM   20  C13 UNL     1     111.871  61.464  43.107  1.00  0.00     0.063 C 
HETATM   21  C15 UNL     1     110.535  61.567  41.541  1.00  0.00     0.072 C 
HETATM   22  C14 UNL     1     111.474  62.623  42.201  1.00  0.00     0.068 C 
HETATM   23  C21 UNL     1     110.491  63.557  42.798  1.00  0.00     0.193 C 
HETATM   24  O10 UNL     1     109.518  62.720  43.326  1.00  0.00    -0.344 OA
HETATM   25  C16 UNL     1     109.293  61.817  42.248  1.00  0.00     0.169 C 
ATOM     26  H2  UNL     1     112.770  59.021  42.076  1.00  0.00     0.161 HD
BRANCH  23  27
HETATM   27  O11 UNL     1     109.893  64.389  41.855  1.00  0.00    -0.363 OA
ATOM     28  H11 UNL     1     109.036  64.698  42.125  1.00  0.00     0.213 HD
ENDBRANCH  23  27
BRANCH  23  29
HETATM   29  C22 UNL     1     111.103  64.446  43.857  1.00  0.00     0.176 C 
HETATM   30  C23 UNL     1     112.408  64.992  43.326  1.00  0.00     0.045 C 
BRANCH  29  31
HETATM   31  O12 UNL     1     111.322  63.668  44.997  1.00  0.00    -0.390 OA
ATOM     32  H12 UNL     1     112.091  64.008  45.439  1.00  0.00     0.210 HD
ENDBRANCH  29  31
ENDBRANCH  23  29
BRANCH  25  33
HETATM   33  C17 UNL     1     108.346  60.753  42.639  1.00  0.00     0.216 C 
BRANCH  33  34
HETATM   34  O6  UNL     1     108.402  60.438  43.986  1.00  0.00    -0.309 OA
BRANCH  34  35
HETATM   35  C18 UNL     1     109.195  59.546  44.629  1.00  0.00     0.255 C 
HETATM   36  C19 UNL     1     109.249  59.536  46.120  1.00  0.00     0.126 C 
HETATM   37  O7  UNL     1     109.886  58.725  44.000  1.00  0.00    -0.266 OA
ENDBRANCH  34  35
ENDBRANCH  33  34
BRANCH  33  38
HETATM   38  C20 UNL     1     106.918  61.381  42.387  1.00  0.00     0.285 C 
BRANCH  38  39
HETATM   39  O8  UNL     1     106.442  60.893  41.187  1.00  0.00    -0.369 OA
ATOM     40  H8  UNL     1     106.877  61.362  40.484  1.00  0.00     0.212 HD
ENDBRANCH  38  39
BRANCH  38  41
HETATM   41  O9  UNL     1     106.060  61.025  43.397  1.00  0.00    -0.369 OA
ATOM     42  H9  UNL     1     106.151  61.624  44.129  1.00  0.00     0.212 HD
ENDBRANCH  38  41
ENDBRANCH  33  38
ENDBRANCH  25  33
ENDBRANCH  15  18
ENDBRANCH  12  15
ENDBRANCH   9  12
ENDBRANCH   1   9
BRANCH   4  43
HETATM   43  O3  UNL     1     104.248  55.982  41.044  1.00  0.00    -0.358 OA
ATOM     44  H3  UNL     1     104.033  55.285  41.653  1.00  0.00     0.217 HD
ENDBRANCH   4  43
BRANCH   3  45
HETATM   45  O2  UNL     1     105.626  58.138  42.298  1.00  0.00    -0.358 OA
ATOM     46  H2  UNL     1     106.165  58.462  43.011  1.00  0.00     0.217 HD
ENDBRANCH   3  45
TORSDOF 18
ENDMDL
