MODEL 1
REMARK VINA RESULT: -8.410691650      0.000      0.000
REMARK  17 active torsions:
REMARK  status: ('A' for Active; 'I' for Inactive)
REMARK    1  A    between atoms: C2_2  and  C3_4 
REMARK    2  A    between atoms: C3_4  and  O2_6 
REMARK    3  A    between atoms: C3_4  and  C5_8 
REMARK    4  A    between atoms: C5_8  and  C6_9 
REMARK    5  A    between atoms: C5_8  and  O5_21 
REMARK    6  A    between atoms: C7_10  and  C8_11 
REMARK    7  A    between atoms: C11_14  and  O3_15 
REMARK    8  A    between atoms: C12_17  and  O4_18 
REMARK    9  A    between atoms: O5_21  and  C14_22 
REMARK   10  A    between atoms: C15_23  and  N1_24 
REMARK   11  A    between atoms: C17_29  and  N2_30 
REMARK   12  A    between atoms: C18_34  and  O6_35 
REMARK   13  A    between atoms: O6_35  and  C19_36 
REMARK   14  A    between atoms: C20_37  and  N3_38 
REMARK   15  A    between atoms: C22_43  and  N4_44 
REMARK   16  A    between atoms: C24_49  and  N5_50 
REMARK   17  A    between atoms: C25_54  and  O7_55 
ROOT
HETATM    1  C14 UNL     1     111.412  61.569  42.735  1.00  0.00     0.184 C 
HETATM    2  C15 UNL     1     112.021  61.279  41.407  1.00  0.00     0.217 C 
HETATM    3  C16 UNL     1     113.488  61.611  41.535  1.00  0.00     0.071 C 
HETATM    4  C17 UNL     1     113.784  62.872  42.287  1.00  0.00     0.217 C 
HETATM    5  C18 UNL     1     112.586  63.804  42.434  1.00  0.00     0.183 C 
HETATM    6  C25 UNL     1     111.484  63.022  43.118  1.00  0.00     0.180 C 
ENDROOT
BRANCH   1   7
HETATM    7  O5  UNL     1     110.131  61.143  42.918  1.00  0.00    -0.368 OA
BRANCH   7   8
HETATM    8  C5  UNL     1     109.888  59.994  43.570  1.00  0.00     0.186 C 
BRANCH   8   9
HETATM    9  C3  UNL     1     109.631  60.084  45.056  1.00  0.00     0.143 C 
HETATM   10  C4  UNL     1     108.436  59.283  45.506  1.00  0.00     0.057 C 
BRANCH   9  11
HETATM   11  C2  UNL     1     109.318  61.514  45.423  1.00  0.00     0.159 C 
HETATM   12  C1  UNL     1     110.148  62.218  46.413  1.00  0.00     0.094 C 
HETATM   13  O1  UNL     1     108.387  62.098  44.912  1.00  0.00    -0.295 OA
ENDBRANCH   9  11
BRANCH   9  14
HETATM   14  O2  UNL     1     110.702  59.718  45.829  1.00  0.00    -0.379 OA
ATOM     15  H2  UNL     1     110.953  58.848  45.538  1.00  0.00     0.211 HD
ENDBRANCH   9  14
ENDBRANCH   8   9
BRANCH   8  16
HETATM   16  C6  UNL     1     108.770  59.330  42.847  1.00  0.00     0.009 C 
HETATM   17  C7  UNL     1     108.920  58.365  41.981  1.00  0.00     0.010 C 
BRANCH  17  18
HETATM   18  C8  UNL     1     107.904  57.671  41.241  1.00  0.00    -0.034 A 
HETATM   19  C9  UNL     1     108.222  57.013  40.075  1.00  0.00     0.014 A 
HETATM   20  C10 UNL     1     107.243  56.332  39.341  1.00  0.00     0.040 A 
HETATM   21  C11 UNL     1     105.948  56.309  39.768  1.00  0.00     0.098 A 
HETATM   22  C12 UNL     1     105.612  56.968  40.938  1.00  0.00     0.099 A 
HETATM   23  C13 UNL     1     106.587  57.632  41.650  1.00  0.00     0.050 A 
BRANCH  21  24
HETATM   24  O3  UNL     1     104.980  55.629  39.030  1.00  0.00    -0.358 OA
ATOM     25  H3  UNL     1     104.141  56.039  38.852  1.00  0.00     0.217 HD
ENDBRANCH  21  24
BRANCH  22  26
HETATM   26  O4  UNL     1     104.286  56.926  41.345  1.00  0.00    -0.358 OA
ATOM     27  H4  UNL     1     104.064  57.335  42.173  1.00  0.00     0.217 HD
ENDBRANCH  22  26
ENDBRANCH  17  18
ENDBRANCH   8  16
ENDBRANCH   7   8
ENDBRANCH   1   7
BRANCH   2  28
HETATM   28  N1  UNL     1     111.479  61.923  40.271  1.00  0.00    -0.072 N 
ATOM     29  H13 UNL     1     110.463  61.952  40.357  1.00  0.00     0.274 HD
ATOM     30  H12 UNL     1     111.706  62.917  40.311  1.00  0.00     0.274 HD
ATOM     31  H11 UNL     1     111.726  61.561  39.350  1.00  0.00     0.274 HD
ENDBRANCH   2  28
BRANCH   6  32
HETATM   32  O7  UNL     1     110.214  63.542  42.901  1.00  0.00    -0.390 OA
ATOM     33  H7  UNL     1     110.059  63.477  41.966  1.00  0.00     0.210 HD
ENDBRANCH   6  32
BRANCH   5  34
HETATM   34  O6  UNL     1     112.993  64.921  43.075  1.00  0.00    -0.372 OA
BRANCH  34  35
HETATM   35  C19 UNL     1     113.019  66.132  42.544  1.00  0.00     0.182 C 
HETATM   36  C20 UNL     1     113.563  66.317  41.134  1.00  0.00     0.216 C 
HETATM   37  C21 UNL     1     113.248  67.750  40.702  1.00  0.00     0.068 C 
HETATM   38  C22 UNL     1     113.265  68.726  41.855  1.00  0.00     0.187 C 
HETATM   39  C23 UNL     1     112.062  68.400  42.723  1.00  0.00     0.068 C 
HETATM   40  C24 UNL     1     111.730  66.902  42.566  1.00  0.00     0.216 C 
BRANCH  36  41
HETATM   41  N3  UNL     1     115.004  66.218  41.061  1.00  0.00    -0.072 N 
ATOM     42  H33 UNL     1     115.389  66.955  40.472  1.00  0.00     0.274 HD
ATOM     43  H32 UNL     1     115.431  66.473  41.952  1.00  0.00     0.274 HD
ATOM     44  H31 UNL     1     115.329  65.301  40.753  1.00  0.00     0.274 HD
ENDBRANCH  36  41
BRANCH  38  45
HETATM   45  N4  UNL     1     113.058  70.047  41.304  1.00  0.00    -0.075 N 
ATOM     46  H43 UNL     1     113.423  70.146  40.356  1.00  0.00     0.274 HD
ATOM     47  H42 UNL     1     112.079  70.241  41.089  1.00  0.00     0.274 HD
ATOM     48  H41 UNL     1     113.462  70.717  41.958  1.00  0.00     0.274 HD
ENDBRANCH  38  45
BRANCH  40  49
HETATM   49  N5  UNL     1     110.798  66.449  43.542  1.00  0.00    -0.072 N 
ATOM     50  H53 UNL     1     110.512  65.489  43.345  1.00  0.00     0.274 HD
ATOM     51  H52 UNL     1     111.261  66.309  44.441  1.00  0.00     0.274 HD
ATOM     52  H51 UNL     1     109.982  67.051  43.650  1.00  0.00     0.274 HD
ENDBRANCH  40  49
ENDBRANCH  34  35
ENDBRANCH   5  34
BRANCH   4  53
HETATM   53  N2  UNL     1     114.360  62.615  43.595  1.00  0.00    -0.072 N 
ATOM     54  H23 UNL     1     115.035  61.852  43.555  1.00  0.00     0.274 HD
ATOM     55  H22 UNL     1     114.983  63.371  43.878  1.00  0.00     0.274 HD
ATOM     56  H21 UNL     1     113.649  62.440  44.305  1.00  0.00     0.274 HD
ENDBRANCH   4  53
TORSDOF 17
ENDMDL
MODEL 2
REMARK VINA RESULT: -8.400521959      3.039      9.554
REMARK  17 active torsions:
REMARK  status: ('A' for Active; 'I' for Inactive)
REMARK    1  A    between atoms: C2_2  and  C3_4 
REMARK    2  A    between atoms: C3_4  and  O2_6 
REMARK    3  A    between atoms: C3_4  and  C5_8 
REMARK    4  A    between atoms: C5_8  and  C6_9 
REMARK    5  A    between atoms: C5_8  and  O5_21 
REMARK    6  A    between atoms: C7_10  and  C8_11 
REMARK    7  A    between atoms: C11_14  and  O3_15 
REMARK    8  A    between atoms: C12_17  and  O4_18 
REMARK    9  A    between atoms: O5_21  and  C14_22 
REMARK   10  A    between atoms: C15_23  and  N1_24 
REMARK   11  A    between atoms: C17_29  and  N2_30 
REMARK   12  A    between atoms: C18_34  and  O6_35 
REMARK   13  A    between atoms: O6_35  and  C19_36 
REMARK   14  A    between atoms: C20_37  and  N3_38 
REMARK   15  A    between atoms: C22_43  and  N4_44 
REMARK   16  A    between atoms: C24_49  and  N5_50 
REMARK   17  A    between atoms: C25_54  and  O7_55 
ROOT
HETATM    1  C14 UNL     1     111.096  61.764  43.339  1.00  0.00     0.184 C 
HETATM    2  C15 UNL     1     109.947  62.380  44.059  1.00  0.00     0.217 C 
HETATM    3  C16 UNL     1     109.513  61.374  45.098  1.00  0.00     0.071 C 
HETATM    4  C17 UNL     1     109.485  59.952  44.624  1.00  0.00     0.217 C 
HETATM    5  C18 UNL     1     109.494  59.803  43.107  1.00  0.00     0.183 C 
HETATM    6  C25 UNL     1     110.726  60.514  42.588  1.00  0.00     0.180 C 
ENDROOT
BRANCH   1   7
HETATM    7  O5  UNL     1     111.787  62.580  42.495  1.00  0.00    -0.368 OA
BRANCH   7   8
HETATM    8  C5  UNL     1     113.022  62.997  42.820  1.00  0.00     0.186 C 
BRANCH   8   9
HETATM    9  C3  UNL     1     114.140  62.661  41.861  1.00  0.00     0.143 C 
HETATM   10  C4  UNL     1     113.658  62.335  40.471  1.00  0.00     0.057 C 
BRANCH   9  11
HETATM   11  C2  UNL     1     114.853  61.421  42.341  1.00  0.00     0.159 C 
HETATM   12  C1  UNL     1     114.558  60.117  41.727  1.00  0.00     0.094 C 
HETATM   13  O1  UNL     1     115.672  61.480  43.234  1.00  0.00    -0.295 OA
ENDBRANCH   9  11
BRANCH   9  14
HETATM   14  O2  UNL     1     115.097  63.636  41.760  1.00  0.00    -0.379 OA
ATOM     15  H2  UNL     1     115.276  63.924  42.648  1.00  0.00     0.211 HD
ENDBRANCH   9  14
ENDBRANCH   8   9
BRANCH   8  16
HETATM   16  C6  UNL     1     112.917  64.461  43.068  1.00  0.00     0.009 C 
HETATM   17  C7  UNL     1     111.998  65.232  42.556  1.00  0.00     0.010 C 
BRANCH  17  18
HETATM   18  C8  UNL     1     111.822  66.646  42.741  1.00  0.00    -0.034 A 
HETATM   19  C9  UNL     1     110.620  67.142  43.191  1.00  0.00     0.014 A 
HETATM   20  C10 UNL     1     110.430  68.517  43.375  1.00  0.00     0.040 A 
HETATM   21  C11 UNL     1     111.438  69.397  43.109  1.00  0.00     0.098 A 
HETATM   22  C12 UNL     1     112.653  68.913  42.655  1.00  0.00     0.099 A 
HETATM   23  C13 UNL     1     112.824  67.557  42.479  1.00  0.00     0.050 A 
BRANCH  21  24
HETATM   24  O3  UNL     1     111.241  70.764  43.295  1.00  0.00    -0.358 OA
ATOM     25  H3  UNL     1     111.457  71.376  42.601  1.00  0.00     0.217 HD
ENDBRANCH  21  24
BRANCH  22  26
HETATM   26  O4  UNL     1     113.658  69.834  42.393  1.00  0.00    -0.358 OA
ATOM     27  H4  UNL     1     114.263  69.640  41.686  1.00  0.00     0.217 HD
ENDBRANCH  22  26
ENDBRANCH  17  18
ENDBRANCH   8  16
ENDBRANCH   7   8
ENDBRANCH   1   7
BRANCH   2  28
HETATM   28  N1  UNL     1     108.831  62.797  43.298  1.00  0.00    -0.072 N 
ATOM     29  H13 UNL     1     108.442  63.644  43.714  1.00  0.00     0.274 HD
ATOM     30  H12 UNL     1     109.154  63.153  42.399  1.00  0.00     0.274 HD
ATOM     31  H11 UNL     1     108.078  62.126  43.141  1.00  0.00     0.274 HD
ENDBRANCH   2  28
BRANCH   6  32
HETATM   32  O7  UNL     1     110.638  60.880  41.250  1.00  0.00    -0.390 OA
ATOM     33  H7  UNL     1     111.483  61.249  41.021  1.00  0.00     0.210 HD
ENDBRANCH   6  32
BRANCH   5  34
HETATM   34  O6  UNL     1     109.410  58.488  42.808  1.00  0.00    -0.372 OA
BRANCH  34  35
HETATM   35  C19 UNL     1     108.527  57.954  41.982  1.00  0.00     0.182 C 
HETATM   36  C20 UNL     1     107.089  58.456  42.000  1.00  0.00     0.216 C 
HETATM   37  C21 UNL     1     106.372  57.843  40.797  1.00  0.00     0.068 C 
HETATM   38  C22 UNL     1     106.885  56.466  40.447  1.00  0.00     0.187 C 
HETATM   39  C23 UNL     1     108.291  56.648  39.901  1.00  0.00     0.068 C 
HETATM   40  C24 UNL     1     108.905  57.915  40.530  1.00  0.00     0.216 C 
BRANCH  36  41
HETATM   41  N3  UNL     1     106.339  57.999  43.149  1.00  0.00    -0.072 N 
ATOM     42  H33 UNL     1     106.068  57.022  43.040  1.00  0.00     0.274 HD
ATOM     43  H32 UNL     1     106.944  57.915  43.967  1.00  0.00     0.274 HD
ATOM     44  H31 UNL     1     105.527  58.580  43.356  1.00  0.00     0.274 HD
ENDBRANCH  36  41
BRANCH  38  45
HETATM   45  N4  UNL     1     106.063  55.959  39.371  1.00  0.00    -0.075 N 
ATOM     46  H43 UNL     1     105.632  56.699  38.816  1.00  0.00     0.274 HD
ATOM     47  H42 UNL     1     106.607  55.531  38.621  1.00  0.00     0.274 HD
ATOM     48  H41 UNL     1     105.381  55.322  39.783  1.00  0.00     0.274 HD
ENDBRANCH  38  45
BRANCH  40  49
HETATM   49  N5  UNL     1     110.305  58.014  40.291  1.00  0.00    -0.072 N 
ATOM     50  H53 UNL     1     110.485  58.526  39.427  1.00  0.00     0.274 HD
ATOM     51  H52 UNL     1     110.738  58.650  40.961  1.00  0.00     0.274 HD
ATOM     52  H51 UNL     1     110.791  57.117  40.283  1.00  0.00     0.274 HD
ENDBRANCH  40  49
ENDBRANCH  34  35
ENDBRANCH   5  34
BRANCH   4  53
HETATM   53  N2  UNL     1     110.558  59.158  45.195  1.00  0.00    -0.072 N 
ATOM     54  H23 UNL     1     111.469  59.561  44.978  1.00  0.00     0.274 HD
ATOM     55  H22 UNL     1     110.578  59.243  46.211  1.00  0.00     0.274 HD
ATOM     56  H21 UNL     1     110.512  58.180  44.909  1.00  0.00     0.274 HD
ENDBRANCH   4  53
TORSDOF 17
ENDMDL
MODEL 3
REMARK VINA RESULT: -8.167132968      3.011      9.296
REMARK  17 active torsions:
REMARK  status: ('A' for Active; 'I' for Inactive)
REMARK    1  A    between atoms: C2_2  and  C3_4 
REMARK    2  A    between atoms: C3_4  and  O2_6 
REMARK    3  A    between atoms: C3_4  and  C5_8 
REMARK    4  A    between atoms: C5_8  and  C6_9 
REMARK    5  A    between atoms: C5_8  and  O5_21 
REMARK    6  A    between atoms: C7_10  and  C8_11 
REMARK    7  A    between atoms: C11_14  and  O3_15 
REMARK    8  A    between atoms: C12_17  and  O4_18 
REMARK    9  A    between atoms: O5_21  and  C14_22 
REMARK   10  A    between atoms: C15_23  and  N1_24 
REMARK   11  A    between atoms: C17_29  and  N2_30 
REMARK   12  A    between atoms: C18_34  and  O6_35 
REMARK   13  A    between atoms: O6_35  and  C19_36 
REMARK   14  A    between atoms: C20_37  and  N3_38 
REMARK   15  A    between atoms: C22_43  and  N4_44 
REMARK   16  A    between atoms: C24_49  and  N5_50 
REMARK   17  A    between atoms: C25_54  and  O7_55 
ROOT
HETATM    1  C14 UNL     1     110.898  61.947  43.569  1.00  0.00     0.184 C 
HETATM    2  C15 UNL     1     109.941  62.695  44.431  1.00  0.00     0.217 C 
HETATM    3  C16 UNL     1     109.551  61.752  45.544  1.00  0.00     0.071 C 
HETATM    4  C17 UNL     1     109.296  60.340  45.112  1.00  0.00     0.217 C 
HETATM    5  C18 UNL     1     109.070  60.180  43.612  1.00  0.00     0.183 C 
HETATM    6  C25 UNL     1     110.286  60.742  42.907  1.00  0.00     0.180 C 
ENDROOT
BRANCH   1   7
HETATM    7  O5  UNL     1     111.548  62.673  42.616  1.00  0.00    -0.368 OA
BRANCH   7   8
HETATM    8  C5  UNL     1     112.815  63.071  42.818  1.00  0.00     0.186 C 
BRANCH   8   9
HETATM    9  C3  UNL     1     113.828  62.719  41.754  1.00  0.00     0.143 C 
HETATM   10  C4  UNL     1     113.230  62.591  40.377  1.00  0.00     0.057 C 
BRANCH   9  11
HETATM   11  C2  UNL     1     114.424  61.367  42.061  1.00  0.00     0.159 C 
HETATM   12  C1  UNL     1     115.707  61.274  42.777  1.00  0.00     0.094 C 
HETATM   13  O1  UNL     1     113.862  60.347  41.725  1.00  0.00    -0.295 OA
ENDBRANCH   9  11
BRANCH   9  14
HETATM   14  O2  UNL     1     114.881  63.592  41.679  1.00  0.00    -0.379 OA
ATOM     15  H2  UNL     1     114.542  64.438  41.947  1.00  0.00     0.211 HD
ENDBRANCH   9  14
ENDBRANCH   8   9
BRANCH   8  16
HETATM   16  C6  UNL     1     112.756  64.536  43.074  1.00  0.00     0.009 C 
HETATM   17  C7  UNL     1     111.858  65.338  42.572  1.00  0.00     0.010 C 
BRANCH  17  18
HETATM   18  C8  UNL     1     111.727  66.756  42.766  1.00  0.00    -0.034 A 
HETATM   19  C9  UNL     1     110.522  67.293  43.155  1.00  0.00     0.014 A 
HETATM   20  C10 UNL     1     110.375  68.673  43.346  1.00  0.00     0.040 A 
HETATM   21  C11 UNL     1     111.430  69.515  43.148  1.00  0.00     0.098 A 
HETATM   22  C12 UNL     1     112.649  68.989  42.755  1.00  0.00     0.099 A 
HETATM   23  C13 UNL     1     112.777  67.629  42.572  1.00  0.00     0.050 A 
BRANCH  21  24
HETATM   24  O3  UNL     1     111.276  70.887  43.341  1.00  0.00    -0.358 OA
ATOM     25  H3  UNL     1     110.466  71.316  43.091  1.00  0.00     0.217 HD
ENDBRANCH  21  24
BRANCH  22  26
HETATM   26  O4  UNL     1     113.702  69.872  42.562  1.00  0.00    -0.358 OA
ATOM     27  H4  UNL     1     114.585  69.520  42.586  1.00  0.00     0.217 HD
ENDBRANCH  22  26
ENDBRANCH  17  18
ENDBRANCH   8  16
ENDBRANCH   7   8
ENDBRANCH   1   7
BRANCH   2  28
HETATM   28  N1  UNL     1     108.781  63.232  43.827  1.00  0.00    -0.072 N 
ATOM     29  H13 UNL     1     108.720  64.226  44.048  1.00  0.00     0.274 HD
ATOM     30  H12 UNL     1     108.916  63.265  42.816  1.00  0.00     0.274 HD
ATOM     31  H11 UNL     1     107.885  62.789  44.030  1.00  0.00     0.274 HD
ENDBRANCH   2  28
BRANCH   6  32
HETATM   32  O7  UNL     1     110.047  61.106  41.587  1.00  0.00    -0.390 OA
ATOM     33  H7  UNL     1     110.811  61.597  41.307  1.00  0.00     0.210 HD
ENDBRANCH   6  32
BRANCH   5  34
HETATM   34  O6  UNL     1     108.796  58.882  43.360  1.00  0.00    -0.372 OA
BRANCH  34  35
HETATM   35  C19 UNL     1     108.896  58.303  42.175  1.00  0.00     0.182 C 
HETATM   36  C20 UNL     1     110.107  57.433  41.870  1.00  0.00     0.216 C 
HETATM   37  C21 UNL     1     109.836  56.713  40.548  1.00  0.00     0.068 C 
HETATM   38  C22 UNL     1     109.000  57.535  39.594  1.00  0.00     0.187 C 
HETATM   39  C23 UNL     1     107.605  57.610  40.189  1.00  0.00     0.068 C 
HETATM   40  C24 UNL     1     107.714  57.495  41.723  1.00  0.00     0.216 C 
BRANCH  36  41
HETATM   41  N3  UNL     1     111.313  58.196  41.635  1.00  0.00    -0.072 N 
ATOM     42  H33 UNL     1     111.735  58.488  42.516  1.00  0.00     0.274 HD
ATOM     43  H32 UNL     1     112.059  57.596  41.281  1.00  0.00     0.274 HD
ATOM     44  H31 UNL     1     111.169  58.996  41.019  1.00  0.00     0.274 HD
ENDBRANCH  36  41
BRANCH  38  45
HETATM   45  N4  UNL     1     108.905  56.793  38.356  1.00  0.00    -0.075 N 
ATOM     46  H43 UNL     1     109.144  57.352  37.537  1.00  0.00     0.274 HD
ATOM     47  H42 UNL     1     109.638  56.090  38.255  1.00  0.00     0.274 HD
ATOM     48  H41 UNL     1     107.966  56.399  38.309  1.00  0.00     0.274 HD
ENDBRANCH  38  45
BRANCH  40  49
HETATM   49  N5  UNL     1     106.496  57.828  42.379  1.00  0.00    -0.072 N 
ATOM     50  H53 UNL     1     106.682  58.339  43.243  1.00  0.00     0.274 HD
ATOM     51  H52 UNL     1     105.994  58.547  41.858  1.00  0.00     0.274 HD
ATOM     52  H51 UNL     1     105.889  57.028  42.561  1.00  0.00     0.274 HD
ENDBRANCH  40  49
ENDBRANCH  34  35
ENDBRANCH   5  34
BRANCH   4  53
HETATM   53  N2  UNL     1     110.344  59.432  45.542  1.00  0.00    -0.072 N 
ATOM     54  H23 UNL     1     111.261  59.758  45.236  1.00  0.00     0.274 HD
ATOM     55  H22 UNL     1     110.482  59.481  46.552  1.00  0.00     0.274 HD
ATOM     56  H21 UNL     1     110.176  58.473  45.240  1.00  0.00     0.274 HD
ENDBRANCH   4  53
TORSDOF 17
ENDMDL
MODEL 4
REMARK VINA RESULT: -8.148731234      1.083      1.415
REMARK  17 active torsions:
REMARK  status: ('A' for Active; 'I' for Inactive)
REMARK    1  A    between atoms: C2_2  and  C3_4 
REMARK    2  A    between atoms: C3_4  and  O2_6 
REMARK    3  A    between atoms: C3_4  and  C5_8 
REMARK    4  A    between atoms: C5_8  and  C6_9 
REMARK    5  A    between atoms: C5_8  and  O5_21 
REMARK    6  A    between atoms: C7_10  and  C8_11 
REMARK    7  A    between atoms: C11_14  and  O3_15 
REMARK    8  A    between atoms: C12_17  and  O4_18 
REMARK    9  A    between atoms: O5_21  and  C14_22 
REMARK   10  A    between atoms: C15_23  and  N1_24 
REMARK   11  A    between atoms: C17_29  and  N2_30 
REMARK   12  A    between atoms: C18_34  and  O6_35 
REMARK   13  A    between atoms: O6_35  and  C19_36 
REMARK   14  A    between atoms: C20_37  and  N3_38 
REMARK   15  A    between atoms: C22_43  and  N4_44 
REMARK   16  A    between atoms: C24_49  and  N5_50 
REMARK   17  A    between atoms: C25_54  and  O7_55 
ROOT
HETATM    1  C14 UNL     1     110.921  61.542  42.168  1.00  0.00     0.184 C 
HETATM    2  C15 UNL     1     111.865  61.236  41.058  1.00  0.00     0.217 C 
HETATM    3  C16 UNL     1     113.250  61.496  41.599  1.00  0.00     0.071 C 
HETATM    4  C17 UNL     1     113.377  62.735  42.432  1.00  0.00     0.217 C 
HETATM    5  C18 UNL     1     112.227  63.721  42.259  1.00  0.00     0.183 C 
HETATM    6  C25 UNL     1     110.945  62.987  42.589  1.00  0.00     0.180 C 
ENDROOT
BRANCH   1   7
HETATM    7  O5  UNL     1     109.622  61.176  41.975  1.00  0.00    -0.368 OA
BRANCH   7   8
HETATM    8  C5  UNL     1     109.101  60.148  42.666  1.00  0.00     0.186 C 
BRANCH   8   9
HETATM    9  C3  UNL     1     108.180  60.484  43.815  1.00  0.00     0.143 C 
HETATM   10  C4  UNL     1     107.304  61.680  43.550  1.00  0.00     0.057 C 
BRANCH   9  11
HETATM   11  C2  UNL     1     109.005  60.849  45.025  1.00  0.00     0.159 C 
HETATM   12  C1  UNL     1     109.840  59.831  45.681  1.00  0.00     0.094 C 
HETATM   13  O1  UNL     1     108.990  61.976  45.471  1.00  0.00    -0.295 OA
ENDBRANCH   9  11
BRANCH   9  14
HETATM   14  O2  UNL     1     107.374  59.445  44.203  1.00  0.00    -0.379 OA
ATOM     15  H2  UNL     1     106.716  59.822  44.776  1.00  0.00     0.211 HD
ENDBRANCH   9  14
ENDBRANCH   8   9
BRANCH   8  16
HETATM   16  C6  UNL     1     108.449  59.261  41.665  1.00  0.00     0.009 C 
HETATM   17  C7  UNL     1     108.878  58.072  41.341  1.00  0.00     0.010 C 
BRANCH  17  18
HETATM   18  C8  UNL     1     108.314  57.152  40.393  1.00  0.00    -0.034 A 
HETATM   19  C9  UNL     1     109.131  56.452  39.536  1.00  0.00     0.014 A 
HETATM   20  C10 UNL     1     108.598  55.553  38.604  1.00  0.00     0.040 A 
HETATM   21  C11 UNL     1     107.251  55.353  38.527  1.00  0.00     0.098 A 
HETATM   22  C12 UNL     1     106.415  56.051  39.382  1.00  0.00     0.099 A 
HETATM   23  C13 UNL     1     106.956  56.932  40.294  1.00  0.00     0.050 A 
BRANCH  21  24
HETATM   24  O3  UNL     1     106.728  54.456  37.597  1.00  0.00    -0.358 OA
ATOM     25  H3  UNL     1     106.284  53.668  37.890  1.00  0.00     0.217 HD
ENDBRANCH  21  24
BRANCH  22  26
HETATM   26  O4  UNL     1     105.050  55.826  39.279  1.00  0.00    -0.358 OA
ATOM     27  H4  UNL     1     104.548  56.400  38.712  1.00  0.00     0.217 HD
ENDBRANCH  22  26
ENDBRANCH  17  18
ENDBRANCH   8  16
ENDBRANCH   7   8
ENDBRANCH   1   7
BRANCH   2  28
HETATM   28  N1  UNL     1     111.692  61.916  39.831  1.00  0.00    -0.072 N 
ATOM     29  H13 UNL     1     110.698  61.948  39.604  1.00  0.00     0.274 HD
ATOM     30  H12 UNL     1     111.893  62.907  39.967  1.00  0.00     0.274 HD
ATOM     31  H11 UNL     1     112.209  61.579  39.018  1.00  0.00     0.274 HD
ENDBRANCH   2  28
BRANCH   6  32
HETATM   32  O7  UNL     1     109.810  63.569  42.037  1.00  0.00    -0.390 OA
ATOM     33  H7  UNL     1     110.010  64.492  41.937  1.00  0.00     0.210 HD
ENDBRANCH   6  32
BRANCH   5  34
HETATM   34  O6  UNL     1     112.485  64.812  43.013  1.00  0.00    -0.372 OA
BRANCH  34  35
HETATM   35  C19 UNL     1     112.700  66.027  42.539  1.00  0.00     0.182 C 
HETATM   36  C20 UNL     1     113.382  66.191  41.187  1.00  0.00     0.216 C 
HETATM   37  C21 UNL     1     113.277  67.665  40.793  1.00  0.00     0.068 C 
HETATM   38  C22 UNL     1     113.309  68.594  41.984  1.00  0.00     0.187 C 
HETATM   39  C23 UNL     1     112.005  68.387  42.735  1.00  0.00     0.068 C 
HETATM   40  C24 UNL     1     111.514  66.947  42.488  1.00  0.00     0.216 C 
BRANCH  36  41
HETATM   41  N3  UNL     1     114.802  65.921  41.228  1.00  0.00    -0.072 N 
ATOM     42  H33 UNL     1     115.115  65.766  42.186  1.00  0.00     0.274 HD
ATOM     43  H32 UNL     1     115.008  65.002  40.833  1.00  0.00     0.274 HD
ATOM     44  H31 UNL     1     115.362  66.644  40.776  1.00  0.00     0.274 HD
ENDBRANCH  36  41
BRANCH  38  45
HETATM   45  N4  UNL     1     113.307  69.947  41.475  1.00  0.00    -0.075 N 
ATOM     46  H43 UNL     1     113.841  70.050  40.611  1.00  0.00     0.274 HD
ATOM     47  H42 UNL     1     112.400  70.233  41.104  1.00  0.00     0.274 HD
ATOM     48  H41 UNL     1     113.641  70.554  42.224  1.00  0.00     0.274 HD
ENDBRANCH  38  45
BRANCH  40  49
HETATM   49  N5  UNL     1     110.454  66.577  43.364  1.00  0.00    -0.072 N 
ATOM     50  H53 UNL     1     109.641  66.269  42.831  1.00  0.00     0.274 HD
ATOM     51  H52 UNL     1     110.680  65.710  43.852  1.00  0.00     0.274 HD
ATOM     52  H51 UNL     1     110.192  67.305  44.029  1.00  0.00     0.274 HD
ENDBRANCH  40  49
ENDBRANCH  34  35
ENDBRANCH   5  34
BRANCH   4  53
HETATM   53  N2  UNL     1     113.551  62.438  43.843  1.00  0.00    -0.072 N 
ATOM     54  H23 UNL     1     112.733  61.961  44.221  1.00  0.00     0.274 HD
ATOM     55  H22 UNL     1     114.246  61.704  43.981  1.00  0.00     0.274 HD
ATOM     56  H21 UNL     1     113.779  63.268  44.390  1.00  0.00     0.274 HD
ENDBRANCH   4  53
TORSDOF 17
ENDMDL
MODEL 5
REMARK VINA RESULT: -7.975429221      1.495      2.051
REMARK  17 active torsions:
REMARK  status: ('A' for Active; 'I' for Inactive)
REMARK    1  A    between atoms: C2_2  and  C3_4 
REMARK    2  A    between atoms: C3_4  and  O2_6 
REMARK    3  A    between atoms: C3_4  and  C5_8 
REMARK    4  A    between atoms: C5_8  and  C6_9 
REMARK    5  A    between atoms: C5_8  and  O5_21 
REMARK    6  A    between atoms: C7_10  and  C8_11 
REMARK    7  A    between atoms: C11_14  and  O3_15 
REMARK    8  A    between atoms: C12_17  and  O4_18 
REMARK    9  A    between atoms: O5_21  and  C14_22 
REMARK   10  A    between atoms: C15_23  and  N1_24 
REMARK   11  A    between atoms: C17_29  and  N2_30 
REMARK   12  A    between atoms: C18_34  and  O6_35 
REMARK   13  A    between atoms: O6_35  and  C19_36 
REMARK   14  A    between atoms: C20_37  and  N3_38 
REMARK   15  A    between atoms: C22_43  and  N4_44 
REMARK   16  A    between atoms: C24_49  and  N5_50 
REMARK   17  A    between atoms: C25_54  and  O7_55 
ROOT
HETATM    1  C14 UNL     1     111.054  61.467  42.176  1.00  0.00     0.184 C 
HETATM    2  C15 UNL     1     111.952  61.199  41.018  1.00  0.00     0.217 C 
HETATM    3  C16 UNL     1     113.356  61.481  41.500  1.00  0.00     0.071 C 
HETATM    4  C17 UNL     1     113.495  62.709  42.346  1.00  0.00     0.217 C 
HETATM    5  C18 UNL     1     112.318  63.673  42.241  1.00  0.00     0.183 C 
HETATM    6  C25 UNL     1     111.068  62.906  42.618  1.00  0.00     0.180 C 
ENDROOT
BRANCH   1   7
HETATM    7  O5  UNL     1     109.757  61.076  42.037  1.00  0.00    -0.368 OA
BRANCH   7   8
HETATM    8  C5  UNL     1     109.288  60.031  42.739  1.00  0.00     0.186 C 
BRANCH   8   9
HETATM    9  C3  UNL     1     108.302  60.326  43.844  1.00  0.00     0.143 C 
HETATM   10  C4  UNL     1     107.311  61.405  43.489  1.00  0.00     0.057 C 
BRANCH   9  11
HETATM   11  C2  UNL     1     109.044  60.843  45.051  1.00  0.00     0.159 C 
HETATM   12  C1  UNL     1     109.902  59.937  45.832  1.00  0.00     0.094 C 
HETATM   13  O1  UNL     1     108.946  62.002  45.394  1.00  0.00    -0.295 OA
ENDBRANCH   9  11
BRANCH   9  14
HETATM   14  O2  UNL     1     107.599  59.229  44.270  1.00  0.00    -0.379 OA
ATOM     15  H2  UNL     1     108.224  58.676  44.724  1.00  0.00     0.211 HD
ENDBRANCH   9  14
ENDBRANCH   8   9
BRANCH   8  16
HETATM   16  C6  UNL     1     108.743  59.070  41.742  1.00  0.00     0.009 C 
HETATM   17  C7  UNL     1     109.425  58.095  41.207  1.00  0.00     0.010 C 
BRANCH  17  18
HETATM   18  C8  UNL     1     108.982  57.125  40.243  1.00  0.00    -0.034 A 
HETATM   19  C9  UNL     1     107.642  56.837  40.116  1.00  0.00     0.014 A 
HETATM   20  C10 UNL     1     107.194  55.893  39.183  1.00  0.00     0.040 A 
HETATM   21  C11 UNL     1     108.080  55.238  38.380  1.00  0.00     0.098 A 
HETATM   22  C12 UNL     1     109.431  55.517  38.497  1.00  0.00     0.099 A 
HETATM   23  C13 UNL     1     109.856  56.448  39.420  1.00  0.00     0.050 A 
BRANCH  21  24
HETATM   24  O3  UNL     1     107.625  54.300  37.454  1.00  0.00    -0.358 OA
ATOM     25  H3  UNL     1     107.581  53.380  37.689  1.00  0.00     0.217 HD
ENDBRANCH  21  24
BRANCH  22  26
HETATM   26  O4  UNL     1     110.307  54.833  37.666  1.00  0.00    -0.358 OA
ATOM     27  H4  UNL     1     111.088  54.459  38.057  1.00  0.00     0.217 HD
ENDBRANCH  22  26
ENDBRANCH  17  18
ENDBRANCH   8  16
ENDBRANCH   7   8
ENDBRANCH   1   7
BRANCH   2  28
HETATM   28  N1  UNL     1     111.709  61.893  39.812  1.00  0.00    -0.072 N 
ATOM     29  H13 UNL     1     112.230  61.445  39.058  1.00  0.00     0.274 HD
ATOM     30  H12 UNL     1     110.749  61.720  39.514  1.00  0.00     0.274 HD
ATOM     31  H11 UNL     1     111.889  62.897  39.791  1.00  0.00     0.274 HD
ENDBRANCH   2  28
BRANCH   6  32
HETATM   32  O7  UNL     1     109.897  63.471  42.128  1.00  0.00    -0.390 OA
ATOM     33  H7  UNL     1     109.207  62.843  42.306  1.00  0.00     0.210 HD
ENDBRANCH   6  32
BRANCH   5  34
HETATM   34  O6  UNL     1     112.588  64.758  43.000  1.00  0.00    -0.372 OA
BRANCH  34  35
HETATM   35  C19 UNL     1     112.763  65.983  42.535  1.00  0.00     0.182 C 
HETATM   36  C20 UNL     1     113.413  66.177  41.172  1.00  0.00     0.216 C 
HETATM   37  C21 UNL     1     113.264  67.653  40.796  1.00  0.00     0.068 C 
HETATM   38  C22 UNL     1     113.299  68.569  41.997  1.00  0.00     0.187 C 
HETATM   39  C23 UNL     1     112.016  68.323  42.773  1.00  0.00     0.068 C 
HETATM   40  C24 UNL     1     111.555  66.874  42.519  1.00  0.00     0.216 C 
BRANCH  36  41
HETATM   41  N3  UNL     1     114.839  65.941  41.180  1.00  0.00    -0.072 N 
ATOM     42  H33 UNL     1     115.156  65.662  42.109  1.00  0.00     0.274 HD
ATOM     43  H32 UNL     1     115.070  65.093  40.662  1.00  0.00     0.274 HD
ATOM     44  H31 UNL     1     115.381  66.735  40.836  1.00  0.00     0.274 HD
ENDBRANCH  36  41
BRANCH  38  45
HETATM   45  N4  UNL     1     113.254  69.928  41.503  1.00  0.00    -0.075 N 
ATOM     46  H43 UNL     1     113.760  70.050  40.625  1.00  0.00     0.274 HD
ATOM     47  H42 UNL     1     112.331  70.198  41.162  1.00  0.00     0.274 HD
ATOM     48  H41 UNL     1     113.597  70.533  42.249  1.00  0.00     0.274 HD
ENDBRANCH  38  45
BRANCH  40  49
HETATM   49  N5  UNL     1     110.523  66.470  43.412  1.00  0.00    -0.072 N 
ATOM     50  H53 UNL     1     109.629  66.873  43.132  1.00  0.00     0.274 HD
ATOM     51  H52 UNL     1     110.311  65.479  43.289  1.00  0.00     0.274 HD
ATOM     52  H51 UNL     1     110.717  66.675  44.393  1.00  0.00     0.274 HD
ENDBRANCH  40  49
ENDBRANCH  34  35
ENDBRANCH   5  34
BRANCH   4  53
HETATM   53  N2  UNL     1     113.740  62.395  43.742  1.00  0.00    -0.072 N 
ATOM     54  H23 UNL     1     114.471  61.691  43.837  1.00  0.00     0.274 HD
ATOM     55  H22 UNL     1     114.198  63.172  44.219  1.00  0.00     0.274 HD
ATOM     56  H21 UNL     1     112.891  62.112  44.231  1.00  0.00     0.274 HD
ENDBRANCH   4  53
TORSDOF 17
ENDMDL
