MODEL 1
REMARK VINA RESULT: -4.958267142      0.000      0.000
REMARK  3 active torsions:
REMARK  status: ('A' for Active; 'I' for Inactive)
REMARK    1  A    between atoms: N1_1  and  N2_4 
REMARK       I    between atoms: C1_6  and  N4_8 
REMARK    2  A    between atoms: N4_8  and  N5_10 
REMARK       I    between atoms: C2_12  and  N7_14 
REMARK    3  A    between atoms: N7_14  and  N8_16 
ROOT
HETATM    1  N2  UNL     1      49.908  60.541  70.025  1.00  0.00    -0.279 N 
ATOM      2  H2  UNL     1      49.451  61.452  70.018  1.00  0.00     0.189 HD
HETATM    3  C1  UNL     1      50.719  60.300  69.057  1.00  0.00     0.221 C 
HETATM    4  N3  UNL     1      50.869  61.355  68.093  1.00  0.00    -0.061 NA
HETATM    5  N4  UNL     1      51.432  59.087  68.919  1.00  0.00    -0.270 N 
ATOM      6  H4  UNL     1      52.451  59.119  68.942  1.00  0.00     0.189 HD
ENDROOT
BRANCH   5   7
HETATM    7  N5  UNL     1      50.816  57.852  68.754  1.00  0.00    -0.270 N 
HETATM    8  C2  UNL     1      50.927  57.117  67.716  1.00  0.00     0.226 C 
HETATM    9  N6  UNL     1      51.681  57.426  66.578  1.00  0.00    -0.060 NA
HETATM   10  N7  UNL     1      50.212  55.871  67.732  1.00  0.00    -0.212 N 
ATOM     11  H7  UNL     1      50.667  55.035  67.365  1.00  0.00     0.196 HD
ATOM     12  H5  UNL     1      50.234  57.507  69.517  1.00  0.00     0.189 HD
BRANCH  10  13
HETATM   13  N8  UNL     1      48.913  55.770  68.236  1.00  0.00    -0.036 N 
HETATM   14  O1  UNL     1      48.643  55.380  69.370  1.00  0.00    -0.516 OA
HETATM   15  O2  UNL     1      47.834  56.124  67.429  1.00  0.00    -0.516 OA
ENDBRANCH  10  13
ENDBRANCH   5   7
BRANCH   1  16
HETATM   16  N1  UNL     1      49.594  59.712  71.058  1.00  0.00    -0.343 N 
ATOM     17  H12 UNL     1      50.380  59.424  71.641  1.00  0.00     0.176 HD
ATOM     18  H11 UNL     1      48.669  59.358  71.303  1.00  0.00     0.176 HD
ENDBRANCH   1  16
TORSDOF 3
ENDMDL
MODEL 2
REMARK VINA RESULT: -4.828680777      2.429      4.532
REMARK  3 active torsions:
REMARK  status: ('A' for Active; 'I' for Inactive)
REMARK    1  A    between atoms: N1_1  and  N2_4 
REMARK       I    between atoms: C1_6  and  N4_8 
REMARK    2  A    between atoms: N4_8  and  N5_10 
REMARK       I    between atoms: C2_12  and  N7_14 
REMARK    3  A    between atoms: N7_14  and  N8_16 
ROOT
HETATM    1  N2  UNL     1      49.584  55.418  68.451  1.00  0.00    -0.279 N 
ATOM      2  H2  UNL     1      49.685  54.414  68.603  1.00  0.00     0.189 HD
HETATM    3  C1  UNL     1      50.553  56.005  67.845  1.00  0.00     0.221 C 
HETATM    4  N3  UNL     1      51.652  55.161  67.462  1.00  0.00    -0.061 NA
HETATM    5  N4  UNL     1      50.571  57.389  67.558  1.00  0.00    -0.270 N 
ATOM      6  H4  UNL     1      50.605  57.680  66.581  1.00  0.00     0.189 HD
ENDROOT
BRANCH   5   7
HETATM    7  N5  UNL     1      50.544  58.374  68.538  1.00  0.00    -0.270 N 
HETATM    8  C2  UNL     1      51.495  59.194  68.771  1.00  0.00     0.226 C 
HETATM    9  N6  UNL     1      52.714  59.241  68.085  1.00  0.00    -0.060 NA
HETATM   10  N7  UNL     1      51.280  60.143  69.828  1.00  0.00    -0.212 N 
ATOM     11  H7  UNL     1      51.580  61.108  69.695  1.00  0.00     0.196 HD
ATOM     12  H5  UNL     1      49.705  58.448  69.112  1.00  0.00     0.189 HD
BRANCH  10  13
HETATM   13  N8  UNL     1      50.672  59.782  71.034  1.00  0.00    -0.036 N 
HETATM   14  O1  UNL     1      49.572  59.238  71.115  1.00  0.00    -0.516 OA
HETATM   15  O2  UNL     1      51.325  60.040  72.237  1.00  0.00    -0.516 OA
ENDBRANCH  10  13
ENDBRANCH   5   7
BRANCH   1  16
HETATM   16  N1  UNL     1      48.438  55.989  68.913  1.00  0.00    -0.343 N 
ATOM     17  H12 UNL     1      48.381  56.095  69.926  1.00  0.00     0.176 HD
ATOM     18  H11 UNL     1      47.647  56.316  68.358  1.00  0.00     0.176 HD
ENDBRANCH   1  16
TORSDOF 3
ENDMDL
MODEL 3
REMARK VINA RESULT: -4.822952387      2.679      4.745
REMARK  3 active torsions:
REMARK  status: ('A' for Active; 'I' for Inactive)
REMARK    1  A    between atoms: N1_1  and  N2_4 
REMARK       I    between atoms: C1_6  and  N4_8 
REMARK    2  A    between atoms: N4_8  and  N5_10 
REMARK       I    between atoms: C2_12  and  N7_14 
REMARK    3  A    between atoms: N7_14  and  N8_16 
ROOT
HETATM    1  N2  UNL     1      50.028  55.935  68.389  1.00  0.00    -0.279 N 
ATOM      2  H2  UNL     1      50.252  54.945  68.294  1.00  0.00     0.189 HD
HETATM    3  C1  UNL     1      50.913  56.765  67.966  1.00  0.00     0.221 C 
HETATM    4  N3  UNL     1      52.104  56.179  67.414  1.00  0.00    -0.061 NA
HETATM    5  N4  UNL     1      50.759  58.170  68.025  1.00  0.00    -0.270 N 
ATOM      6  H4  UNL     1      50.750  58.692  67.149  1.00  0.00     0.189 HD
ENDROOT
BRANCH   5   7
HETATM    7  N5  UNL     1      50.619  58.875  69.214  1.00  0.00    -0.270 N 
HETATM    8  C2  UNL     1      50.704  60.144  69.321  1.00  0.00     0.226 C 
HETATM    9  N6  UNL     1      50.949  61.034  68.269  1.00  0.00    -0.060 NA
HETATM   10  N7  UNL     1      50.530  60.691  70.638  1.00  0.00    -0.212 N 
ATOM     11  H7  UNL     1      49.980  61.542  70.753  1.00  0.00     0.196 HD
ATOM     12  H5  UNL     1      50.435  58.340  70.063  1.00  0.00     0.189 HD
BRANCH  10  13
HETATM   13  N8  UNL     1      51.093  60.090  71.768  1.00  0.00    -0.036 N 
HETATM   14  O1  UNL     1      52.302  59.981  71.960  1.00  0.00    -0.516 OA
HETATM   15  O2  UNL     1      50.259  59.573  72.757  1.00  0.00    -0.516 OA
ENDBRANCH  10  13
ENDBRANCH   5   7
BRANCH   1  16
HETATM   16  N1  UNL     1      48.824  56.235  68.950  1.00  0.00    -0.343 N 
ATOM     17  H12 UNL     1      48.809  57.075  69.527  1.00  0.00     0.176 HD
ATOM     18  H11 UNL     1      47.953  55.712  68.851  1.00  0.00     0.176 HD
ENDBRANCH   1  16
TORSDOF 3
ENDMDL
MODEL 4
REMARK VINA RESULT: -4.627598734      2.708      5.037
REMARK  3 active torsions:
REMARK  status: ('A' for Active; 'I' for Inactive)
REMARK    1  A    between atoms: N1_1  and  N2_4 
REMARK       I    between atoms: C1_6  and  N4_8 
REMARK    2  A    between atoms: N4_8  and  N5_10 
REMARK       I    between atoms: C2_12  and  N7_14 
REMARK    3  A    between atoms: N7_14  and  N8_16 
ROOT
HETATM    1  N2  UNL     1      53.723  55.374  64.790  1.00  0.00    -0.279 N 
ATOM      2  H2  UNL     1      54.179  55.011  63.953  1.00  0.00     0.189 HD
HETATM    3  C1  UNL     1      53.625  54.565  65.784  1.00  0.00     0.221 C 
HETATM    4  N3  UNL     1      54.176  53.254  65.577  1.00  0.00    -0.061 NA
HETATM    5  N4  UNL     1      53.021  54.910  67.015  1.00  0.00    -0.270 N 
ATOM      6  H4  UNL     1      53.595  54.892  67.857  1.00  0.00     0.189 HD
ENDROOT
BRANCH   5   7
HETATM    7  N5  UNL     1      51.685  55.272  67.136  1.00  0.00    -0.270 N 
HETATM    8  C2  UNL     1      51.271  56.456  67.371  1.00  0.00     0.226 C 
HETATM    9  N6  UNL     1      52.083  57.583  67.542  1.00  0.00    -0.060 NA
HETATM   10  N7  UNL     1      49.847  56.633  67.462  1.00  0.00    -0.212 N 
ATOM     11  H7  UNL     1      49.421  57.453  67.029  1.00  0.00     0.196 HD
ATOM     12  H5  UNL     1      50.984  54.538  67.030  1.00  0.00     0.189 HD
BRANCH  10  13
HETATM   13  N8  UNL     1      49.029  55.715  68.126  1.00  0.00    -0.036 N 
HETATM   14  O1  UNL     1      49.449  54.830  68.869  1.00  0.00    -0.516 OA
HETATM   15  O2  UNL     1      47.648  55.779  67.957  1.00  0.00    -0.516 OA
ENDBRANCH  10  13
ENDBRANCH   5   7
BRANCH   1  16
HETATM   16  N1  UNL     1      53.284  56.661  64.733  1.00  0.00    -0.343 N 
ATOM     17  H12 UNL     1      52.283  56.787  64.884  1.00  0.00     0.176 HD
ATOM     18  H11 UNL     1      53.845  57.495  64.557  1.00  0.00     0.176 HD
ENDBRANCH   1  16
TORSDOF 3
ENDMDL
MODEL 5
REMARK VINA RESULT: -4.498204782      3.747      4.959
REMARK  3 active torsions:
REMARK  status: ('A' for Active; 'I' for Inactive)
REMARK    1  A    between atoms: N1_1  and  N2_4 
REMARK       I    between atoms: C1_6  and  N4_8 
REMARK    2  A    between atoms: N4_8  and  N5_10 
REMARK       I    between atoms: C2_12  and  N7_14 
REMARK    3  A    between atoms: N7_14  and  N8_16 
ROOT
HETATM    1  N2  UNL     1      50.107  57.080  68.373  1.00  0.00    -0.279 N 
ATOM      2  H2  UNL     1      49.426  57.362  69.077  1.00  0.00     0.189 HD
HETATM    3  C1  UNL     1      49.798  56.060  67.655  1.00  0.00     0.221 C 
HETATM    4  N3  UNL     1      48.527  55.454  67.945  1.00  0.00    -0.061 NA
HETATM    5  N4  UNL     1      50.631  55.539  66.638  1.00  0.00    -0.270 N 
ATOM      6  H4  UNL     1      50.282  55.539  65.680  1.00  0.00     0.189 HD
ENDROOT
BRANCH   5   7
HETATM    7  N5  UNL     1      51.901  55.028  66.875  1.00  0.00    -0.270 N 
HETATM    8  C2  UNL     1      52.991  55.611  66.558  1.00  0.00     0.226 C 
HETATM    9  N6  UNL     1      53.093  56.855  65.923  1.00  0.00    -0.060 NA
HETATM   10  N7  UNL     1      54.208  54.922  66.887  1.00  0.00    -0.212 N 
ATOM     11  H7  UNL     1      54.992  55.455  67.264  1.00  0.00     0.196 HD
ATOM     12  H5  UNL     1      51.968  54.121  67.337  1.00  0.00     0.189 HD
BRANCH  10  13
HETATM   13  N8  UNL     1      54.350  53.544  66.707  1.00  0.00    -0.036 N 
HETATM   14  O1  UNL     1      54.214  52.973  65.627  1.00  0.00    -0.516 OA
HETATM   15  O2  UNL     1      54.663  52.737  67.799  1.00  0.00    -0.516 OA
ENDBRANCH  10  13
ENDBRANCH   5   7
BRANCH   1  16
HETATM   16  N1  UNL     1      51.244  57.824  68.295  1.00  0.00    -0.343 N 
ATOM     17  H12 UNL     1      51.599  58.173  69.186  1.00  0.00     0.176 HD
ATOM     18  H11 UNL     1      51.767  58.062  67.452  1.00  0.00     0.176 HD
ENDBRANCH   1  16
TORSDOF 3
ENDMDL
