MODEL 1
REMARK VINA RESULT: -3.943045706      0.000      0.000
REMARK  2 active torsions:
REMARK  status: ('A' for Active; 'I' for Inactive)
REMARK    1  A    between atoms: N1_1  and  C1_5 
REMARK    2  A    between atoms: C4_10  and  N2_11 
ROOT
HETATM    1  C1  UNL     1       5.108  95.915  43.283  1.00  0.00     0.241 C 
HETATM    2  C2  UNL     1       5.540  97.353  42.963  1.00  0.00     0.205 C 
HETATM    3  O1  UNL     1       4.429  98.057  43.423  1.00  0.00    -0.366 OA
HETATM    4  C3  UNL     1       4.034  97.503  44.612  1.00  0.00     0.249 C 
HETATM    5 CL1  UNL     1       2.261  97.287  44.703  1.00  0.00    -0.093 Cl
HETATM    6  C4  UNL     1       4.662  96.130  44.717  1.00  0.00     0.259 C 
ENDROOT
BRANCH   1   7
HETATM    7  N1  UNL     1       6.175  94.981  43.151  1.00  0.00    -0.071 N 
ATOM      8  H13 UNL     1       5.969  94.289  42.429  1.00  0.00     0.274 HD
ATOM      9  H12 UNL     1       6.995  95.418  42.731  1.00  0.00     0.274 HD
ATOM     10  H11 UNL     1       6.412  94.530  44.034  1.00  0.00     0.274 HD
ENDBRANCH   1   7
BRANCH   6  11
HETATM   11  N2  UNL     1       3.782  95.127  45.202  1.00  0.00    -0.069 N 
ATOM     12  H23 UNL     1       3.905  94.259  44.680  1.00  0.00     0.275 HD
ATOM     13  H22 UNL     1       4.071  94.813  46.128  1.00  0.00     0.275 HD
ATOM     14  H21 UNL     1       2.801  95.406  45.207  1.00  0.00     0.275 HD
ENDBRANCH   6  11
TORSDOF 2
ENDMDL
MODEL 2
REMARK VINA RESULT: -3.942695229      1.849      2.776
REMARK  2 active torsions:
REMARK  status: ('A' for Active; 'I' for Inactive)
REMARK    1  A    between atoms: N1_1  and  C1_5 
REMARK    2  A    between atoms: C4_10  and  N2_11 
ROOT
HETATM    1  C1  UNL     1       4.599  96.202  44.581  1.00  0.00     0.241 C 
HETATM    2  C2  UNL     1       3.729  97.448  44.356  1.00  0.00     0.205 C 
HETATM    3  O1  UNL     1       4.529  98.155  43.461  1.00  0.00    -0.366 OA
HETATM    4  C3  UNL     1       5.042  97.266  42.553  1.00  0.00     0.249 C 
HETATM    5 CL1  UNL     1       6.784  97.539  42.247  1.00  0.00    -0.093 Cl
HETATM    6  C4  UNL     1       4.898  95.875  43.130  1.00  0.00     0.259 C 
ENDROOT
BRANCH   1   7
HETATM    7  N1  UNL     1       3.905  95.167  45.268  1.00  0.00    -0.071 N 
ATOM      8  H13 UNL     1       4.029  95.250  46.278  1.00  0.00     0.274 HD
ATOM      9  H12 UNL     1       2.896  95.304  45.215  1.00  0.00     0.274 HD
ATOM     10  H11 UNL     1       4.166  94.236  44.942  1.00  0.00     0.274 HD
ENDBRANCH   1   7
BRANCH   6  11
HETATM   11  N2  UNL     1       6.041  95.053  42.950  1.00  0.00    -0.069 N 
ATOM     12  H23 UNL     1       6.223  94.901  41.958  1.00  0.00     0.275 HD
ATOM     13  H22 UNL     1       6.891  95.558  43.205  1.00  0.00     0.275 HD
ATOM     14  H21 UNL     1       5.991  94.163  43.445  1.00  0.00     0.275 HD
ENDBRANCH   6  11
TORSDOF 2
ENDMDL
MODEL 3
REMARK VINA RESULT: -3.919959631      5.684      6.343
REMARK  2 active torsions:
REMARK  status: ('A' for Active; 'I' for Inactive)
REMARK    1  A    between atoms: N1_1  and  C1_5 
REMARK    2  A    between atoms: C4_10  and  N2_11 
ROOT
HETATM    1  C1  UNL     1       3.279  90.271  45.456  1.00  0.00     0.241 C 
HETATM    2  C2  UNL     1       4.715  89.728  45.489  1.00  0.00     0.205 C 
HETATM    3  O1  UNL     1       5.199  90.223  44.280  1.00  0.00    -0.366 OA
HETATM    4  C3  UNL     1       4.749  91.509  44.135  1.00  0.00     0.249 C 
HETATM    5 CL1  UNL     1       4.139  91.831  42.484  1.00  0.00    -0.093 Cl
HETATM    6  C4  UNL     1       3.593  91.709  45.090  1.00  0.00     0.259 C 
ENDROOT
BRANCH   1   7
HETATM    7  N1  UNL     1       2.612  90.132  46.706  1.00  0.00    -0.071 N 
ATOM      8  H13 UNL     1       1.604  90.046  46.576  1.00  0.00     0.274 HD
ATOM      9  H12 UNL     1       2.802  89.222  47.124  1.00  0.00     0.274 HD
ATOM     10  H11 UNL     1       2.835  90.887  47.355  1.00  0.00     0.274 HD
ENDBRANCH   1   7
BRANCH   6  11
HETATM   11  N2  UNL     1       2.494  92.413  44.530  1.00  0.00    -0.069 N 
ATOM     12  H23 UNL     1       1.936  91.796  43.940  1.00  0.00     0.275 HD
ATOM     13  H22 UNL     1       1.805  92.633  45.248  1.00  0.00     0.275 HD
ATOM     14  H21 UNL     1       2.760  93.254  44.018  1.00  0.00     0.275 HD
ENDBRANCH   6  11
TORSDOF 2
ENDMDL
MODEL 4
REMARK VINA RESULT: -3.868520701      5.993      6.506
REMARK  2 active torsions:
REMARK  status: ('A' for Active; 'I' for Inactive)
REMARK    1  A    between atoms: N1_1  and  C1_5 
REMARK    2  A    between atoms: C4_10  and  N2_11 
ROOT
HETATM    1  C1  UNL     1       3.460  91.794  44.687  1.00  0.00     0.241 C 
HETATM    2  C2  UNL     1       4.213  91.637  43.358  1.00  0.00     0.205 C 
HETATM    3  O1  UNL     1       5.067  90.583  43.675  1.00  0.00    -0.366 OA
HETATM    4  C3  UNL     1       4.357  89.660  44.396  1.00  0.00     0.249 C 
HETATM    5 CL1  UNL     1       5.269  89.062  45.815  1.00  0.00    -0.093 Cl
HETATM    6  C4  UNL     1       3.107  90.336  44.916  1.00  0.00     0.259 C 
ENDROOT
BRANCH   1   7
HETATM    7  N1  UNL     1       2.325  92.646  44.577  1.00  0.00    -0.071 N 
ATOM      8  H13 UNL     1       2.581  93.620  44.745  1.00  0.00     0.274 HD
ATOM      9  H12 UNL     1       2.016  92.722  43.608  1.00  0.00     0.274 HD
ATOM     10  H11 UNL     1       1.558  92.358  45.184  1.00  0.00     0.274 HD
ENDBRANCH   1   7
BRANCH   6  11
HETATM   11  N2  UNL     1       2.800  90.025  46.267  1.00  0.00    -0.069 N 
ATOM     12  H23 UNL     1       3.545  89.469  46.686  1.00  0.00     0.275 HD
ATOM     13  H22 UNL     1       2.860  90.859  46.851  1.00  0.00     0.275 HD
ATOM     14  H21 UNL     1       1.898  89.566  46.390  1.00  0.00     0.275 HD
ENDBRANCH   6  11
TORSDOF 2
ENDMDL
MODEL 5
REMARK VINA RESULT: -3.807758788      7.202      7.619
REMARK  2 active torsions:
REMARK  status: ('A' for Active; 'I' for Inactive)
REMARK    1  A    between atoms: N1_1  and  C1_5 
REMARK    2  A    between atoms: C4_10  and  N2_11 
ROOT
HETATM    1  C1  UNL     1       6.908  89.694  46.248  1.00  0.00     0.241 C 
HETATM    2  C2  UNL     1       6.652  88.193  46.045  1.00  0.00     0.205 C 
HETATM    3  O1  UNL     1       5.259  88.176  46.023  1.00  0.00    -0.366 OA
HETATM    4  C3  UNL     1       4.830  89.248  45.285  1.00  0.00     0.249 C 
HETATM    5 CL1  UNL     1       3.472  90.110  46.069  1.00  0.00    -0.093 Cl
HETATM    6  C4  UNL     1       5.980  90.225  45.172  1.00  0.00     0.259 C 
ENDROOT
BRANCH   1   7
HETATM    7  N1  UNL     1       8.272  90.048  46.052  1.00  0.00    -0.071 N 
ATOM      8  H13 UNL     1       8.392  90.579  45.189  1.00  0.00     0.274 HD
ATOM      9  H12 UNL     1       8.567  90.756  46.723  1.00  0.00     0.274 HD
ATOM     10  H11 UNL     1       8.894  89.240  46.075  1.00  0.00     0.274 HD
ENDBRANCH   1   7
BRANCH   6  11
HETATM   11  N2  UNL     1       5.606  91.583  45.356  1.00  0.00    -0.069 N 
ATOM     12  H23 UNL     1       4.857  91.659  46.045  1.00  0.00     0.275 HD
ATOM     13  H22 UNL     1       6.341  92.095  45.843  1.00  0.00     0.275 HD
ATOM     14  H21 UNL     1       5.348  92.060  44.492  1.00  0.00     0.275 HD
ENDBRANCH   6  11
TORSDOF 2
ENDMDL
