MODEL 1
REMARK VINA RESULT: -5.403994273      0.000      0.000
REMARK  3 active torsions:
REMARK  status: ('A' for Active; 'I' for Inactive)
REMARK    1  A    between atoms: C2_2  and  N1_3 
REMARK    2  A    between atoms: N1_3  and  C3_4 
REMARK    3  A    between atoms: C3_4  and  C4_5 
ROOT
HETATM    1  N1  UNL     1      27.957   8.869  47.917  1.00  0.00     0.012 N 
HETATM    2  C7  UNL     1      27.253   7.699  47.362  1.00  0.00     0.262 C 
HETATM    3  C8  UNL     1      27.528   6.568  48.332  1.00  0.00     0.048 C 
HETATM    4  C9  UNL     1      27.689   7.352  49.622  1.00  0.00     0.144 C 
HETATM    5  N3  UNL     1      28.142   8.641  49.250  1.00  0.00    -0.047 NA
ENDROOT
BRANCH   1   6
HETATM    6  C2  UNL     1      27.044   9.997  47.664  1.00  0.00     0.256 C 
HETATM    7  C1  UNL     1      25.939  10.076  48.651  1.00  0.00     0.036 C 
ENDBRANCH   1   6
BRANCH   1   8
HETATM    8  C3  UNL     1      29.145   9.035  47.146  1.00  0.00     0.293 C 
BRANCH   8   9
HETATM    9  C4  UNL     1      30.161   9.961  47.700  1.00  0.00     0.215 C 
HETATM   10  C5  UNL     1      29.722  11.092  48.555  1.00  0.00     0.062 C 
HETATM   11  C6  UNL     1      31.111  10.907  49.188  1.00  0.00     0.235 C 
HETATM   12  N2  UNL     1      31.018   9.508  48.742  1.00  0.00    -0.069 N 
ATOM     13  H22 UNL     1      30.724   8.769  49.382  1.00  0.00     0.277 HD
ATOM     14  H21 UNL     1      31.856   8.964  48.536  1.00  0.00     0.277 HD
ENDBRANCH   8   9
ENDBRANCH   1   8
TORSDOF 3
ENDMDL
MODEL 2
REMARK VINA RESULT: -5.226100364      1.278      2.197
REMARK  3 active torsions:
REMARK  status: ('A' for Active; 'I' for Inactive)
REMARK    1  A    between atoms: C2_2  and  N1_3 
REMARK    2  A    between atoms: N1_3  and  C3_4 
REMARK    3  A    between atoms: C3_4  and  C4_5 
ROOT
HETATM    1  N1  UNL     1      28.050   8.325  47.477  1.00  0.00     0.012 N 
HETATM    2  C7  UNL     1      28.275   7.491  48.671  1.00  0.00     0.262 C 
HETATM    3  C8  UNL     1      27.577   8.215  49.804  1.00  0.00     0.048 C 
HETATM    4  C9  UNL     1      26.467   8.909  49.036  1.00  0.00     0.144 C 
HETATM    5  N3  UNL     1      26.952   9.098  47.719  1.00  0.00    -0.047 NA
ENDROOT
BRANCH   1   6
HETATM    6  C2  UNL     1      27.822   7.354  46.393  1.00  0.00     0.256 C 
HETATM    7  C1  UNL     1      27.656   5.966  46.888  1.00  0.00     0.036 C 
ENDBRANCH   1   6
BRANCH   1   8
HETATM    8  C3  UNL     1      29.265   9.032  47.236  1.00  0.00     0.293 C 
BRANCH   8   9
HETATM    9  C4  UNL     1      29.758   9.882  48.345  1.00  0.00     0.215 C 
HETATM   10  C5  UNL     1      31.180   9.781  48.760  1.00  0.00     0.062 C 
HETATM   11  C6  UNL     1      30.974  11.252  49.158  1.00  0.00     0.235 C 
HETATM   12  N2  UNL     1      29.923  11.279  48.127  1.00  0.00    -0.069 N 
ATOM     13  H22 UNL     1      30.110  11.649  47.194  1.00  0.00     0.277 HD
ATOM     14  H21 UNL     1      29.133  11.921  48.198  1.00  0.00     0.277 HD
ENDBRANCH   8   9
ENDBRANCH   1   8
TORSDOF 3
ENDMDL
MODEL 3
REMARK VINA RESULT: -5.084594123      1.159      1.496
REMARK  3 active torsions:
REMARK  status: ('A' for Active; 'I' for Inactive)
REMARK    1  A    between atoms: C2_2  and  N1_3 
REMARK    2  A    between atoms: N1_3  and  C3_4 
REMARK    3  A    between atoms: C3_4  and  C4_5 
ROOT
HETATM    1  N1  UNL     1      27.607   8.159  48.531  1.00  0.00     0.012 N 
HETATM    2  C7  UNL     1      27.748   8.468  47.097  1.00  0.00     0.262 C 
HETATM    3  C8  UNL     1      28.007   7.136  46.423  1.00  0.00     0.048 C 
HETATM    4  C9  UNL     1      27.266   6.208  47.368  1.00  0.00     0.144 C 
HETATM    5  N3  UNL     1      27.274   6.840  48.635  1.00  0.00    -0.047 NA
ENDROOT
BRANCH   1   6
HETATM    6  C2  UNL     1      26.525   9.047  48.990  1.00  0.00     0.256 C 
HETATM    7  C1  UNL     1      26.150  10.067  47.982  1.00  0.00     0.036 C 
ENDBRANCH   1   6
BRANCH   1   8
HETATM    8  C3  UNL     1      28.832   8.540  49.154  1.00  0.00     0.293 C 
BRANCH   8   9
HETATM    9  C4  UNL     1      29.603   9.612  48.480  1.00  0.00     0.215 C 
HETATM   10  C5  UNL     1      29.420  11.019  48.915  1.00  0.00     0.062 C 
HETATM   11  C6  UNL     1      30.876  11.158  48.440  1.00  0.00     0.235 C 
HETATM   12  N2  UNL     1      31.001   9.719  48.726  1.00  0.00    -0.069 N 
ATOM     13  H22 UNL     1      31.409   9.390  49.601  1.00  0.00     0.277 HD
ATOM     14  H21 UNL     1      31.671   9.139  48.221  1.00  0.00     0.277 HD
ENDBRANCH   8   9
ENDBRANCH   1   8
TORSDOF 3
ENDMDL
MODEL 4
REMARK VINA RESULT: -5.020959218      0.973      2.266
REMARK  3 active torsions:
REMARK  status: ('A' for Active; 'I' for Inactive)
REMARK    1  A    between atoms: C2_2  and  N1_3 
REMARK    2  A    between atoms: N1_3  and  C3_4 
REMARK    3  A    between atoms: C3_4  and  C4_5 
ROOT
HETATM    1  N1  UNL     1      27.918   8.380  47.667  1.00  0.00     0.012 N 
HETATM    2  C7  UNL     1      26.944   7.921  48.674  1.00  0.00     0.262 C 
HETATM    3  C8  UNL     1      26.238   9.174  49.150  1.00  0.00     0.048 C 
HETATM    4  C9  UNL     1      26.336  10.030  47.900  1.00  0.00     0.144 C 
HETATM    5  N3  UNL     1      27.491   9.591  47.207  1.00  0.00    -0.047 NA
ENDROOT
BRANCH   1   6
HETATM    6  C2  UNL     1      27.880   7.340  46.625  1.00  0.00     0.256 C 
HETATM    7  C1  UNL     1      27.542   5.999  47.161  1.00  0.00     0.036 C 
ENDBRANCH   1   6
BRANCH   1   8
HETATM    8  C3  UNL     1      29.195   8.373  48.301  1.00  0.00     0.293 C 
BRANCH   8   9
HETATM    9  C4  UNL     1      30.008   9.603  48.151  1.00  0.00     0.215 C 
HETATM   10  C5  UNL     1      29.626  10.821  48.909  1.00  0.00     0.062 C 
HETATM   11  C6  UNL     1      31.135  11.109  48.839  1.00  0.00     0.235 C 
HETATM   12  N2  UNL     1      31.307   9.652  48.730  1.00  0.00    -0.069 N 
ATOM     13  H22 UNL     1      31.541   9.087  49.547  1.00  0.00     0.277 HD
ATOM     14  H21 UNL     1      32.113   9.252  48.250  1.00  0.00     0.277 HD
ENDBRANCH   8   9
ENDBRANCH   1   8
TORSDOF 3
ENDMDL
MODEL 5
REMARK VINA RESULT: -4.712515783      1.388      2.098
REMARK  3 active torsions:
REMARK  status: ('A' for Active; 'I' for Inactive)
REMARK    1  A    between atoms: C2_2  and  N1_3 
REMARK    2  A    between atoms: N1_3  and  C3_4 
REMARK    3  A    between atoms: C3_4  and  C4_5 
ROOT
HETATM    1  N1  UNL     1      27.677   7.799  48.418  1.00  0.00     0.012 N 
HETATM    2  C7  UNL     1      27.433   8.666  47.252  1.00  0.00     0.262 C 
HETATM    3  C8  UNL     1      27.952   7.889  46.058  1.00  0.00     0.048 C 
HETATM    4  C9  UNL     1      27.732   6.469  46.546  1.00  0.00     0.144 C 
HETATM    5  N3  UNL     1      27.793   6.519  47.960  1.00  0.00    -0.047 NA
ENDROOT
BRANCH   1   6
HETATM    6  C2  UNL     1      26.486   7.984  49.265  1.00  0.00     0.256 C 
HETATM    7  C1  UNL     1      25.961   6.708  49.808  1.00  0.00     0.036 C 
ENDBRANCH   1   6
BRANCH   1   8
HETATM    8  C3  UNL     1      28.823   8.325  49.085  1.00  0.00     0.293 C 
BRANCH   8   9
HETATM    9  C4  UNL     1      29.489   9.477  48.433  1.00  0.00     0.215 C 
HETATM   10  C5  UNL     1      29.112  10.855  48.834  1.00  0.00     0.062 C 
HETATM   11  C6  UNL     1      30.562  11.168  48.430  1.00  0.00     0.235 C 
HETATM   12  N2  UNL     1      30.849   9.759  48.746  1.00  0.00    -0.069 N 
ATOM     13  H22 UNL     1      31.249   9.492  49.645  1.00  0.00     0.277 HD
ATOM     14  H21 UNL     1      31.610   9.262  48.284  1.00  0.00     0.277 HD
ENDBRANCH   8   9
ENDBRANCH   1   8
TORSDOF 3
ENDMDL
