MODEL 1
REMARK VINA RESULT: -7.553489099      0.000      0.000
REMARK  10 active torsions:
REMARK  status: ('A' for Active; 'I' for Inactive)
REMARK    1  A    between atoms: C4_7  and  C5_8 
REMARK    2  A    between atoms: C5_8  and  N2_9 
REMARK    3  A    between atoms: C5_8  and  C6_13 
REMARK    4  A    between atoms: C6_13  and  N3_14 
REMARK    5  A    between atoms: C6_13  and  C9_21 
REMARK    6  A    between atoms: N3_14  and  O1_15 
REMARK    7  A    between atoms: O1_15  and  C7_16 
REMARK    8  A    between atoms: C7_16  and  C8_17 
REMARK    9  A    between atoms: C16_28  and  O2_29 
REMARK   10  A    between atoms: C17_31  and  O3_32 
ROOT
HETATM    1  C5  UNL     1      30.396  50.453  46.830  1.00  0.00     0.254 C 
ENDROOT
BRANCH   1   2
HETATM    2  C4  UNL     1      30.017  49.274  47.673  1.00  0.00     0.050 C 
HETATM    3  N1  UNL     1      28.839  49.162  48.176  1.00  0.00    -0.370 N 
HETATM    4  C3  UNL     1      28.356  48.113  48.979  1.00  0.00     0.089 C 
ATOM      5  H1  UNL     1      28.184  49.916  47.971  1.00  0.00     0.164 HD
HETATM    6  C2  UNL     1      28.999  46.783  48.742  1.00  0.00     0.093 C 
HETATM    7  C1  UNL     1      29.294  46.133  50.073  1.00  0.00     0.041 C 
HETATM    8 CL1  UNL     1      27.853  45.716  47.874  1.00  0.00    -0.111 Cl
HETATM    9  C17 UNL     1      30.241  46.843  47.907  1.00  0.00     0.180 C 
HETATM   10  C16 UNL     1      30.948  48.173  47.983  1.00  0.00     0.196 C 
BRANCH   9  11
HETATM   11  O3  UNL     1      31.147  45.862  48.309  1.00  0.00    -0.390 OA
ATOM     12  H3  UNL     1      32.009  46.239  48.443  1.00  0.00     0.210 HD
ENDBRANCH   9  11
BRANCH  10  13
HETATM   13  O2  UNL     1      32.064  48.076  47.201  1.00  0.00    -0.387 OA
ATOM     14  H2  UNL     1      32.259  48.819  46.643  1.00  0.00     0.210 HD
ENDBRANCH  10  13
ENDBRANCH   1   2
BRANCH   1  15
HETATM   15  N2  UNL     1      30.689  49.919  45.533  1.00  0.00    -0.068 N 
ATOM     16  H23 UNL     1      30.929  48.928  45.542  1.00  0.00     0.275 HD
ATOM     17  H22 UNL     1      29.871  49.840  44.928  1.00  0.00     0.275 HD
ATOM     18  H21 UNL     1      31.424  50.516  45.152  1.00  0.00     0.275 HD
ENDBRANCH   1  15
BRANCH   1  19
HETATM   19  C6  UNL     1      31.582  51.193  47.455  1.00  0.00     0.157 C 
BRANCH  19  20
HETATM   20  N3  UNL     1      31.060  51.912  48.636  1.00  0.00    -0.092 NA
BRANCH  20  21
HETATM   21  O1  UNL     1      31.912  51.738  49.638  1.00  0.00    -0.277 OA
BRANCH  21  22
HETATM   22  C7  UNL     1      32.569  52.874  50.046  1.00  0.00     0.312 C 
BRANCH  22  23
HETATM   23  C8  UNL     1      34.036  52.492  50.284  1.00  0.00     0.410 C 
HETATM   24  F1  UNL     1      34.244  52.312  51.655  1.00  0.00    -0.169 F 
HETATM   25  F2  UNL     1      34.378  51.363  49.582  1.00  0.00    -0.169 F 
HETATM   26  F3  UNL     1      34.869  53.512  49.886  1.00  0.00    -0.169 F 
ENDBRANCH  22  23
ENDBRANCH  21  22
ENDBRANCH  20  21
ENDBRANCH  19  20
BRANCH  19  27
HETATM   27  C9  UNL     1      32.148  52.190  46.456  1.00  0.00     0.079 C 
HETATM   28  C10 UNL     1      31.281  53.484  46.545  1.00  0.00     0.045 C 
HETATM   29  C11 UNL     1      32.122  54.728  46.242  1.00  0.00    -0.029 C 
HETATM   30  C12 UNL     1      33.258  55.096  47.043  1.00  0.00    -0.030 C 
HETATM   31  C13 UNL     1      34.678  54.650  46.713  1.00  0.00     0.038 C 
HETATM   32  C14 UNL     1      34.797  53.091  46.669  1.00  0.00     0.084 C 
HETATM   33  C15 UNL     1      33.486  52.592  46.547  1.00  0.00    -0.176 C 
ENDBRANCH  19  27
ENDBRANCH   1  19
TORSDOF 10
ENDMDL
MODEL 2
REMARK VINA RESULT: -7.026500188      4.383      7.821
REMARK  10 active torsions:
REMARK  status: ('A' for Active; 'I' for Inactive)
REMARK    1  A    between atoms: C4_7  and  C5_8 
REMARK    2  A    between atoms: C5_8  and  N2_9 
REMARK    3  A    between atoms: C5_8  and  C6_13 
REMARK    4  A    between atoms: C6_13  and  N3_14 
REMARK    5  A    between atoms: C6_13  and  C9_21 
REMARK    6  A    between atoms: N3_14  and  O1_15 
REMARK    7  A    between atoms: O1_15  and  C7_16 
REMARK    8  A    between atoms: C7_16  and  C8_17 
REMARK    9  A    between atoms: C16_28  and  O2_29 
REMARK   10  A    between atoms: C17_31  and  O3_32 
ROOT
HETATM    1  C5  UNL     1      30.796  48.197  48.055  1.00  0.00     0.254 C 
ENDROOT
BRANCH   1   2
HETATM    2  C4  UNL     1      31.407  49.492  47.615  1.00  0.00     0.050 C 
HETATM    3  N1  UNL     1      30.851  50.222  46.716  1.00  0.00    -0.370 N 
HETATM    4  C3  UNL     1      31.315  51.452  46.215  1.00  0.00     0.089 C 
ATOM      5  H1  UNL     1      29.977  49.872  46.323  1.00  0.00     0.164 HD
HETATM    6  C2  UNL     1      32.135  52.258  47.171  1.00  0.00     0.093 C 
HETATM    7  C1  UNL     1      33.335  52.816  46.444  1.00  0.00     0.041 C 
HETATM    8 CL1  UNL     1      31.173  53.652  47.751  1.00  0.00    -0.111 Cl
HETATM    9  C17 UNL     1      32.572  51.506  48.390  1.00  0.00     0.180 C 
HETATM   10  C16 UNL     1      32.669  50.016  48.170  1.00  0.00     0.196 C 
BRANCH   9  11
HETATM   11  O3  UNL     1      33.824  51.949  48.816  1.00  0.00    -0.390 OA
ATOM     12  H3  UNL     1      33.735  52.542  49.554  1.00  0.00     0.210 HD
ENDBRANCH   9  11
BRANCH  10  13
HETATM   13  O2  UNL     1      33.097  49.467  49.345  1.00  0.00    -0.387 OA
ATOM     14  H2  UNL     1      34.028  49.520  49.526  1.00  0.00     0.210 HD
ENDBRANCH  10  13
ENDBRANCH   1   2
BRANCH   1  15
HETATM   15  N2  UNL     1      31.824  47.212  47.892  1.00  0.00    -0.068 N 
ATOM     16  H23 UNL     1      32.594  47.518  47.297  1.00  0.00     0.275 HD
ATOM     17  H22 UNL     1      32.378  47.053  48.734  1.00  0.00     0.275 HD
ATOM     18  H21 UNL     1      31.350  46.376  47.550  1.00  0.00     0.275 HD
ENDBRANCH   1  15
BRANCH   1  19
HETATM   19  C6  UNL     1      29.541  47.894  47.231  1.00  0.00     0.157 C 
BRANCH  19  20
HETATM   20  N3  UNL     1      28.495  48.832  47.689  1.00  0.00    -0.092 NA
BRANCH  20  21
HETATM   21  O1  UNL     1      27.940  49.389  46.619  1.00  0.00    -0.277 OA
BRANCH  21  22
HETATM   22  C7  UNL     1      26.613  49.086  46.431  1.00  0.00     0.312 C 
BRANCH  22  23
HETATM   23  C8  UNL     1      26.461  48.586  44.987  1.00  0.00     0.410 C 
HETATM   24  F1  UNL     1      25.848  49.584  44.222  1.00  0.00    -0.169 F 
HETATM   25  F2  UNL     1      27.673  48.230  44.451  1.00  0.00    -0.169 F 
HETATM   26  F3  UNL     1      25.634  47.487  44.943  1.00  0.00    -0.169 F 
ENDBRANCH  22  23
ENDBRANCH  21  22
ENDBRANCH  20  21
ENDBRANCH  19  20
BRANCH  19  27
HETATM   27  C9  UNL     1      29.093  46.463  47.485  1.00  0.00     0.079 C 
HETATM   28  C10 UNL     1      28.125  46.487  48.709  1.00  0.00     0.045 C 
HETATM   29  C11 UNL     1      27.067  45.386  48.590  1.00  0.00    -0.029 C 
HETATM   30  C12 UNL     1      26.135  45.336  47.496  1.00  0.00    -0.030 C 
HETATM   31  C13 UNL     1      26.403  44.544  46.221  1.00  0.00     0.038 C 
HETATM   32  C14 UNL     1      27.717  45.016  45.515  1.00  0.00     0.084 C 
HETATM   33  C15 UNL     1      28.451  45.738  46.475  1.00  0.00    -0.176 C 
ENDBRANCH  19  27
ENDBRANCH   1  19
TORSDOF 10
ENDMDL
MODEL 3
REMARK VINA RESULT: -7.002288141      3.989      6.645
REMARK  10 active torsions:
REMARK  status: ('A' for Active; 'I' for Inactive)
REMARK    1  A    between atoms: C4_7  and  C5_8 
REMARK    2  A    between atoms: C5_8  and  N2_9 
REMARK    3  A    between atoms: C5_8  and  C6_13 
REMARK    4  A    between atoms: C6_13  and  N3_14 
REMARK    5  A    between atoms: C6_13  and  C9_21 
REMARK    6  A    between atoms: N3_14  and  O1_15 
REMARK    7  A    between atoms: O1_15  and  C7_16 
REMARK    8  A    between atoms: C7_16  and  C8_17 
REMARK    9  A    between atoms: C16_28  and  O2_29 
REMARK   10  A    between atoms: C17_31  and  O3_32 
ROOT
HETATM    1  C5  UNL     1      30.532  49.376  48.036  1.00  0.00     0.254 C 
ENDROOT
BRANCH   1   2
HETATM    2  C4  UNL     1      31.385  50.593  48.228  1.00  0.00     0.050 C 
HETATM    3  N1  UNL     1      30.942  51.770  47.961  1.00  0.00    -0.370 N 
HETATM    4  C3  UNL     1      31.633  52.987  48.096  1.00  0.00     0.089 C 
ATOM      5  H1  UNL     1      29.985  51.826  47.613  1.00  0.00     0.164 HD
HETATM    6  C2  UNL     1      32.683  53.007  49.160  1.00  0.00     0.093 C 
HETATM    7  C1  UNL     1      33.920  53.685  48.620  1.00  0.00     0.041 C 
HETATM    8 CL1  UNL     1      32.107  53.981  50.547  1.00  0.00    -0.111 Cl
HETATM    9  C17 UNL     1      33.030  51.655  49.704  1.00  0.00     0.180 C 
HETATM   10  C16 UNL     1      32.771  50.534  48.729  1.00  0.00     0.196 C 
BRANCH   9  11
HETATM   11  O3  UNL     1      34.378  51.601  50.058  1.00  0.00    -0.390 OA
ATOM     12  H3  UNL     1      34.472  51.467  50.994  1.00  0.00     0.210 HD
ENDBRANCH   9  11
BRANCH  10  13
HETATM   13  O2  UNL     1      33.151  49.376  49.344  1.00  0.00    -0.387 OA
ATOM     14  H2  UNL     1      33.944  49.410  49.866  1.00  0.00     0.210 HD
ENDBRANCH  10  13
ENDBRANCH   1   2
BRANCH   1  15
HETATM   15  N2  UNL     1      31.321  48.474  47.250  1.00  0.00    -0.068 N 
ATOM     16  H23 UNL     1      31.927  48.941  46.576  1.00  0.00     0.275 HD
ATOM     17  H22 UNL     1      32.063  48.012  47.778  1.00  0.00     0.275 HD
ATOM     18  H21 UNL     1      30.656  47.828  46.826  1.00  0.00     0.275 HD
ENDBRANCH   1  15
BRANCH   1  19
HETATM   19  C6  UNL     1      29.209  49.755  47.362  1.00  0.00     0.157 C 
BRANCH  19  20
HETATM   20  N3  UNL     1      28.129  49.261  48.241  1.00  0.00    -0.092 NA
BRANCH  20  21
HETATM   21  O1  UNL     1      28.673  48.485  49.171  1.00  0.00    -0.277 OA
BRANCH  21  22
HETATM   22  C7  UNL     1      27.875  47.455  49.607  1.00  0.00     0.312 C 
BRANCH  22  23
HETATM   23  C8  UNL     1      28.713  46.170  49.540  1.00  0.00     0.410 C 
HETATM   24  F1  UNL     1      29.457  46.174  48.356  1.00  0.00    -0.169 F 
HETATM   25  F2  UNL     1      29.530  46.049  50.635  1.00  0.00    -0.169 F 
HETATM   26  F3  UNL     1      27.895  45.065  49.492  1.00  0.00    -0.169 F 
ENDBRANCH  22  23
ENDBRANCH  21  22
ENDBRANCH  20  21
ENDBRANCH  19  20
BRANCH  19  27
HETATM   27  C9  UNL     1      29.114  49.081  46.003  1.00  0.00     0.079 C 
HETATM   28  C10 UNL     1      27.966  48.028  46.084  1.00  0.00     0.045 C 
HETATM   29  C11 UNL     1      27.275  47.868  44.726  1.00  0.00    -0.029 C 
HETATM   30  C12 UNL     1      26.607  48.962  44.074  1.00  0.00    -0.030 C 
HETATM   31  C13 UNL     1      27.304  49.871  43.068  1.00  0.00     0.038 C 
HETATM   32  C14 UNL     1      28.554  50.572  43.694  1.00  0.00     0.084 C 
HETATM   33  C15 UNL     1      28.883  49.845  44.854  1.00  0.00    -0.176 C 
ENDBRANCH  19  27
ENDBRANCH   1  19
TORSDOF 10
ENDMDL
MODEL 4
REMARK VINA RESULT: -6.947988323      3.622      4.518
REMARK  10 active torsions:
REMARK  status: ('A' for Active; 'I' for Inactive)
REMARK    1  A    between atoms: C4_7  and  C5_8 
REMARK    2  A    between atoms: C5_8  and  N2_9 
REMARK    3  A    between atoms: C5_8  and  C6_13 
REMARK    4  A    between atoms: C6_13  and  N3_14 
REMARK    5  A    between atoms: C6_13  and  C9_21 
REMARK    6  A    between atoms: N3_14  and  O1_15 
REMARK    7  A    between atoms: O1_15  and  C7_16 
REMARK    8  A    between atoms: C7_16  and  C8_17 
REMARK    9  A    between atoms: C16_28  and  O2_29 
REMARK   10  A    between atoms: C17_31  and  O3_32 
ROOT
HETATM    1  C5  UNL     1      31.173  50.797  48.092  1.00  0.00     0.254 C 
ENDROOT
BRANCH   1   2
HETATM    2  C4  UNL     1      30.606  49.487  48.546  1.00  0.00     0.050 C 
HETATM    3  N1  UNL     1      29.437  49.411  49.074  1.00  0.00    -0.370 N 
HETATM    4  C3  UNL     1      28.790  48.252  49.539  1.00  0.00     0.089 C 
ATOM      5  H1  UNL     1      28.922  50.287  49.165  1.00  0.00     0.164 HD
HETATM    6  C2  UNL     1      29.183  46.985  48.848  1.00  0.00     0.093 C 
HETATM    7  C1  UNL     1      29.382  45.901  49.881  1.00  0.00     0.041 C 
HETATM    8 CL1  UNL     1      27.851  46.455  47.775  1.00  0.00    -0.111 Cl
HETATM    9  C17 UNL     1      30.401  47.109  47.986  1.00  0.00     0.180 C 
HETATM   10  C16 UNL     1      31.334  48.210  48.424  1.00  0.00     0.196 C 
BRANCH   9  11
HETATM   11  O3  UNL     1      31.126  45.917  47.990  1.00  0.00    -0.390 OA
ATOM     12  H3  UNL     1      30.571  45.190  48.247  1.00  0.00     0.210 HD
ENDBRANCH   9  11
BRANCH  10  13
HETATM   13  O2  UNL     1      32.400  48.191  47.572  1.00  0.00    -0.387 OA
ATOM     14  H2  UNL     1      32.251  47.819  46.710  1.00  0.00     0.210 HD
ENDBRANCH  10  13
ENDBRANCH   1   2
BRANCH   1  15
HETATM   15  N2  UNL     1      30.976  51.701  49.186  1.00  0.00    -0.068 N 
ATOM     16  H23 UNL     1      30.022  52.053  49.262  1.00  0.00     0.275 HD
ATOM     17  H22 UNL     1      31.011  51.250  50.101  1.00  0.00     0.275 HD
ATOM     18  H21 UNL     1      31.675  52.434  49.064  1.00  0.00     0.275 HD
ENDBRANCH   1  15
BRANCH   1  19
HETATM   19  C6  UNL     1      30.481  51.258  46.805  1.00  0.00     0.157 C 
BRANCH  19  20
HETATM   20  N3  UNL     1      30.201  50.041  46.014  1.00  0.00    -0.092 NA
BRANCH  20  21
HETATM   21  O1  UNL     1      29.033  50.203  45.403  1.00  0.00    -0.277 OA
BRANCH  21  22
HETATM   22  C7  UNL     1      28.139  49.174  45.580  1.00  0.00     0.312 C 
BRANCH  22  23
HETATM   23  C8  UNL     1      27.397  48.984  44.250  1.00  0.00     0.410 C 
HETATM   24  F1  UNL     1      28.074  49.683  43.246  1.00  0.00    -0.169 F 
HETATM   25  F2  UNL     1      27.278  47.655  43.929  1.00  0.00    -0.169 F 
HETATM   26  F3  UNL     1      26.132  49.521  44.324  1.00  0.00    -0.169 F 
ENDBRANCH  22  23
ENDBRANCH  21  22
ENDBRANCH  20  21
ENDBRANCH  19  20
BRANCH  19  27
HETATM   27  C9  UNL     1      31.410  52.174  46.023  1.00  0.00     0.079 C 
HETATM   28  C10 UNL     1      31.032  53.644  46.387  1.00  0.00     0.045 C 
HETATM   29  C11 UNL     1      32.262  54.554  46.333  1.00  0.00    -0.029 C 
HETATM   30  C12 UNL     1      33.408  54.343  47.177  1.00  0.00    -0.030 C 
HETATM   31  C13 UNL     1      34.607  53.508  46.742  1.00  0.00     0.038 C 
HETATM   32  C14 UNL     1      34.190  52.045  46.378  1.00  0.00     0.084 C 
HETATM   33  C15 UNL     1      32.796  52.064  46.175  1.00  0.00    -0.176 C 
ENDBRANCH  19  27
ENDBRANCH   1  19
TORSDOF 10
ENDMDL
MODEL 5
REMARK VINA RESULT: -6.876287191      1.365      1.635
REMARK  10 active torsions:
REMARK  status: ('A' for Active; 'I' for Inactive)
REMARK    1  A    between atoms: C4_7  and  C5_8 
REMARK    2  A    between atoms: C5_8  and  N2_9 
REMARK    3  A    between atoms: C5_8  and  C6_13 
REMARK    4  A    between atoms: C6_13  and  N3_14 
REMARK    5  A    between atoms: C6_13  and  C9_21 
REMARK    6  A    between atoms: N3_14  and  O1_15 
REMARK    7  A    between atoms: O1_15  and  C7_16 
REMARK    8  A    between atoms: C7_16  and  C8_17 
REMARK    9  A    between atoms: C16_28  and  O2_29 
REMARK   10  A    between atoms: C17_31  and  O3_32 
ROOT
HETATM    1  C5  UNL     1      30.357  50.589  47.090  1.00  0.00     0.254 C 
ENDROOT
BRANCH   1   2
HETATM    2  C4  UNL     1      29.992  49.346  47.843  1.00  0.00     0.050 C 
HETATM    3  N1  UNL     1      28.814  49.181  48.331  1.00  0.00    -0.370 N 
HETATM    4  C3  UNL     1      28.344  48.070  49.054  1.00  0.00     0.089 C 
ATOM      5  H1  UNL     1      28.149  49.938  48.177  1.00  0.00     0.164 HD
HETATM    6  C2  UNL     1      29.007  46.771  48.724  1.00  0.00     0.093 C 
HETATM    7  C1  UNL     1      29.307  46.031  50.006  1.00  0.00     0.041 C 
HETATM    8 CL1  UNL     1      27.881  45.753  47.775  1.00  0.00    -0.111 Cl
HETATM    9  C17 UNL     1      30.252  46.909  47.903  1.00  0.00     0.180 C 
HETATM   10  C16 UNL     1      30.939  48.240  48.078  1.00  0.00     0.196 C 
BRANCH   9  11
HETATM   11  O3  UNL     1      31.171  45.914  48.237  1.00  0.00    -0.390 OA
ATOM     12  H3  UNL     1      30.830  45.056  48.012  1.00  0.00     0.210 HD
ENDBRANCH   9  11
BRANCH  10  13
HETATM   13  O2  UNL     1      32.059  48.216  47.298  1.00  0.00    -0.387 OA
ATOM     14  H2  UNL     1      32.022  47.677  46.516  1.00  0.00     0.210 HD
ENDBRANCH  10  13
ENDBRANCH   1   2
BRANCH   1  15
HETATM   15  N2  UNL     1      30.811  50.141  45.807  1.00  0.00    -0.068 N 
ATOM     16  H23 UNL     1      30.370  50.623  45.024  1.00  0.00     0.275 HD
ATOM     17  H22 UNL     1      31.770  50.416  45.592  1.00  0.00     0.275 HD
ATOM     18  H21 UNL     1      30.664  49.132  45.802  1.00  0.00     0.275 HD
ENDBRANCH   1  15
BRANCH   1  19
HETATM   19  C6  UNL     1      31.420  51.382  47.857  1.00  0.00     0.157 C 
BRANCH  19  20
HETATM   20  N3  UNL     1      30.787  52.653  48.267  1.00  0.00    -0.092 NA
BRANCH  20  21
HETATM   21  O1  UNL     1      30.948  52.793  49.577  1.00  0.00    -0.277 OA
BRANCH  21  22
HETATM   22  C7  UNL     1      30.829  54.080  50.042  1.00  0.00     0.312 C 
BRANCH  22  23
HETATM   23  C8  UNL     1      32.232  54.703  50.021  1.00  0.00     0.410 C 
HETATM   24  F1  UNL     1      32.341  55.617  51.074  1.00  0.00    -0.169 F 
HETATM   25  F2  UNL     1      33.207  53.741  50.101  1.00  0.00    -0.169 F 
HETATM   26  F3  UNL     1      32.425  55.412  48.857  1.00  0.00    -0.169 F 
ENDBRANCH  22  23
ENDBRANCH  21  22
ENDBRANCH  20  21
ENDBRANCH  19  20
BRANCH  19  27
HETATM   27  C9  UNL     1      32.603  51.669  46.945  1.00  0.00     0.079 C 
HETATM   28  C10 UNL     1      32.502  53.162  46.506  1.00  0.00     0.045 C 
HETATM   29  C11 UNL     1      33.895  53.762  46.285  1.00  0.00    -0.029 C 
HETATM   30  C12 UNL     1      34.867  53.846  47.342  1.00  0.00    -0.030 C 
HETATM   31  C13 UNL     1      35.906  52.759  47.593  1.00  0.00     0.038 C 
HETATM   32  C14 UNL     1      35.235  51.373  47.869  1.00  0.00     0.084 C 
HETATM   33  C15 UNL     1      33.909  51.469  47.405  1.00  0.00    -0.176 C 
ENDBRANCH  19  27
ENDBRANCH   1  19
TORSDOF 10
ENDMDL
