MODEL 1
REMARK VINA RESULT: -7.977573569      0.000      0.000
REMARK  9 active torsions:
REMARK  status: ('A' for Active; 'I' for Inactive)
REMARK    1  A    between atoms: O1_2  and  C2_3 
REMARK    2  A    between atoms: C3_5  and  C4_6 
REMARK    3  A    between atoms: C4_6  and  N1_7 
REMARK    4  A    between atoms: N1_7  and  C5_9 
REMARK    5  A    between atoms: C5_9  and  C6_10 
REMARK    6  A    between atoms: C11_16  and  O3_17 
REMARK    7  A    between atoms: C12_19  and  O4_20 
REMARK    8  A    between atoms: C13_22  and  O5_23 
REMARK    9  A    between atoms: C14_25  and  C16_28 
ROOT
HETATM    1  C2  UNL     1      33.031  52.552  46.846  1.00  0.00     0.299 C 
HETATM    2  O2  UNL     1      32.072  51.558  46.756  1.00  0.00    -0.318 OA
HETATM    3  C3  UNL     1      32.211  50.500  47.531  1.00  0.00     0.096 C 
HETATM    4  C12 UNL     1      32.798  50.747  48.897  1.00  0.00     0.207 C 
HETATM    5  C13 UNL     1      34.053  51.532  48.848  1.00  0.00     0.190 C 
HETATM    6  C14 UNL     1      34.301  52.210  47.506  1.00  0.00     0.223 C 
HETATM    7  C15 UNL     1      35.159  51.362  46.699  1.00  0.00     0.086 C 
HETATM    8  N2  UNL     1      35.874  50.669  46.066  1.00  0.00    -0.196 NA
ENDROOT
BRANCH   6   9
HETATM    9  C16 UNL     1      35.126  53.477  47.858  1.00  0.00     0.415 C 
HETATM   10  F1  UNL     1      34.744  54.004  49.059  1.00  0.00    -0.169 F 
HETATM   11  F2  UNL     1      36.442  53.037  48.002  1.00  0.00    -0.169 F 
HETATM   12  F3  UNL     1      35.121  54.351  46.826  1.00  0.00    -0.169 F 
ENDBRANCH   6   9
BRANCH   1  13
HETATM   13  O1  UNL     1      32.485  53.746  47.305  1.00  0.00    -0.363 OA
HETATM   14  C1  UNL     1      31.763  54.482  46.425  1.00  0.00     0.204 C 
ENDBRANCH   1  13
BRANCH   5  15
HETATM   15  O5  UNL     1      35.140  50.671  49.131  1.00  0.00    -0.390 OA
ATOM     16  H5  UNL     1      34.953  50.197  49.933  1.00  0.00     0.210 HD
ENDBRANCH   5  15
BRANCH   4  17
HETATM   17  O4  UNL     1      33.192  49.458  49.435  1.00  0.00    -0.386 OA
ATOM     18  H4  UNL     1      32.609  49.266  50.160  1.00  0.00     0.210 HD
ENDBRANCH   4  17
BRANCH   3  19
HETATM   19  C4  UNL     1      31.154  49.426  47.613  1.00  0.00     0.122 C 
BRANCH  19  20
HETATM   20  N1  UNL     1      31.532  48.130  47.301  1.00  0.00    -0.372 N 
ATOM     21  H1  UNL     1      32.073  47.978  46.450  1.00  0.00     0.164 HD
BRANCH  20  22
HETATM   22  C5  UNL     1      31.216  47.027  48.081  1.00  0.00     0.101 C 
BRANCH  22  23
HETATM   23  C6  UNL     1      29.713  46.957  48.191  1.00  0.00     0.014 A 
HETATM   24  C7  UNL     1      29.004  46.448  47.105  1.00  0.00     0.039 A 
HETATM   25  C8  UNL     1      27.669  46.139  47.252  1.00  0.00     0.035 A 
HETATM   26 CL1  UNL     1      26.804  45.465  45.916  1.00  0.00    -0.084 Cl
HETATM   27  C9  UNL     1      27.025  46.349  48.509  1.00  0.00     0.026 A 
HETATM   28  C10 UNL     1      27.722  46.856  49.567  1.00  0.00     0.039 A 
HETATM   29  C11 UNL     1      29.071  47.162  49.409  1.00  0.00     0.077 A 
BRANCH  29  30
HETATM   30  O3  UNL     1      29.744  47.667  50.442  1.00  0.00    -0.360 OA
ATOM     31  H3  UNL     1      29.296  47.850  51.259  1.00  0.00     0.217 HD
ENDBRANCH  29  30
ENDBRANCH  22  23
ENDBRANCH  20  22
ENDBRANCH  19  20
ENDBRANCH   3  19
TORSDOF 9
ENDMDL
MODEL 2
REMARK VINA RESULT: -7.837577612      1.033      1.233
REMARK  9 active torsions:
REMARK  status: ('A' for Active; 'I' for Inactive)
REMARK    1  A    between atoms: O1_2  and  C2_3 
REMARK    2  A    between atoms: C3_5  and  C4_6 
REMARK    3  A    between atoms: C4_6  and  N1_7 
REMARK    4  A    between atoms: N1_7  and  C5_9 
REMARK    5  A    between atoms: C5_9  and  C6_10 
REMARK    6  A    between atoms: C11_16  and  O3_17 
REMARK    7  A    between atoms: C12_19  and  O4_20 
REMARK    8  A    between atoms: C13_22  and  O5_23 
REMARK    9  A    between atoms: C14_25  and  C16_28 
ROOT
HETATM    1  C2  UNL     1      32.871  52.518  46.898  1.00  0.00     0.299 C 
HETATM    2  O2  UNL     1      31.926  51.531  46.676  1.00  0.00    -0.318 OA
HETATM    3  C3  UNL     1      32.015  50.426  47.390  1.00  0.00     0.096 C 
HETATM    4  C12 UNL     1      32.498  50.588  48.810  1.00  0.00     0.207 C 
HETATM    5  C13 UNL     1      33.748  51.375  48.902  1.00  0.00     0.190 C 
HETATM    6  C14 UNL     1      34.091  52.137  47.627  1.00  0.00     0.223 C 
HETATM    7  C15 UNL     1      35.010  51.342  46.833  1.00  0.00     0.086 C 
HETATM    8  N2  UNL     1      35.774  50.691  46.213  1.00  0.00    -0.196 NA
ENDROOT
BRANCH   6   9
HETATM    9  C16 UNL     1      34.880  53.379  48.118  1.00  0.00     0.415 C 
HETATM   10  F1  UNL     1      34.458  53.785  49.352  1.00  0.00    -0.169 F 
HETATM   11  F2  UNL     1      36.201  52.951  48.256  1.00  0.00    -0.169 F 
HETATM   12  F3  UNL     1      34.884  54.346  47.171  1.00  0.00    -0.169 F 
ENDBRANCH   6   9
BRANCH   1  13
HETATM   13  O1  UNL     1      32.286  53.680  47.389  1.00  0.00    -0.363 OA
HETATM   14  C1  UNL     1      31.553  54.424  46.526  1.00  0.00     0.204 C 
ENDBRANCH   1  13
BRANCH   5  15
HETATM   15  O5  UNL     1      34.817  50.499  49.210  1.00  0.00    -0.390 OA
ATOM     16  H5  UNL     1      35.579  51.017  49.443  1.00  0.00     0.210 HD
ENDBRANCH   5  15
BRANCH   4  17
HETATM   17  O4  UNL     1      32.858  49.268  49.292  1.00  0.00    -0.386 OA
ATOM     18  H4  UNL     1      33.805  49.202  49.250  1.00  0.00     0.210 HD
ENDBRANCH   4  17
BRANCH   3  19
HETATM   19  C4  UNL     1      30.960  49.347  47.327  1.00  0.00     0.122 C 
BRANCH  19  20
HETATM   20  N1  UNL     1      29.634  49.748  47.324  1.00  0.00    -0.372 N 
ATOM     21  H1  UNL     1      29.215  50.019  46.435  1.00  0.00     0.164 HD
BRANCH  20  22
HETATM   22  C5  UNL     1      28.844  49.803  48.464  1.00  0.00     0.101 C 
BRANCH  22  23
HETATM   23  C6  UNL     1      28.595  48.386  48.919  1.00  0.00     0.014 A 
HETATM   24  C7  UNL     1      27.751  47.593  48.146  1.00  0.00     0.039 A 
HETATM   25  C8  UNL     1      27.690  46.237  48.383  1.00  0.00     0.035 A 
HETATM   26 CL1  UNL     1      26.676  45.249  47.391  1.00  0.00    -0.084 Cl
HETATM   27  C9  UNL     1      28.483  45.660  49.422  1.00  0.00     0.026 A 
HETATM   28  C10 UNL     1      29.302  46.444  50.182  1.00  0.00     0.039 A 
HETATM   29  C11 UNL     1      29.358  47.812  49.932  1.00  0.00     0.077 A 
BRANCH  29  30
HETATM   30  O3  UNL     1      30.150  48.574  50.685  1.00  0.00    -0.360 OA
ATOM     31  H3  UNL     1      29.816  48.962  51.486  1.00  0.00     0.217 HD
ENDBRANCH  29  30
ENDBRANCH  22  23
ENDBRANCH  20  22
ENDBRANCH  19  20
ENDBRANCH   3  19
TORSDOF 9
ENDMDL
MODEL 3
REMARK VINA RESULT: -7.762200327      1.574      2.135
REMARK  9 active torsions:
REMARK  status: ('A' for Active; 'I' for Inactive)
REMARK    1  A    between atoms: O1_2  and  C2_3 
REMARK    2  A    between atoms: C3_5  and  C4_6 
REMARK    3  A    between atoms: C4_6  and  N1_7 
REMARK    4  A    between atoms: N1_7  and  C5_9 
REMARK    5  A    between atoms: C5_9  and  C6_10 
REMARK    6  A    between atoms: C11_16  and  O3_17 
REMARK    7  A    between atoms: C12_19  and  O4_20 
REMARK    8  A    between atoms: C13_22  and  O5_23 
REMARK    9  A    between atoms: C14_25  and  C16_28 
ROOT
HETATM    1  C2  UNL     1      33.084  52.492  46.816  1.00  0.00     0.299 C 
HETATM    2  O2  UNL     1      32.138  51.490  46.690  1.00  0.00    -0.318 OA
HETATM    3  C3  UNL     1      32.270  50.423  47.453  1.00  0.00     0.096 C 
HETATM    4  C12 UNL     1      32.819  50.658  48.838  1.00  0.00     0.207 C 
HETATM    5  C13 UNL     1      34.066  51.457  48.830  1.00  0.00     0.190 C 
HETATM    6  C14 UNL     1      34.341  52.156  47.503  1.00  0.00     0.223 C 
HETATM    7  C15 UNL     1      35.227  51.328  46.707  1.00  0.00     0.086 C 
HETATM    8  N2  UNL     1      35.966  50.651  46.083  1.00  0.00    -0.196 NA
ENDROOT
BRANCH   6   9
HETATM    9  C16 UNL     1      35.142  53.426  47.893  1.00  0.00     0.415 C 
HETATM   10  F1  UNL     1      34.750  53.912  49.108  1.00  0.00    -0.169 F 
HETATM   11  F2  UNL     1      36.465  53.005  48.027  1.00  0.00    -0.169 F 
HETATM   12  F3  UNL     1      35.123  54.329  46.886  1.00  0.00    -0.169 F 
ENDBRANCH   6   9
BRANCH   1  13
HETATM   13  O1  UNL     1      32.513  53.675  47.277  1.00  0.00    -0.363 OA
HETATM   14  C1  UNL     1      31.744  54.376  46.411  1.00  0.00     0.204 C 
ENDBRANCH   1  13
BRANCH   5  15
HETATM   15  O5  UNL     1      35.155  50.604  49.129  1.00  0.00    -0.390 OA
ATOM     16  H5  UNL     1      35.326  50.051  48.376  1.00  0.00     0.210 HD
ENDBRANCH   5  15
BRANCH   4  17
HETATM   17  O4  UNL     1      33.214  49.366  49.367  1.00  0.00    -0.386 OA
ATOM     18  H4  UNL     1      32.787  49.266  50.210  1.00  0.00     0.210 HD
ENDBRANCH   4  17
BRANCH   3  19
HETATM   19  C4  UNL     1      31.222  49.336  47.495  1.00  0.00     0.122 C 
BRANCH  19  20
HETATM   20  N1  UNL     1      29.903  49.711  47.298  1.00  0.00    -0.372 N 
ATOM     21  H1  UNL     1      29.719  50.581  46.800  1.00  0.00     0.164 HD
BRANCH  20  22
HETATM   22  C5  UNL     1      28.818  48.968  47.741  1.00  0.00     0.101 C 
BRANCH  22  23
HETATM   23  C6  UNL     1      28.339  48.121  46.589  1.00  0.00     0.014 A 
HETATM   24  C7  UNL     1      28.152  46.759  46.816  1.00  0.00     0.039 A 
HETATM   25  C8  UNL     1      27.489  46.001  45.876  1.00  0.00     0.035 A 
HETATM   26 CL1  UNL     1      27.218  44.321  46.182  1.00  0.00    -0.084 Cl
HETATM   27  C9  UNL     1      27.008  46.612  44.678  1.00  0.00     0.026 A 
HETATM   28  C10 UNL     1      27.202  47.946  44.457  1.00  0.00     0.039 A 
HETATM   29  C11 UNL     1      27.870  48.703  45.414  1.00  0.00     0.077 A 
BRANCH  29  30
HETATM   30  O3  UNL     1      28.068  50.002  45.188  1.00  0.00    -0.360 OA
ATOM     31  H3  UNL     1      28.776  50.284  44.621  1.00  0.00     0.217 HD
ENDBRANCH  29  30
ENDBRANCH  22  23
ENDBRANCH  20  22
ENDBRANCH  19  20
ENDBRANCH   3  19
TORSDOF 9
ENDMDL
MODEL 4
REMARK VINA RESULT: -7.759457922      1.808      2.510
REMARK  9 active torsions:
REMARK  status: ('A' for Active; 'I' for Inactive)
REMARK    1  A    between atoms: O1_2  and  C2_3 
REMARK    2  A    between atoms: C3_5  and  C4_6 
REMARK    3  A    between atoms: C4_6  and  N1_7 
REMARK    4  A    between atoms: N1_7  and  C5_9 
REMARK    5  A    between atoms: C5_9  and  C6_10 
REMARK    6  A    between atoms: C11_16  and  O3_17 
REMARK    7  A    between atoms: C12_19  and  O4_20 
REMARK    8  A    between atoms: C13_22  and  O5_23 
REMARK    9  A    between atoms: C14_25  and  C16_28 
ROOT
HETATM    1  C2  UNL     1      32.952  52.343  46.784  1.00  0.00     0.299 C 
HETATM    2  O2  UNL     1      32.075  51.277  46.672  1.00  0.00    -0.318 OA
HETATM    3  C3  UNL     1      32.277  50.233  47.451  1.00  0.00     0.096 C 
HETATM    4  C12 UNL     1      32.806  50.524  48.832  1.00  0.00     0.207 C 
HETATM    5  C13 UNL     1      33.997  51.405  48.815  1.00  0.00     0.190 C 
HETATM    6  C14 UNL     1      34.226  52.101  47.478  1.00  0.00     0.223 C 
HETATM    7  C15 UNL     1      35.169  51.323  46.695  1.00  0.00     0.086 C 
HETATM    8  N2  UNL     1      35.952  50.689  46.082  1.00  0.00    -0.196 NA
ENDROOT
BRANCH   6   9
HETATM    9  C16 UNL     1      34.940  53.428  47.851  1.00  0.00     0.415 C 
HETATM   10  F1  UNL     1      34.497  53.916  49.047  1.00  0.00    -0.169 F 
HETATM   11  F2  UNL     1      36.285  53.094  48.016  1.00  0.00    -0.169 F 
HETATM   12  F3  UNL     1      34.883  54.305  46.822  1.00  0.00    -0.169 F 
ENDBRANCH   6   9
BRANCH   1  13
HETATM   13  O1  UNL     1      32.302  53.491  47.228  1.00  0.00    -0.363 OA
HETATM   14  C1  UNL     1      31.493  54.129  46.348  1.00  0.00     0.204 C 
ENDBRANCH   1  13
BRANCH   5  15
HETATM   15  O5  UNL     1      35.140  50.631  49.127  1.00  0.00    -0.390 OA
ATOM     16  H5  UNL     1      34.905  49.711  49.094  1.00  0.00     0.210 HD
ENDBRANCH   5  15
BRANCH   4  17
HETATM   17  O4  UNL     1      33.285  49.270  49.381  1.00  0.00    -0.386 OA
ATOM     18  H4  UNL     1      32.525  48.718  49.525  1.00  0.00     0.210 HD
ENDBRANCH   4  17
BRANCH   3  19
HETATM   19  C4  UNL     1      31.304  49.079  47.506  1.00  0.00     0.122 C 
BRANCH  19  20
HETATM   20  N1  UNL     1      30.153  49.248  48.258  1.00  0.00    -0.372 N 
ATOM     21  H1  UNL     1      30.103  48.794  49.170  1.00  0.00     0.164 HD
BRANCH  20  22
HETATM   22  C5  UNL     1      29.064  49.999  47.840  1.00  0.00     0.101 C 
BRANCH  22  23
HETATM   23  C6  UNL     1      28.610  49.451  46.510  1.00  0.00     0.014 A 
HETATM   24  C7  UNL     1      27.838  48.292  46.513  1.00  0.00     0.039 A 
HETATM   25  C8  UNL     1      27.202  47.898  45.356  1.00  0.00     0.035 A 
HETATM   26 CL1  UNL     1      26.207  46.485  45.375  1.00  0.00    -0.084 Cl
HETATM   27  C9  UNL     1      27.347  48.674  44.165  1.00  0.00     0.026 A 
HETATM   28  C10 UNL     1      28.112  49.805  44.166  1.00  0.00     0.039 A 
HETATM   29  C11 UNL     1      28.747  50.195  45.341  1.00  0.00     0.077 A 
BRANCH  29  30
HETATM   30  O3  UNL     1      29.503  51.293  45.333  1.00  0.00    -0.360 OA
ATOM     31  H3  UNL     1      29.438  51.910  44.614  1.00  0.00     0.217 HD
ENDBRANCH  29  30
ENDBRANCH  22  23
ENDBRANCH  20  22
ENDBRANCH  19  20
ENDBRANCH   3  19
TORSDOF 9
ENDMDL
MODEL 5
REMARK VINA RESULT: -7.655912825      1.649      2.002
REMARK  9 active torsions:
REMARK  status: ('A' for Active; 'I' for Inactive)
REMARK    1  A    between atoms: O1_2  and  C2_3 
REMARK    2  A    between atoms: C3_5  and  C4_6 
REMARK    3  A    between atoms: C4_6  and  N1_7 
REMARK    4  A    between atoms: N1_7  and  C5_9 
REMARK    5  A    between atoms: C5_9  and  C6_10 
REMARK    6  A    between atoms: C11_16  and  O3_17 
REMARK    7  A    between atoms: C12_19  and  O4_20 
REMARK    8  A    between atoms: C13_22  and  O5_23 
REMARK    9  A    between atoms: C14_25  and  C16_28 
ROOT
HETATM    1  C2  UNL     1      32.899  52.336  46.800  1.00  0.00     0.299 C 
HETATM    2  O2  UNL     1      32.019  51.277  46.654  1.00  0.00    -0.318 OA
HETATM    3  C3  UNL     1      32.200  50.220  47.421  1.00  0.00     0.096 C 
HETATM    4  C12 UNL     1      32.705  50.487  48.816  1.00  0.00     0.207 C 
HETATM    5  C13 UNL     1      33.900  51.361  48.835  1.00  0.00     0.190 C 
HETATM    6  C14 UNL     1      34.159  52.077  47.514  1.00  0.00     0.223 C 
HETATM    7  C15 UNL     1      35.112  51.306  46.736  1.00  0.00     0.086 C 
HETATM    8  N2  UNL     1      35.904  50.676  46.129  1.00  0.00    -0.196 NA
ENDROOT
BRANCH   6   9
HETATM    9  C16 UNL     1      34.872  53.394  47.920  1.00  0.00     0.415 C 
HETATM   10  F1  UNL     1      34.414  53.863  49.118  1.00  0.00    -0.169 F 
HETATM   11  F2  UNL     1      36.213  53.052  48.098  1.00  0.00    -0.169 F 
HETATM   12  F3  UNL     1      34.833  54.288  46.906  1.00  0.00    -0.169 F 
ENDBRANCH   6   9
BRANCH   1  13
HETATM   13  O1  UNL     1      32.247  53.480  47.248  1.00  0.00    -0.363 OA
HETATM   14  C1  UNL     1      31.534  54.190  46.340  1.00  0.00     0.204 C 
ENDBRANCH   1  13
BRANCH   5  15
HETATM   15  O5  UNL     1      35.033  50.577  49.157  1.00  0.00    -0.390 OA
ATOM     16  H5  UNL     1      34.740  49.753  49.527  1.00  0.00     0.210 HD
ENDBRANCH   5  15
BRANCH   4  17
HETATM   17  O4  UNL     1      33.167  49.222  49.355  1.00  0.00    -0.386 OA
ATOM     18  H4  UNL     1      32.524  48.937  49.994  1.00  0.00     0.210 HD
ENDBRANCH   4  17
BRANCH   3  19
HETATM   19  C4  UNL     1      31.221  49.070  47.441  1.00  0.00     0.122 C 
BRANCH  19  20
HETATM   20  N1  UNL     1      29.886  49.371  47.656  1.00  0.00    -0.372 N 
ATOM     21  H1  UNL     1      29.561  50.310  47.428  1.00  0.00     0.164 HD
BRANCH  20  22
HETATM   22  C5  UNL     1      28.966  48.465  48.165  1.00  0.00     0.101 C 
BRANCH  22  23
HETATM   23  C6  UNL     1      28.192  47.894  47.003  1.00  0.00     0.014 A 
HETATM   24  C7  UNL     1      27.861  48.751  45.957  1.00  0.00     0.039 A 
HETATM   25  C8  UNL     1      27.377  48.226  44.778  1.00  0.00     0.035 A 
HETATM   26 CL1  UNL     1      27.012  49.289  43.465  1.00  0.00    -0.084 Cl
HETATM   27  C9  UNL     1      27.211  46.814  44.643  1.00  0.00     0.026 A 
HETATM   28  C10 UNL     1      27.529  45.979  45.676  1.00  0.00     0.039 A 
HETATM   29  C11 UNL     1      28.020  46.520  46.860  1.00  0.00     0.077 A 
BRANCH  29  30
HETATM   30  O3  UNL     1      28.317  45.701  47.870  1.00  0.00    -0.360 OA
ATOM     31  H3  UNL     1      27.852  44.879  47.968  1.00  0.00     0.217 HD
ENDBRANCH  29  30
ENDBRANCH  22  23
ENDBRANCH  20  22
ENDBRANCH  19  20
ENDBRANCH   3  19
TORSDOF 9
ENDMDL
