MODEL 1
REMARK VINA RESULT: -8.163339848      0.000      0.000
REMARK  8 active torsions:
REMARK  status: ('A' for Active; 'I' for Inactive)
REMARK    1  A    between atoms: O1_1  and  C1_3 
REMARK    2  A    between atoms: C2_4  and  O2_5 
REMARK    3  A    between atoms: C3_7  and  O3_8 
REMARK    4  A    between atoms: N1_10  and  C4_11 
REMARK    5  A    between atoms: C8_15  and  C9_16 
REMARK    6  A    between atoms: C15_25  and  O4_26 
REMARK    7  A    between atoms: O4_26  and  C16_27 
REMARK    8  A    between atoms: C19_32  and  O5_33 
ROOT
HETATM    1  C1  UNL     1      30.625  50.046  48.651  1.00  0.00     0.185 C 
HETATM    2  C2  UNL     1      30.828  48.713  49.328  1.00  0.00     0.198 C 
HETATM    3  C3  UNL     1      30.179  47.577  48.632  1.00  0.00     0.256 C 
HETATM    4  N1  UNL     1      28.909  48.026  47.909  1.00  0.00    -0.318 N 
HETATM    5  C11 UNL     1      28.919  49.192  47.158  1.00  0.00     0.056 C 
HETATM    6  C12 UNL     1      28.235  49.413  45.903  1.00  0.00    -0.011 A 
HETATM    7  C13 UNL     1      26.904  49.227  45.693  1.00  0.00     0.016 A 
HETATM    8  C14 UNL     1      26.300  49.541  44.466  1.00  0.00     0.038 A 
HETATM    9  C15 UNL     1      27.017  50.053  43.415  1.00  0.00     0.074 A 
HETATM   10  C17 UNL     1      28.379  50.234  43.635  1.00  0.00     0.038 A 
HETATM   11  C18 UNL     1      28.970  49.932  44.820  1.00  0.00     0.016 A 
HETATM   12  C19 UNL     1      30.295  49.858  47.172  1.00  0.00     0.200 C 
ENDROOT
BRANCH   4  13
HETATM   13  C4  UNL     1      27.883  47.121  48.238  1.00  0.00     0.038 A 
HETATM   14  C5  UNL     1      27.243  47.194  49.431  1.00  0.00     0.030 A 
HETATM   15  C6  UNL     1      26.383  46.207  49.857  1.00  0.00     0.003 A 
HETATM   16  C7  UNL     1      26.132  45.080  49.056  1.00  0.00     0.016 A 
HETATM   17  C8  UNL     1      26.774  45.012  47.855  1.00  0.00     0.050 A 
HETATM   18  C10 UNL     1      27.632  46.011  47.443  1.00  0.00     0.046 A 
BRANCH  17  19
HETATM   19  C9  UNL     1      26.602  43.815  46.979  1.00  0.00     0.417 C 
HETATM   20  F1  UNL     1      27.508  43.943  45.966  1.00  0.00    -0.166 F 
HETATM   21  F2  UNL     1      26.803  42.642  47.732  1.00  0.00    -0.166 F 
HETATM   22  F3  UNL     1      25.331  43.735  46.477  1.00  0.00    -0.166 F 
ENDBRANCH  17  19
ENDBRANCH   4  13
BRANCH   3  23
HETATM   23  O3  UNL     1      30.968  46.779  47.870  1.00  0.00    -0.374 OA
ATOM     24  H3  UNL     1      30.623  46.495  47.031  1.00  0.00     0.212 HD
ENDBRANCH   3  23
BRANCH   2  25
HETATM   25  O2  UNL     1      30.346  48.861  50.622  1.00  0.00    -0.388 OA
ATOM     26  H2  UNL     1      30.525  48.041  51.065  1.00  0.00     0.210 HD
ENDBRANCH   2  25
BRANCH  12  27
HETATM   27  O5  UNL     1      31.311  49.233  46.601  1.00  0.00    -0.387 OA
ATOM     28  H5  UNL     1      31.646  49.789  45.908  1.00  0.00     0.210 HD
ENDBRANCH  12  27
BRANCH   1  29
HETATM   29  O1  UNL     1      31.849  50.730  48.693  1.00  0.00    -0.390 OA
ATOM     30  H1  UNL     1      31.803  51.436  48.059  1.00  0.00     0.210 HD
ENDBRANCH   1  29
BRANCH   9  31
HETATM   31  O4  UNL     1      26.561  50.413  42.211  1.00  0.00    -0.290 OA
BRANCH  31  32
HETATM   32  C16 UNL     1      27.081  50.728  41.005  1.00  0.00     0.505 C 
HETATM   33  F4  UNL     1      27.694  51.992  41.002  1.00  0.00    -0.184 F 
HETATM   34  F5  UNL     1      28.074  49.841  40.628  1.00  0.00    -0.184 F 
ENDBRANCH  31  32
ENDBRANCH   9  31
TORSDOF 8
ENDMDL
MODEL 2
REMARK VINA RESULT: -8.044353526      1.428      1.974
REMARK  8 active torsions:
REMARK  status: ('A' for Active; 'I' for Inactive)
REMARK    1  A    between atoms: O1_1  and  C1_3 
REMARK    2  A    between atoms: C2_4  and  O2_5 
REMARK    3  A    between atoms: C3_7  and  O3_8 
REMARK    4  A    between atoms: N1_10  and  C4_11 
REMARK    5  A    between atoms: C8_15  and  C9_16 
REMARK    6  A    between atoms: C15_25  and  O4_26 
REMARK    7  A    between atoms: O4_26  and  C16_27 
REMARK    8  A    between atoms: C19_32  and  O5_33 
ROOT
HETATM    1  C1  UNL     1      29.960  49.002  49.150  1.00  0.00     0.185 C 
HETATM    2  C2  UNL     1      30.261  47.564  49.494  1.00  0.00     0.198 C 
HETATM    3  C3  UNL     1      29.998  46.611  48.389  1.00  0.00     0.256 C 
HETATM    4  N1  UNL     1      28.847  47.095  47.505  1.00  0.00    -0.318 N 
HETATM    5  C11 UNL     1      28.798  48.422  47.104  1.00  0.00     0.056 C 
HETATM    6  C12 UNL     1      28.365  48.915  45.815  1.00  0.00    -0.011 A 
HETATM    7  C13 UNL     1      27.167  48.640  45.234  1.00  0.00     0.016 A 
HETATM    8  C14 UNL     1      26.788  49.224  44.014  1.00  0.00     0.038 A 
HETATM    9  C15 UNL     1      27.601  50.103  43.348  1.00  0.00     0.074 A 
HETATM   10  C17 UNL     1      28.828  50.375  43.946  1.00  0.00     0.038 A 
HETATM   11  C18 UNL     1      29.202  49.813  45.125  1.00  0.00     0.016 A 
HETATM   12  C19 UNL     1      29.990  49.215  47.638  1.00  0.00     0.200 C 
ENDROOT
BRANCH   4  13
HETATM   13  C4  UNL     1      27.963  46.017  47.320  1.00  0.00     0.038 A 
HETATM   14  C5  UNL     1      27.757  45.485  46.091  1.00  0.00     0.030 A 
HETATM   15  C6  UNL     1      26.755  44.572  45.851  1.00  0.00     0.003 A 
HETATM   16  C7  UNL     1      25.908  44.148  46.889  1.00  0.00     0.016 A 
HETATM   17  C8  UNL     1      26.120  44.682  48.126  1.00  0.00     0.050 A 
HETATM   18  C10 UNL     1      27.129  45.596  48.348  1.00  0.00     0.046 A 
BRANCH  17  19
HETATM   19  C9  UNL     1      25.220  44.325  49.262  1.00  0.00     0.417 C 
HETATM   20  F1  UNL     1      25.283  45.362  50.147  1.00  0.00    -0.166 F 
HETATM   21  F2  UNL     1      23.913  44.109  48.783  1.00  0.00    -0.166 F 
HETATM   22  F3  UNL     1      25.605  43.158  49.864  1.00  0.00    -0.166 F 
ENDBRANCH  17  19
ENDBRANCH   4  13
BRANCH   3  23
HETATM   23  O3  UNL     1      31.065  46.172  47.676  1.00  0.00    -0.374 OA
ATOM     24  H3  UNL     1      31.891  46.623  47.802  1.00  0.00     0.212 HD
ENDBRANCH   3  23
BRANCH   2  25
HETATM   25  O2  UNL     1      29.497  47.268  50.615  1.00  0.00    -0.388 OA
ATOM     26  H2  UNL     1      28.591  47.301  50.333  1.00  0.00     0.210 HD
ENDBRANCH   2  25
BRANCH  12  27
HETATM   27  O5  UNL     1      31.202  48.912  47.205  1.00  0.00    -0.387 OA
ATOM     28  H5  UNL     1      31.686  48.531  47.928  1.00  0.00     0.210 HD
ENDBRANCH  12  27
BRANCH   1  29
HETATM   29  O1  UNL     1      30.996  49.786  49.675  1.00  0.00    -0.390 OA
ATOM     30  H1  UNL     1      31.764  49.644  49.134  1.00  0.00     0.210 HD
ENDBRANCH   1  29
BRANCH   9  31
HETATM   31  O4  UNL     1      27.352  50.741  42.200  1.00  0.00    -0.290 OA
BRANCH  31  32
HETATM   32  C16 UNL     1      27.897  50.820  40.967  1.00  0.00     0.505 C 
HETATM   33  F4  UNL     1      28.259  52.134  40.627  1.00  0.00    -0.184 F 
HETATM   34  F5  UNL     1      29.067  50.087  40.877  1.00  0.00    -0.184 F 
ENDBRANCH  31  32
ENDBRANCH   9  31
TORSDOF 8
ENDMDL
MODEL 3
REMARK VINA RESULT: -7.903464994      2.127      6.367
REMARK  8 active torsions:
REMARK  status: ('A' for Active; 'I' for Inactive)
REMARK    1  A    between atoms: O1_1  and  C1_3 
REMARK    2  A    between atoms: C2_4  and  O2_5 
REMARK    3  A    between atoms: C3_7  and  O3_8 
REMARK    4  A    between atoms: N1_10  and  C4_11 
REMARK    5  A    between atoms: C8_15  and  C9_16 
REMARK    6  A    between atoms: C15_25  and  O4_26 
REMARK    7  A    between atoms: O4_26  and  C16_27 
REMARK    8  A    between atoms: C19_32  and  O5_33 
ROOT
HETATM    1  C1  UNL     1      32.183  49.324  48.286  1.00  0.00     0.185 C 
HETATM    2  C2  UNL     1      31.902  50.800  48.146  1.00  0.00     0.198 C 
HETATM    3  C3  UNL     1      30.462  51.146  48.172  1.00  0.00     0.256 C 
HETATM    4  N1  UNL     1      29.612  50.016  47.587  1.00  0.00    -0.318 N 
HETATM    5  C11 UNL     1      29.865  48.703  47.954  1.00  0.00     0.056 C 
HETATM    6  C12 UNL     1      28.880  47.667  48.176  1.00  0.00    -0.011 A 
HETATM    7  C13 UNL     1      27.926  47.290  47.283  1.00  0.00     0.016 A 
HETATM    8  C14 UNL     1      27.056  46.219  47.542  1.00  0.00     0.038 A 
HETATM    9  C15 UNL     1      27.123  45.496  48.705  1.00  0.00     0.074 A 
HETATM   10  C17 UNL     1      28.097  45.893  49.616  1.00  0.00     0.038 A 
HETATM   11  C18 UNL     1      28.941  46.928  49.373  1.00  0.00     0.016 A 
HETATM   12  C19 UNL     1      31.012  48.611  48.960  1.00  0.00     0.200 C 
ENDROOT
BRANCH   4  13
HETATM   13  C4  UNL     1      28.716  50.585  46.664  1.00  0.00     0.038 A 
HETATM   14  C5  UNL     1      27.586  51.208  47.080  1.00  0.00     0.030 A 
HETATM   15  C6  UNL     1      26.601  51.592  46.199  1.00  0.00     0.003 A 
HETATM   16  C7  UNL     1      26.739  51.356  44.820  1.00  0.00     0.016 A 
HETATM   17  C8  UNL     1      27.878  50.733  44.405  1.00  0.00     0.050 A 
HETATM   18  C10 UNL     1      28.856  50.355  45.301  1.00  0.00     0.046 A 
BRANCH  17  19
HETATM   19  C9  UNL     1      28.065  50.395  42.963  1.00  0.00     0.417 C 
HETATM   20  F1  UNL     1      29.385  50.083  42.806  1.00  0.00    -0.166 F 
HETATM   21  F2  UNL     1      27.218  49.325  42.612  1.00  0.00    -0.166 F 
HETATM   22  F3  UNL     1      27.720  51.440  42.150  1.00  0.00    -0.166 F 
ENDBRANCH  17  19
ENDBRANCH   4  13
BRANCH   3  23
HETATM   23  O3  UNL     1      29.958  51.640  49.332  1.00  0.00    -0.374 OA
ATOM     24  H3  UNL     1      30.567  52.055  49.931  1.00  0.00     0.212 HD
ENDBRANCH   3  23
BRANCH   2  25
HETATM   25  O2  UNL     1      32.500  51.194  46.957  1.00  0.00    -0.388 OA
ATOM     26  H2  UNL     1      33.371  50.815  46.961  1.00  0.00     0.210 HD
ENDBRANCH   2  25
BRANCH  12  27
HETATM   27  O5  UNL     1      30.849  49.137  50.162  1.00  0.00    -0.387 OA
ATOM     28  H5  UNL     1      31.700  49.180  50.582  1.00  0.00     0.210 HD
ENDBRANCH  12  27
BRANCH   1  29
HETATM   29  O1  UNL     1      33.275  49.184  49.154  1.00  0.00    -0.390 OA
ATOM     30  H1  UNL     1      34.023  49.601  48.742  1.00  0.00     0.210 HD
ENDBRANCH   1  29
BRANCH   9  31
HETATM   31  O4  UNL     1      26.374  44.448  49.062  1.00  0.00    -0.290 OA
BRANCH  31  32
HETATM   32  C16 UNL     1      26.346  43.119  48.823  1.00  0.00     0.505 C 
HETATM   33  F4  UNL     1      26.809  42.798  47.536  1.00  0.00    -0.184 F 
HETATM   34  F5  UNL     1      27.172  42.425  49.690  1.00  0.00    -0.184 F 
ENDBRANCH  31  32
ENDBRANCH   9  31
TORSDOF 8
ENDMDL
MODEL 4
REMARK VINA RESULT: -7.678553446      3.450      6.811
REMARK  8 active torsions:
REMARK  status: ('A' for Active; 'I' for Inactive)
REMARK    1  A    between atoms: O1_1  and  C1_3 
REMARK    2  A    between atoms: C2_4  and  O2_5 
REMARK    3  A    between atoms: C3_7  and  O3_8 
REMARK    4  A    between atoms: N1_10  and  C4_11 
REMARK    5  A    between atoms: C8_15  and  C9_16 
REMARK    6  A    between atoms: C15_25  and  O4_26 
REMARK    7  A    between atoms: O4_26  and  C16_27 
REMARK    8  A    between atoms: C19_32  and  O5_33 
ROOT
HETATM    1  C1  UNL     1      26.969  45.776  47.453  1.00  0.00     0.185 C 
HETATM    2  C2  UNL     1      26.239  45.686  46.135  1.00  0.00     0.198 C 
HETATM    3  C3  UNL     1      26.777  46.581  45.084  1.00  0.00     0.256 C 
HETATM    4  N1  UNL     1      27.367  47.854  45.692  1.00  0.00    -0.318 N 
HETATM    5  C11 UNL     1      28.186  47.770  46.808  1.00  0.00     0.056 C 
HETATM    6  C12 UNL     1      29.360  48.572  47.076  1.00  0.00    -0.011 A 
HETATM    7  C13 UNL     1      29.392  49.931  47.089  1.00  0.00     0.016 A 
HETATM    8  C14 UNL     1      30.555  50.637  47.439  1.00  0.00     0.038 A 
HETATM    9  C15 UNL     1      31.715  49.995  47.787  1.00  0.00     0.074 A 
HETATM   10  C17 UNL     1      31.675  48.605  47.765  1.00  0.00     0.038 A 
HETATM   11  C18 UNL     1      30.555  47.915  47.427  1.00  0.00     0.016 A 
HETATM   12  C19 UNL     1      28.382  46.321  47.253  1.00  0.00     0.200 C 
ENDROOT
BRANCH   4  13
HETATM   13  C4  UNL     1      26.858  48.951  44.972  1.00  0.00     0.038 A 
HETATM   14  C5  UNL     1      25.633  49.461  45.248  1.00  0.00     0.030 A 
HETATM   15  C6  UNL     1      25.032  50.394  44.434  1.00  0.00     0.003 A 
HETATM   16  C7  UNL     1      25.682  50.862  43.278  1.00  0.00     0.016 A 
HETATM   17  C8  UNL     1      26.915  50.349  43.006  1.00  0.00     0.050 A 
HETATM   18  C10 UNL     1      27.502  49.415  43.833  1.00  0.00     0.046 A 
BRANCH  17  19
HETATM   19  C9  UNL     1      27.638  50.754  41.763  1.00  0.00     0.417 C 
HETATM   20  F1  UNL     1      27.477  52.104  41.643  1.00  0.00    -0.166 F 
HETATM   21  F2  UNL     1      28.993  50.384  41.860  1.00  0.00    -0.166 F 
HETATM   22  F3  UNL     1      27.144  50.113  40.660  1.00  0.00    -0.166 F 
ENDBRANCH  17  19
ENDBRANCH   4  13
BRANCH   3  23
HETATM   23  O3  UNL     1      27.578  46.025  44.140  1.00  0.00    -0.374 OA
ATOM     24  H3  UNL     1      28.102  46.613  43.610  1.00  0.00     0.212 HD
ENDBRANCH   3  23
BRANCH   2  25
HETATM   25  O2  UNL     1      24.908  45.968  46.413  1.00  0.00    -0.388 OA
ATOM     26  H2  UNL     1      24.397  45.332  45.927  1.00  0.00     0.210 HD
ENDBRANCH   2  25
BRANCH  12  27
HETATM   27  O5  UNL     1      29.032  45.491  46.454  1.00  0.00    -0.387 OA
ATOM     28  H5  UNL     1      29.950  45.734  46.462  1.00  0.00     0.210 HD
ENDBRANCH  12  27
BRANCH   1  29
HETATM   29  O1  UNL     1      27.121  44.471  47.940  1.00  0.00    -0.390 OA
ATOM     30  H1  UNL     1      27.332  43.913  47.202  1.00  0.00     0.210 HD
ENDBRANCH   1  29
BRANCH   9  31
HETATM   31  O4  UNL     1      32.875  50.546  48.159  1.00  0.00    -0.290 OA
BRANCH  31  32
HETATM   32  C16 UNL     1      33.368  51.195  49.236  1.00  0.00     0.505 C 
HETATM   33  F4  UNL     1      34.772  51.195  49.262  1.00  0.00    -0.184 F 
HETATM   34  F5  UNL     1      33.004  52.530  49.239  1.00  0.00    -0.184 F 
ENDBRANCH  31  32
ENDBRANCH   9  31
TORSDOF 8
ENDMDL
MODEL 5
REMARK VINA RESULT: -7.619859974      5.165      7.410
REMARK  8 active torsions:
REMARK  status: ('A' for Active; 'I' for Inactive)
REMARK    1  A    between atoms: O1_1  and  C1_3 
REMARK    2  A    between atoms: C2_4  and  O2_5 
REMARK    3  A    between atoms: C3_7  and  O3_8 
REMARK    4  A    between atoms: N1_10  and  C4_11 
REMARK    5  A    between atoms: C8_15  and  C9_16 
REMARK    6  A    between atoms: C15_25  and  O4_26 
REMARK    7  A    between atoms: O4_26  and  C16_27 
REMARK    8  A    between atoms: C19_32  and  O5_33 
ROOT
HETATM    1  C1  UNL     1      34.642  51.403  46.866  1.00  0.00     0.185 C 
HETATM    2  C2  UNL     1      35.045  51.744  48.279  1.00  0.00     0.198 C 
HETATM    3  C3  UNL     1      33.904  52.049  49.175  1.00  0.00     0.256 C 
HETATM    4  N1  UNL     1      32.747  52.681  48.400  1.00  0.00    -0.318 N 
HETATM    5  C11 UNL     1      32.356  52.141  47.183  1.00  0.00     0.056 C 
HETATM    6  C12 UNL     1      31.001  52.025  46.690  1.00  0.00    -0.011 A 
HETATM    7  C13 UNL     1      30.119  53.052  46.578  1.00  0.00     0.016 A 
HETATM    8  C14 UNL     1      28.846  52.873  46.012  1.00  0.00     0.038 A 
HETATM    9  C15 UNL     1      28.428  51.655  45.542  1.00  0.00     0.074 A 
HETATM   10  C17 UNL     1      29.335  50.607  45.666  1.00  0.00     0.038 A 
HETATM   11  C18 UNL     1      30.567  50.773  46.213  1.00  0.00     0.016 A 
HETATM   12  C19 UNL     1      33.195  50.918  46.816  1.00  0.00     0.200 C 
ENDROOT
BRANCH   4  13
HETATM   13  C4  UNL     1      32.325  53.821  49.109  1.00  0.00     0.038 A 
HETATM   14  C5  UNL     1      33.148  54.885  49.276  1.00  0.00     0.030 A 
HETATM   15  C6  UNL     1      32.836  55.919  50.128  1.00  0.00     0.003 A 
HETATM   16  C7  UNL     1      31.635  55.910  50.858  1.00  0.00     0.016 A 
HETATM   17  C8  UNL     1      30.808  54.840  50.685  1.00  0.00     0.050 A 
HETATM   18  C10 UNL     1      31.136  53.812  49.826  1.00  0.00     0.046 A 
BRANCH  17  19
HETATM   19  C9  UNL     1      29.544  54.733  51.473  1.00  0.00     0.417 C 
HETATM   20  F1  UNL     1      29.069  56.004  51.617  1.00  0.00    -0.166 F 
HETATM   21  F2  UNL     1      28.634  53.896  50.799  1.00  0.00    -0.166 F 
HETATM   22  F3  UNL     1      29.758  54.160  52.697  1.00  0.00    -0.166 F 
ENDBRANCH  17  19
ENDBRANCH   4  13
BRANCH   3  23
HETATM   23  O3  UNL     1      33.500  51.073  50.026  1.00  0.00    -0.374 OA
ATOM     24  H3  UNL     1      33.110  50.294  49.646  1.00  0.00     0.212 HD
ENDBRANCH   3  23
BRANCH   2  25
HETATM   25  O2  UNL     1      35.919  52.819  48.182  1.00  0.00    -0.388 OA
ATOM     26  H2  UNL     1      35.400  53.596  48.348  1.00  0.00     0.210 HD
ENDBRANCH   2  25
BRANCH  12  27
HETATM   27  O5  UNL     1      33.101  49.832  47.566  1.00  0.00    -0.387 OA
ATOM     28  H5  UNL     1      33.449  50.037  48.426  1.00  0.00     0.210 HD
ENDBRANCH  12  27
BRANCH   1  29
HETATM   29  O1  UNL     1      35.431  50.320  46.453  1.00  0.00    -0.390 OA
ATOM     30  H1  UNL     1      35.654  50.461  45.541  1.00  0.00     0.210 HD
ENDBRANCH   1  29
BRANCH   9  31
HETATM   31  O4  UNL     1      27.259  51.357  44.965  1.00  0.00    -0.290 OA
BRANCH  31  32
HETATM   32  C16 UNL     1      26.825  50.932  43.759  1.00  0.00     0.505 C 
HETATM   33  F4  UNL     1      27.720  51.254  42.725  1.00  0.00    -0.184 F 
HETATM   34  F5  UNL     1      26.701  49.554  43.716  1.00  0.00    -0.184 F 
ENDBRANCH  31  32
ENDBRANCH   9  31
TORSDOF 8
ENDMDL
