MODEL 1
REMARK VINA RESULT: -3.879729492      0.000      0.000
REMARK  1 active torsions:
REMARK  status: ('A' for Active; 'I' for Inactive)
REMARK    1  A    between atoms: C3_3  and  N2_7 
ROOT
HETATM    1  C1  UNL     1      23.743  16.574  58.136  1.00  0.00     0.106 C 
HETATM    2  C2  UNL     1      23.062  15.609  58.455  1.00  0.00    -0.106 C 
HETATM    3  C3  UNL     1      22.267  14.475  58.804  1.00  0.00     0.242 C 
HETATM    4  N1  UNL     1      21.017  14.630  59.034  1.00  0.00    -0.373 N 
ATOM      5  H11 UNL     1      20.449  13.820  59.282  1.00  0.00     0.158 HD
ATOM      6  H12 UNL     1      20.567  15.543  58.976  1.00  0.00     0.158 HD
ENDROOT
BRANCH   3   7
HETATM    7  N2  UNL     1      22.892  13.207  58.884  1.00  0.00    -0.027 N 
HETATM    8  C4  UNL     1      24.237  13.290  59.396  1.00  0.00     0.281 C 
HETATM    9  C5  UNL     1      22.907  12.644  57.552  1.00  0.00     0.281 C 
HETATM   10  C6  UNL     1      22.117  12.358  59.792  1.00  0.00     0.281 C 
ENDBRANCH   3   7
TORSDOF 1
ENDMDL
MODEL 2
REMARK VINA RESULT: -3.877269430      0.086      1.456
REMARK  1 active torsions:
REMARK  status: ('A' for Active; 'I' for Inactive)
REMARK    1  A    between atoms: C3_3  and  N2_7 
ROOT
HETATM    1  C1  UNL     1      23.696  16.640  58.123  1.00  0.00     0.106 C 
HETATM    2  C2  UNL     1      23.035  15.662  58.443  1.00  0.00    -0.106 C 
HETATM    3  C3  UNL     1      22.262  14.513  58.792  1.00  0.00     0.242 C 
HETATM    4  N1  UNL     1      21.019  14.651  59.066  1.00  0.00    -0.373 N 
ATOM      5  H11 UNL     1      20.466  13.831  59.315  1.00  0.00     0.158 HD
ATOM      6  H12 UNL     1      20.559  15.562  59.043  1.00  0.00     0.158 HD
ENDROOT
BRANCH   3   7
HETATM    7  N2  UNL     1      22.899  13.250  58.824  1.00  0.00    -0.027 N 
HETATM    8  C4  UNL     1      22.964  12.635  57.521  1.00  0.00     0.281 C 
HETATM    9  C5  UNL     1      22.149  12.406  59.728  1.00  0.00     0.281 C 
HETATM   10  C6  UNL     1      24.271  13.427  59.306  1.00  0.00     0.281 C 
ENDBRANCH   3   7
TORSDOF 1
ENDMDL
MODEL 3
REMARK VINA RESULT: -3.826667979      0.077      1.443
REMARK  1 active torsions:
REMARK  status: ('A' for Active; 'I' for Inactive)
REMARK    1  A    between atoms: C3_3  and  N2_7 
ROOT
HETATM    1  C1  UNL     1      23.732  16.615  58.126  1.00  0.00     0.106 C 
HETATM    2  C2  UNL     1      23.047  15.655  58.450  1.00  0.00    -0.106 C 
HETATM    3  C3  UNL     1      22.246  14.527  58.805  1.00  0.00     0.242 C 
HETATM    4  N1  UNL     1      20.999  14.690  59.044  1.00  0.00    -0.373 N 
ATOM      5  H11 UNL     1      20.427  13.885  59.297  1.00  0.00     0.158 HD
ATOM      6  H12 UNL     1      20.555  15.607  58.988  1.00  0.00     0.158 HD
ENDROOT
BRANCH   3   7
HETATM    7  N2  UNL     1      22.862  13.254  58.881  1.00  0.00    -0.027 N 
HETATM    8  C4  UNL     1      22.160  12.357  59.764  1.00  0.00     0.281 C 
HETATM    9  C5  UNL     1      24.214  13.453  59.357  1.00  0.00     0.281 C 
HETATM   10  C6  UNL     1      22.871  12.654  57.545  1.00  0.00     0.281 C 
ENDBRANCH   3   7
TORSDOF 1
ENDMDL
MODEL 4
REMARK VINA RESULT: -3.722835554      1.334      2.407
REMARK  1 active torsions:
REMARK  status: ('A' for Active; 'I' for Inactive)
REMARK    1  A    between atoms: C3_3  and  N2_7 
ROOT
HETATM    1  C1  UNL     1      23.778  16.691  58.134  1.00  0.00     0.106 C 
HETATM    2  C2  UNL     1      23.990  15.491  58.033  1.00  0.00    -0.106 C 
HETATM    3  C3  UNL     1      24.242  14.088  57.941  1.00  0.00     0.242 C 
HETATM    4  N1  UNL     1      25.375  13.680  57.506  1.00  0.00    -0.373 N 
ATOM      5  H11 UNL     1      25.555  12.678  57.440  1.00  0.00     0.158 HD
ATOM      6  H12 UNL     1      26.109  14.328  57.221  1.00  0.00     0.158 HD
ENDROOT
BRANCH   3   7
HETATM    7  N2  UNL     1      23.223  13.188  58.337  1.00  0.00    -0.027 N 
HETATM    8  C4  UNL     1      21.973  13.856  58.597  1.00  0.00     0.281 C 
HETATM    9  C5  UNL     1      23.678  12.515  59.533  1.00  0.00     0.281 C 
HETATM   10  C6  UNL     1      23.002  12.224  57.257  1.00  0.00     0.281 C 
ENDBRANCH   3   7
TORSDOF 1
ENDMDL
MODEL 5
REMARK VINA RESULT: -3.655623214      1.339      2.062
REMARK  1 active torsions:
REMARK  status: ('A' for Active; 'I' for Inactive)
REMARK    1  A    between atoms: C3_3  and  N2_7 
ROOT
HETATM    1  C1  UNL     1      23.791  16.678  58.143  1.00  0.00     0.106 C 
HETATM    2  C2  UNL     1      24.001  15.477  58.042  1.00  0.00    -0.106 C 
HETATM    3  C3  UNL     1      24.251  14.074  57.949  1.00  0.00     0.242 C 
HETATM    4  N1  UNL     1      25.384  13.664  57.517  1.00  0.00    -0.373 N 
ATOM      5  H11 UNL     1      25.563  12.662  57.451  1.00  0.00     0.158 HD
ATOM      6  H12 UNL     1      26.121  14.312  57.237  1.00  0.00     0.158 HD
ENDROOT
BRANCH   3   7
HETATM    7  N2  UNL     1      23.229  13.176  58.339  1.00  0.00    -0.027 N 
HETATM    8  C4  UNL     1      23.559  12.460  59.546  1.00  0.00     0.281 C 
HETATM    9  C5  UNL     1      23.032  12.241  57.253  1.00  0.00     0.281 C 
HETATM   10  C6  UNL     1      22.002  13.937  58.589  1.00  0.00     0.281 C 
ENDBRANCH   3   7
TORSDOF 1
ENDMDL
