MODEL 1
REMARK VINA RESULT: -4.236106730      0.000      0.000
REMARK  1 active torsions:
REMARK  status: ('A' for Active; 'I' for Inactive)
REMARK    1  A    between atoms: N1_2  and  C4_5 
ROOT
HETATM    1  C4  UNL     1      94.554  78.274 -16.255  1.00  0.00     0.194 C 
HETATM    2  C5  UNL     1      93.261  78.560 -15.466  1.00  0.00     0.039 C 
HETATM    3  C6  UNL     1      94.277  79.392 -14.668  1.00  0.00    -0.006 A 
HETATM    4  C7  UNL     1      94.899  80.607 -15.050  1.00  0.00     0.012 A 
HETATM    5  C8  UNL     1      94.604  79.790 -16.172  1.00  0.00     0.021 A 
ENDROOT
BRANCH   1   6
HETATM    6  N1  UNL     1      94.387  77.733 -17.542  1.00  0.00    -0.074 N 
HETATM    7  C1  UNL     1      95.529  77.696 -18.383  1.00  0.00     0.272 C 
HETATM    8  C2  UNL     1      93.831  76.370 -17.497  1.00  0.00     0.272 C 
HETATM    9  C3  UNL     1      93.352  78.532 -18.222  1.00  0.00     0.272 C 
ENDBRANCH   1   6
TORSDOF 1
ENDMDL
MODEL 2
REMARK VINA RESULT: -4.231058095      0.155      1.345
REMARK  1 active torsions:
REMARK  status: ('A' for Active; 'I' for Inactive)
REMARK    1  A    between atoms: N1_2  and  C4_5 
ROOT
HETATM    1  C4  UNL     1      94.469  78.281 -16.135  1.00  0.00     0.194 C 
HETATM    2  C5  UNL     1      93.224  78.617 -15.289  1.00  0.00     0.039 C 
HETATM    3  C6  UNL     1      94.293  79.466 -14.581  1.00  0.00    -0.006 A 
HETATM    4  C7  UNL     1      94.907  80.655 -15.045  1.00  0.00     0.012 A 
HETATM    5  C8  UNL     1      94.542  79.799 -16.116  1.00  0.00     0.021 A 
ENDROOT
BRANCH   1   6
HETATM    6  N1  UNL     1      94.225  77.692 -17.389  1.00  0.00    -0.074 N 
HETATM    7  C1  UNL     1      93.791  76.341 -17.397  1.00  0.00     0.272 C 
HETATM    8  C2  UNL     1      93.258  78.469 -18.181  1.00  0.00     0.272 C 
HETATM    9  C3  UNL     1      95.480  77.767 -18.157  1.00  0.00     0.272 C 
ENDBRANCH   1   6
TORSDOF 1
ENDMDL
MODEL 3
REMARK VINA RESULT: -4.159697857      0.094      1.351
REMARK  1 active torsions:
REMARK  status: ('A' for Active; 'I' for Inactive)
REMARK    1  A    between atoms: N1_2  and  C4_5 
ROOT
HETATM    1  C4  UNL     1      94.483  78.291 -16.265  1.00  0.00     0.194 C 
HETATM    2  C5  UNL     1      93.235  78.563 -15.403  1.00  0.00     0.039 C 
HETATM    3  C6  UNL     1      94.296  79.368 -14.636  1.00  0.00    -0.006 A 
HETATM    4  C7  UNL     1      94.905  80.588 -15.017  1.00  0.00     0.012 A 
HETATM    5  C8  UNL     1      94.548  79.804 -16.144  1.00  0.00     0.021 A 
ENDROOT
BRANCH   1   6
HETATM    6  N1  UNL     1      94.247  77.786 -17.556  1.00  0.00    -0.074 N 
HETATM    7  C1  UNL     1      93.278  78.456 -18.347  1.00  0.00     0.272 C 
HETATM    8  C2  UNL     1      95.485  77.709 -18.349  1.00  0.00     0.272 C 
HETATM    9  C3  UNL     1      93.816  76.385 -17.405  1.00  0.00     0.272 C 
ENDBRANCH   1   6
TORSDOF 1
ENDMDL
MODEL 4
REMARK VINA RESULT: -4.097494117      1.043      1.808
REMARK  1 active torsions:
REMARK  status: ('A' for Active; 'I' for Inactive)
REMARK    1  A    between atoms: N1_2  and  C4_5 
ROOT
HETATM    1  C4  UNL     1      93.942  79.008 -16.716  1.00  0.00     0.194 C 
HETATM    2  C5  UNL     1      95.447  78.918 -16.395  1.00  0.00     0.039 C 
HETATM    3  C6  UNL     1      95.039  80.125 -15.534  1.00  0.00    -0.006 A 
HETATM    4  C7  UNL     1      94.281  80.123 -14.338  1.00  0.00     0.012 A 
HETATM    5  C8  UNL     1      93.910  79.058 -15.197  1.00  0.00     0.021 A 
ENDROOT
BRANCH   1   6
HETATM    6  N1  UNL     1      93.365  77.870 -17.307  1.00  0.00    -0.074 N 
HETATM    7  C1  UNL     1      92.476  78.084 -18.392  1.00  0.00     0.272 C 
HETATM    8  C2  UNL     1      94.386  76.910 -17.758  1.00  0.00     0.272 C 
HETATM    9  C3  UNL     1      92.625  77.156 -16.251  1.00  0.00     0.272 C 
ENDBRANCH   1   6
TORSDOF 1
ENDMDL
MODEL 5
REMARK VINA RESULT: -4.051717114      1.092      1.607
REMARK  1 active torsions:
REMARK  status: ('A' for Active; 'I' for Inactive)
REMARK    1  A    between atoms: N1_2  and  C4_5 
ROOT
HETATM    1  C4  UNL     1      93.739  78.732 -16.910  1.00  0.00     0.194 C 
HETATM    2  C5  UNL     1      94.913  78.353 -15.986  1.00  0.00     0.039 C 
HETATM    3  C6  UNL     1      94.034  79.164 -15.019  1.00  0.00    -0.006 A 
HETATM    4  C7  UNL     1      92.803  78.779 -14.433  1.00  0.00     0.012 A 
HETATM    5  C8  UNL     1      92.987  78.186 -15.708  1.00  0.00     0.021 A 
ENDROOT
BRANCH   1   6
HETATM    6  N1  UNL     1      93.622  77.990 -18.099  1.00  0.00    -0.074 N 
HETATM    7  C1  UNL     1      94.780  77.306 -18.553  1.00  0.00     0.272 C 
HETATM    8  C2  UNL     1      92.530  77.006 -18.025  1.00  0.00     0.272 C 
HETATM    9  C3  UNL     1      93.207  78.926 -19.159  1.00  0.00     0.272 C 
ENDBRANCH   1   6
TORSDOF 1
ENDMDL
