MODEL 1
REMARK VINA RESULT: -4.672840655      0.000      0.000
REMARK  1 active torsions:
REMARK  status: ('A' for Active; 'I' for Inactive)
REMARK    1  A    between atoms: C3_4  and  C4_5 
ROOT
HETATM    1  C1  UNL     1      44.696  22.539  52.107  1.00  0.00     0.273 C 
HETATM    2  N1  UNL     1      45.055  22.075  50.782  1.00  0.00    -0.061 N 
HETATM    3  C2  UNL     1      46.105  21.116  50.852  1.00  0.00     0.255 C 
HETATM    4  C3  UNL     1      45.022  20.206  51.443  1.00  0.00     0.145 C 
HETATM    5  C5  UNL     1      44.320  20.817  50.266  1.00  0.00     0.232 A 
HETATM    6  C6  UNL     1      43.954  22.122  49.933  1.00  0.00     0.272 A 
ENDROOT
BRANCH   4   7
HETATM    7  C4  UNL     1      45.363  18.768  51.312  1.00  0.00     0.180 C 
HETATM    8  O1  UNL     1      45.816  18.374  50.208  1.00  0.00    -0.648 OA
HETATM    9  O2  UNL     1      45.211  17.861  52.320  1.00  0.00    -0.648 OA
ENDBRANCH   4   7
TORSDOF 1
ENDMDL
MODEL 2
REMARK VINA RESULT: -4.530790805      0.139      1.068
REMARK  1 active torsions:
REMARK  status: ('A' for Active; 'I' for Inactive)
REMARK    1  A    between atoms: C3_4  and  C4_5 
ROOT
HETATM    1  C1  UNL     1      44.668  22.561  52.132  1.00  0.00     0.273 C 
HETATM    2  N1  UNL     1      45.021  22.151  50.788  1.00  0.00    -0.061 N 
HETATM    3  C2  UNL     1      46.080  21.198  50.814  1.00  0.00     0.255 C 
HETATM    4  C3  UNL     1      45.008  20.258  51.377  1.00  0.00     0.145 C 
HETATM    5  C5  UNL     1      44.294  20.907  50.229  1.00  0.00     0.232 A 
HETATM    6  C6  UNL     1      43.914  22.221  49.949  1.00  0.00     0.272 A 
ENDROOT
BRANCH   4   7
HETATM    7  C4  UNL     1      45.359  18.829  51.189  1.00  0.00     0.180 C 
HETATM    8  O1  UNL     1      45.241  18.063  52.177  1.00  0.00    -0.648 OA
HETATM    9  O2  UNL     1      45.799  18.308  50.006  1.00  0.00    -0.648 OA
ENDBRANCH   4   7
TORSDOF 1
ENDMDL
MODEL 3
REMARK VINA RESULT: -4.509174599      0.932      1.294
REMARK  1 active torsions:
REMARK  status: ('A' for Active; 'I' for Inactive)
REMARK    1  A    between atoms: C3_4  and  C4_5 
ROOT
HETATM    1  C1  UNL     1      44.341  22.551  51.809  1.00  0.00     0.273 C 
HETATM    2  N1  UNL     1      45.721  22.109  51.827  1.00  0.00    -0.061 N 
HETATM    3  C2  UNL     1      45.851  20.895  52.560  1.00  0.00     0.255 C 
HETATM    4  C3  UNL     1      45.125  20.276  51.361  1.00  0.00     0.145 C 
HETATM    5  C5  UNL     1      46.153  21.144  50.699  1.00  0.00     0.232 A 
HETATM    6  C6  UNL     1      46.381  22.521  50.673  1.00  0.00     0.272 A 
ENDROOT
BRANCH   4   7
HETATM    7  C4  UNL     1      45.356  18.814  51.257  1.00  0.00     0.180 C 
HETATM    8  O1  UNL     1      45.787  18.367  50.165  1.00  0.00    -0.648 OA
HETATM    9  O2  UNL     1      45.127  17.939  52.278  1.00  0.00    -0.648 OA
ENDBRANCH   4   7
TORSDOF 1
ENDMDL
MODEL 4
REMARK VINA RESULT: -4.393417648      1.126      1.392
REMARK  1 active torsions:
REMARK  status: ('A' for Active; 'I' for Inactive)
REMARK    1  A    between atoms: C3_4  and  C4_5 
ROOT
HETATM    1  C1  UNL     1      43.593  22.567  50.264  1.00  0.00     0.273 C 
HETATM    2  N1  UNL     1      44.967  22.186  50.522  1.00  0.00    -0.061 N 
HETATM    3  C2  UNL     1      45.029  21.173  51.521  1.00  0.00     0.255 C 
HETATM    4  C3  UNL     1      44.441  20.277  50.425  1.00  0.00     0.145 C 
HETATM    5  C5  UNL     1      45.526  21.007  49.693  1.00  0.00     0.232 A 
HETATM    6  C6  UNL     1      45.742  22.350  49.379  1.00  0.00     0.272 A 
ENDROOT
BRANCH   4   7
HETATM    7  C4  UNL     1      44.694  18.837  50.680  1.00  0.00     0.180 C 
HETATM    8  O1  UNL     1      45.843  18.394  50.432  1.00  0.00    -0.648 OA
HETATM    9  O2  UNL     1      43.752  17.978  51.167  1.00  0.00    -0.648 OA
ENDBRANCH   4   7
TORSDOF 1
ENDMDL
MODEL 5
REMARK VINA RESULT: -4.379564577      1.425      1.736
REMARK  1 active torsions:
REMARK  status: ('A' for Active; 'I' for Inactive)
REMARK    1  A    between atoms: C3_4  and  C4_5 
ROOT
HETATM    1  C1  UNL     1      44.777  21.775  50.994  1.00  0.00     0.273 C 
HETATM    2  N1  UNL     1      45.734  20.808  50.494  1.00  0.00    -0.061 N 
HETATM    3  C2  UNL     1      46.462  20.220  51.568  1.00  0.00     0.255 C 
HETATM    4  C3  UNL     1      45.133  19.520  51.877  1.00  0.00     0.145 C 
HETATM    5  C5  UNL     1      45.250  19.343  50.393  1.00  0.00     0.232 A 
HETATM    6  C6  UNL     1      45.275  20.230  49.315  1.00  0.00     0.272 A 
ENDROOT
BRANCH   4   7
HETATM    7  C4  UNL     1      45.320  18.291  52.687  1.00  0.00     0.180 C 
HETATM    8  O1  UNL     1      44.690  17.261  52.339  1.00  0.00    -0.648 OA
HETATM    9  O2  UNL     1      46.135  18.223  53.779  1.00  0.00    -0.648 OA
ENDBRANCH   4   7
TORSDOF 1
ENDMDL
