MODEL 1
REMARK VINA RESULT: -8.261029941      0.000      0.000
REMARK  3 active torsions:
REMARK  status: ('A' for Active; 'I' for Inactive)
REMARK       I    between atoms: C1_2  and  N1_3 
REMARK    1  A    between atoms: C1_2  and  C15_18 
REMARK    2  A    between atoms: N1_3  and  C2_5 
REMARK    3  A    between atoms: C2_5  and  C3_6 
ROOT
HETATM    1  C2  UNL     1       5.843  25.552 118.647  1.00  0.00     0.037 C 
HETATM    2  C9  UNL     1       5.108  25.990 119.880  1.00  0.00     0.031 C 
HETATM    3  C10 UNL     1       5.975  26.750 120.852  1.00  0.00     0.002 C 
HETATM    4  C11 UNL     1       5.785  28.256 120.666  1.00  0.00     0.000 C 
HETATM    5  C12 UNL     1       6.494  28.790 119.477  1.00  0.00     0.000 C 
HETATM    6  C13 UNL     1       5.945  28.067 118.243  1.00  0.00     0.002 C 
HETATM    7  C14 UNL     1       6.561  26.741 118.061  1.00  0.00     0.031 C 
ENDROOT
BRANCH   1   8
HETATM    8  N1  UNL     1       6.904  24.662 119.118  1.00  0.00    -0.347 N 
HETATM    9  C1  UNL     1       7.841  23.963 118.355  1.00  0.00     0.257 C 
HETATM   10  O1  UNL     1       7.848  24.032 117.062  1.00  0.00    -0.267 OA
ATOM     11  H1  UNL     1       6.967  24.536 120.129  1.00  0.00     0.163 HD
BRANCH   9  12
HETATM   12  C15 UNL     1       8.901  23.089 118.855  1.00  0.00     0.092 A 
HETATM   13  C16 UNL     1       8.801  21.742 118.860  1.00  0.00     0.054 A 
HETATM   14 CL1  UNL     1       7.346  20.834 118.416  1.00  0.00    -0.083 Cl
HETATM   15  C17 UNL     1       9.895  20.985 119.293  1.00  0.00     0.042 A 
HETATM   16  C18 UNL     1      11.036  21.627 119.704  1.00  0.00     0.091 A 
HETATM   17  N2  UNL     1      11.144  22.971 119.704  1.00  0.00    -0.356 N 
HETATM   18  C19 UNL     1      10.098  23.692 119.288  1.00  0.00     0.120 A 
ATOM     19  H2  UNL     1      12.002  23.427 120.015  1.00  0.00     0.166 HD
HETATM   20 CL2  UNL     1      10.228  25.453 119.285  1.00  0.00    -0.063 Cl
ENDBRANCH   9  12
ENDBRANCH   1   8
BRANCH   1  21
HETATM   21  C3  UNL     1       4.960  24.848 117.630  1.00  0.00     0.014 C 
HETATM   22  C4  UNL     1       5.198  25.294 116.223  1.00  0.00     0.007 C 
HETATM   23  C5  UNL     1       4.062  25.983 115.521  1.00  0.00     0.000 C 
HETATM   24  C6  UNL     1       2.733  25.299 115.794  1.00  0.00     0.000 C 
HETATM   25  C7  UNL     1       2.549  25.611 117.287  1.00  0.00     0.000 C 
HETATM   26  C8  UNL     1       3.527  24.710 118.006  1.00  0.00     0.007 C 
ENDBRANCH   1  21
TORSDOF 3
ENDMDL
MODEL 2
REMARK VINA RESULT: -8.159686195      0.593      1.867
REMARK  3 active torsions:
REMARK  status: ('A' for Active; 'I' for Inactive)
REMARK       I    between atoms: C1_2  and  N1_3 
REMARK    1  A    between atoms: C1_2  and  C15_18 
REMARK    2  A    between atoms: N1_3  and  C2_5 
REMARK    3  A    between atoms: C2_5  and  C3_6 
ROOT
HETATM    1  C2  UNL     1       5.913  25.563 118.619  1.00  0.00     0.037 C 
HETATM    2  C9  UNL     1       5.188  25.932 119.880  1.00  0.00     0.031 C 
HETATM    3  C10 UNL     1       6.042  26.707 120.853  1.00  0.00     0.002 C 
HETATM    4  C11 UNL     1       5.777  28.208 120.711  1.00  0.00     0.000 C 
HETATM    5  C12 UNL     1       6.431  28.805 119.522  1.00  0.00     0.000 C 
HETATM    6  C13 UNL     1       5.887  28.089 118.282  1.00  0.00     0.002 C 
HETATM    7  C14 UNL     1       6.560  26.799 118.050  1.00  0.00     0.031 C 
ENDROOT
BRANCH   1   8
HETATM    8  N1  UNL     1       7.026  24.712 119.042  1.00  0.00    -0.347 N 
HETATM    9  C1  UNL     1       7.927  24.014 118.237  1.00  0.00     0.257 C 
HETATM   10  O1  UNL     1       7.846  24.046 116.945  1.00  0.00    -0.267 OA
ATOM     11  H1  UNL     1       7.158  24.616 120.049  1.00  0.00     0.163 HD
BRANCH   9  12
HETATM   12  C15 UNL     1       9.041  23.180 118.688  1.00  0.00     0.092 A 
HETATM   13  C16 UNL     1      10.239  23.687 119.048  1.00  0.00     0.054 A 
HETATM   14 CL1  UNL     1      10.706  25.389 118.891  1.00  0.00    -0.083 Cl
HETATM   15  C17 UNL     1      11.222  22.818 119.534  1.00  0.00     0.042 A 
HETATM   16  C18 UNL     1      10.946  21.477 119.629  1.00  0.00     0.091 A 
HETATM   17  N2  UNL     1       9.752  20.962 119.270  1.00  0.00    -0.356 N 
HETATM   18  C19 UNL     1       8.815  21.795 118.808  1.00  0.00     0.120 A 
ATOM     19  H2  UNL     1       9.570  19.961 119.349  1.00  0.00     0.166 HD
HETATM   20 CL2  UNL     1       7.248  21.131 118.334  1.00  0.00    -0.063 Cl
ENDBRANCH   9  12
ENDBRANCH   1   8
BRANCH   1  21
HETATM   21  C3  UNL     1       5.040  24.844 117.604  1.00  0.00     0.014 C 
HETATM   22  C4  UNL     1       5.252  25.309 116.199  1.00  0.00     0.007 C 
HETATM   23  C5  UNL     1       4.092  25.974 115.514  1.00  0.00     0.000 C 
HETATM   24  C6  UNL     1       2.784  25.251 115.794  1.00  0.00     0.000 C 
HETATM   25  C7  UNL     1       2.605  25.545 117.291  1.00  0.00     0.000 C 
HETATM   26  C8  UNL     1       3.614  24.664 117.992  1.00  0.00     0.007 C 
ENDBRANCH   1  21
TORSDOF 3
ENDMDL
MODEL 3
REMARK VINA RESULT: -7.859142037      2.322      4.464
REMARK  3 active torsions:
REMARK  status: ('A' for Active; 'I' for Inactive)
REMARK       I    between atoms: C1_2  and  N1_3 
REMARK    1  A    between atoms: C1_2  and  C15_18 
REMARK    2  A    between atoms: N1_3  and  C2_5 
REMARK    3  A    between atoms: C2_5  and  C3_6 
ROOT
HETATM    1  C2  UNL     1       3.438  25.579 116.859  1.00  0.00     0.037 C 
HETATM    2  C9  UNL     1       4.072  26.267 115.684  1.00  0.00     0.031 C 
HETATM    3  C10 UNL     1       4.906  25.341 114.833  1.00  0.00     0.002 C 
HETATM    4  C11 UNL     1       4.096  24.858 113.628  1.00  0.00     0.000 C 
HETATM    5  C12 UNL     1       3.114  23.801 113.972  1.00  0.00     0.000 C 
HETATM    6  C13 UNL     1       2.151  24.381 115.014  1.00  0.00     0.002 C 
HETATM    7  C14 UNL     1       2.721  24.347 116.372  1.00  0.00     0.031 C 
ENDROOT
BRANCH   1   8
HETATM    8  N1  UNL     1       4.550  25.078 117.667  1.00  0.00    -0.347 N 
HETATM    9  C1  UNL     1       5.736  25.735 117.996  1.00  0.00     0.257 C 
HETATM   10  O1  UNL     1       5.989  26.931 117.571  1.00  0.00    -0.267 OA
ATOM     11  H1  UNL     1       4.444  24.132 118.036  1.00  0.00     0.163 HD
BRANCH   9  12
HETATM   12  C15 UNL     1       6.827  25.212 118.819  1.00  0.00     0.092 A 
HETATM   13  C16 UNL     1       7.743  24.337 118.354  1.00  0.00     0.054 A 
HETATM   14 CL1  UNL     1       7.693  23.573 116.757  1.00  0.00    -0.083 Cl
HETATM   15  C17 UNL     1       8.792  23.947 119.194  1.00  0.00     0.042 A 
HETATM   16  C18 UNL     1       8.860  24.459 120.466  1.00  0.00     0.091 A 
HETATM   17  N2  UNL     1       7.948  25.332 120.939  1.00  0.00    -0.356 N 
HETATM   18  C19 UNL     1       6.949  25.704 120.134  1.00  0.00     0.120 A 
ATOM     19  H2  UNL     1       8.019  25.698 121.888  1.00  0.00     0.166 HD
HETATM   20 CL2  UNL     1       5.748  26.846 120.742  1.00  0.00    -0.063 Cl
ENDBRANCH   9  12
ENDBRANCH   1   8
BRANCH   1  21
HETATM   21  C3  UNL     1       2.539  26.488 117.682  1.00  0.00     0.014 C 
HETATM   22  C4  UNL     1       1.217  26.760 117.040  1.00  0.00     0.007 C 
HETATM   23  C5  UNL     1       0.924  28.180 116.648  1.00  0.00     0.000 C 
HETATM   24  C6  UNL     1       1.366  29.163 117.721  1.00  0.00     0.000 C 
HETATM   25  C7  UNL     1       2.893  29.015 117.636  1.00  0.00     0.000 C 
HETATM   26  C8  UNL     1       3.200  27.681 118.277  1.00  0.00     0.007 C 
ENDBRANCH   1  21
TORSDOF 3
ENDMDL
MODEL 4
REMARK VINA RESULT: -7.788232050      1.423      1.545
REMARK  3 active torsions:
REMARK  status: ('A' for Active; 'I' for Inactive)
REMARK       I    between atoms: C1_2  and  N1_3 
REMARK    1  A    between atoms: C1_2  and  C15_18 
REMARK    2  A    between atoms: N1_3  and  C2_5 
REMARK    3  A    between atoms: C2_5  and  C3_6 
ROOT
HETATM    1  C2  UNL     1       5.776  26.189 118.496  1.00  0.00     0.037 C 
HETATM    2  C9  UNL     1       5.367  26.394 119.926  1.00  0.00     0.031 C 
HETATM    3  C10 UNL     1       6.160  27.471 120.624  1.00  0.00     0.002 C 
HETATM    4  C11 UNL     1       5.386  28.790 120.611  1.00  0.00     0.000 C 
HETATM    5  C12 UNL     1       5.432  29.481 119.300  1.00  0.00     0.000 C 
HETATM    6  C13 UNL     1       4.822  28.540 118.256  1.00  0.00     0.002 C 
HETATM    7  C14 UNL     1       5.785  27.524 117.798  1.00  0.00     0.031 C 
ENDROOT
BRANCH   1   8
HETATM    8  N1  UNL     1       7.179  25.777 118.545  1.00  0.00    -0.347 N 
HETATM    9  C1  UNL     1       7.781  24.883 119.432  1.00  0.00     0.257 C 
HETATM   10  O1  UNL     1       7.106  24.306 120.374  1.00  0.00    -0.267 OA
ATOM     11  H1  UNL     1       7.793  26.193 117.844  1.00  0.00     0.163 HD
BRANCH   9  12
HETATM   12  C15 UNL     1       9.186  24.478 119.449  1.00  0.00     0.092 A 
HETATM   13  C16 UNL     1       9.649  23.406 118.770  1.00  0.00     0.054 A 
HETATM   14 CL1  UNL     1       8.635  22.249 117.893  1.00  0.00    -0.083 Cl
HETATM   15  C17 UNL     1      11.022  23.137 118.789  1.00  0.00     0.042 A 
HETATM   16  C18 UNL     1      11.860  23.963 119.496  1.00  0.00     0.091 A 
HETATM   17  N2  UNL     1      11.406  25.034 120.178  1.00  0.00    -0.356 N 
HETATM   18  C19 UNL     1      10.094  25.290 120.157  1.00  0.00     0.120 A 
ATOM     19  H2  UNL     1      12.047  25.633 120.697  1.00  0.00     0.166 HD
HETATM   20 CL2  UNL     1       9.487  26.689 121.047  1.00  0.00    -0.063 Cl
ENDBRANCH   9  12
ENDBRANCH   1   8
BRANCH   1  21
HETATM   21  C3  UNL     1       4.935  25.156 117.765  1.00  0.00     0.014 C 
HETATM   22  C4  UNL     1       5.156  25.146 116.287  1.00  0.00     0.007 C 
HETATM   23  C5  UNL     1       3.989  25.519 115.416  1.00  0.00     0.000 C 
HETATM   24  C6  UNL     1       2.695  24.891 115.908  1.00  0.00     0.000 C 
HETATM   25  C7  UNL     1       2.489  25.650 117.228  1.00  0.00     0.000 C 
HETATM   26  C8  UNL     1       3.509  25.073 118.183  1.00  0.00     0.007 C 
ENDBRANCH   1  21
TORSDOF 3
ENDMDL
MODEL 5
REMARK VINA RESULT: -7.658573350      1.892      3.829
REMARK  3 active torsions:
REMARK  status: ('A' for Active; 'I' for Inactive)
REMARK       I    between atoms: C1_2  and  N1_3 
REMARK    1  A    between atoms: C1_2  and  C15_18 
REMARK    2  A    between atoms: N1_3  and  C2_5 
REMARK    3  A    between atoms: C2_5  and  C3_6 
ROOT
HETATM    1  C2  UNL     1       4.921  26.009 117.191  1.00  0.00     0.037 C 
HETATM    2  C9  UNL     1       5.094  26.550 115.801  1.00  0.00     0.031 C 
HETATM    3  C10 UNL     1       5.497  25.497 114.799  1.00  0.00     0.002 C 
HETATM    4  C11 UNL     1       4.268  24.992 114.039  1.00  0.00     0.000 C 
HETATM    5  C12 UNL     1       3.441  24.050 114.830  1.00  0.00     0.000 C 
HETATM    6  C13 UNL     1       2.974  24.785 116.092  1.00  0.00     0.002 C 
HETATM    7  C14 UNL     1       4.014  24.807 117.135  1.00  0.00     0.031 C 
ENDROOT
BRANCH   1   8
HETATM    8  N1  UNL     1       6.231  25.480 117.572  1.00  0.00    -0.347 N 
HETATM    9  C1  UNL     1       6.695  25.177 118.853  1.00  0.00     0.257 C 
HETATM   10  O1  UNL     1       5.960  25.366 119.902  1.00  0.00    -0.267 OA
ATOM     11  H1  UNL     1       6.885  25.311 116.807  1.00  0.00     0.163 HD
BRANCH   9  12
HETATM   12  C15 UNL     1       8.008  24.635 119.203  1.00  0.00     0.092 A 
HETATM   13  C16 UNL     1       8.426  23.414 118.809  1.00  0.00     0.054 A 
HETATM   14 CL1  UNL     1       7.425  22.228 117.955  1.00  0.00    -0.083 Cl
HETATM   15  C17 UNL     1       9.726  23.008 119.134  1.00  0.00     0.042 A 
HETATM   16  C18 UNL     1      10.537  23.857 119.844  1.00  0.00     0.091 A 
HETATM   17  N2  UNL     1      10.126  25.078 120.243  1.00  0.00    -0.356 N 
HETATM   18  C19 UNL     1       8.885  25.463 119.930  1.00  0.00     0.120 A 
ATOM     19  H2  UNL     1      10.747  25.692 120.770  1.00  0.00     0.166 HD
HETATM   20 CL2  UNL     1       8.336  27.060 120.448  1.00  0.00    -0.063 Cl
ENDBRANCH   9  12
ENDBRANCH   1   8
BRANCH   1  21
HETATM   21  C3  UNL     1       4.447  27.048 118.194  1.00  0.00     0.014 C 
HETATM   22  C4  UNL     1       2.964  27.061 118.382  1.00  0.00     0.007 C 
HETATM   23  C5  UNL     1       2.231  28.308 117.972  1.00  0.00     0.000 C 
HETATM   24  C6  UNL     1       2.976  29.564 118.397  1.00  0.00     0.000 C 
HETATM   25  C7  UNL     1       4.211  29.489 117.486  1.00  0.00     0.000 C 
HETATM   26  C8  UNL     1       5.072  28.393 118.072  1.00  0.00     0.007 C 
ENDBRANCH   1  21
TORSDOF 3
ENDMDL
