MODEL 1
REMARK VINA RESULT: -8.541687765      0.000      0.000
REMARK  4 active torsions:
REMARK  status: ('A' for Active; 'I' for Inactive)
REMARK    1  A    between atoms: C2_2  and  C3_3 
REMARK    2  A    between atoms: C3_3  and  O1_4 
REMARK    3  A    between atoms: C3_3  and  C4_6 
REMARK    4  A    between atoms: C4_6  and  C5_7 
ROOT
HETATM    1  C5  UNL     1       3.107  27.668 118.027  1.00  0.00     0.014 C 
HETATM    2  C6  UNL     1       3.796  28.981 118.191  1.00  0.00     0.087 C 
HETATM    3 CL1  UNL     1       4.765  29.061 119.698  1.00  0.00    -0.125 Cl
HETATM    4  C7  UNL     1       4.736  29.248 117.073  1.00  0.00     0.023 C 
HETATM    5  C8  UNL     1       5.663  28.107 116.762  1.00  0.00     0.041 C 
HETATM    6  C9  UNL     1       4.924  26.786 116.724  1.00  0.00     0.080 C 
HETATM    7  O2  UNL     1       5.217  26.011 117.863  1.00  0.00    -0.338 OA
HETATM    8  C10 UNL     1       6.126  25.003 117.513  1.00  0.00     0.078 A 
HETATM    9  C11 UNL     1       6.794  24.129 118.352  1.00  0.00     0.061 A 
HETATM   10  C12 UNL     1       7.656  23.195 117.832  1.00  0.00     0.036 A 
HETATM   11 CL2  UNL     1       8.520  22.068 118.893  1.00  0.00    -0.084 Cl
HETATM   12  C13 UNL     1       7.833  23.155 116.467  1.00  0.00     0.024 A 
HETATM   13  C14 UNL     1       7.157  24.036 115.634  1.00  0.00     0.012 A 
HETATM   14  C15 UNL     1       6.288  24.981 116.144  1.00  0.00    -0.018 A 
HETATM   15  C16 UNL     1       5.443  26.038 115.536  1.00  0.00     0.057 C 
HETATM   16  C17 UNL     1       4.351  25.464 114.694  1.00  0.00     0.013 C 
HETATM   17  C18 UNL     1       3.391  24.773 115.636  1.00  0.00     0.005 C 
HETATM   18  C19 UNL     1       2.627  25.837 116.382  1.00  0.00    -0.011 C 
HETATM   19  C20 UNL     1       1.410  26.172 115.534  1.00  0.00     0.010 C 
HETATM   20  C21 UNL     1       3.447  27.060 116.712  1.00  0.00     0.031 C 
ENDROOT
BRANCH   1  21
HETATM   21  C4  UNL     1       1.650  27.673 118.349  1.00  0.00     0.038 C 
BRANCH  21  22
HETATM   22  C3  UNL     1       0.899  28.853 117.799  1.00  0.00     0.118 C 
BRANCH  22  23
HETATM   23  C2  UNL     1       0.744  29.906 118.897  1.00  0.00     0.027 C 
HETATM   24  C1  UNL     1      -0.550  29.737 119.638  1.00  0.00     0.007 C 
ENDBRANCH  22  23
BRANCH  22  25
HETATM   25  O1  UNL     1      -0.376  28.547 117.347  1.00  0.00    -0.396 OA
ATOM     26  H1  UNL     1      -0.552  27.648 117.598  1.00  0.00     0.210 HD
ENDBRANCH  22  25
ENDBRANCH  21  22
ENDBRANCH   1  21
TORSDOF 4
ENDMDL
MODEL 2
REMARK VINA RESULT: -6.971182975      2.987      6.131
REMARK  4 active torsions:
REMARK  status: ('A' for Active; 'I' for Inactive)
REMARK    1  A    between atoms: C2_2  and  C3_3 
REMARK    2  A    between atoms: C3_3  and  O1_4 
REMARK    3  A    between atoms: C3_3  and  C4_6 
REMARK    4  A    between atoms: C4_6  and  C5_7 
ROOT
HETATM    1  C5  UNL     1       3.961  26.883 116.967  1.00  0.00     0.014 C 
HETATM    2  C6  UNL     1       3.241  26.789 118.270  1.00  0.00     0.087 C 
HETATM    3 CL1  UNL     1       2.140  28.179 118.545  1.00  0.00    -0.125 Cl
HETATM    4  C7  UNL     1       2.401  25.567 118.344  1.00  0.00     0.023 C 
HETATM    5  C8  UNL     1       1.521  25.351 117.143  1.00  0.00     0.041 C 
HETATM    6  C9  UNL     1       2.281  25.575 115.853  1.00  0.00     0.080 C 
HETATM    7  O2  UNL     1       1.898  26.787 115.246  1.00  0.00    -0.338 OA
HETATM    8  C10 UNL     1       1.039  26.515 114.173  1.00  0.00     0.078 A 
HETATM    9  C11 UNL     1       0.312  27.414 113.413  1.00  0.00     0.061 A 
HETATM   10  C12 UNL     1      -0.487  26.967 112.390  1.00  0.00     0.036 A 
HETATM   11 CL2  UNL     1      -1.425  28.107 111.408  1.00  0.00    -0.084 Cl
HETATM   12  C13 UNL     1      -0.540  25.614 112.144  1.00  0.00     0.024 A 
HETATM   13  C14 UNL     1       0.194  24.720 112.911  1.00  0.00     0.012 A 
HETATM   14  C15 UNL     1       1.000  25.156 113.944  1.00  0.00    -0.018 A 
HETATM   15  C16 UNL     1       1.881  24.472 114.923  1.00  0.00     0.057 C 
HETATM   16  C17 UNL     1       3.052  23.822 114.262  1.00  0.00     0.013 C 
HETATM   17  C18 UNL     1       3.934  24.935 113.744  1.00  0.00     0.005 C 
HETATM   18  C19 UNL     1       4.613  25.578 114.928  1.00  0.00    -0.011 C 
HETATM   19  C20 UNL     1       5.895  24.797 115.168  1.00  0.00     0.010 C 
HETATM   20  C21 UNL     1       3.749  25.649 116.162  1.00  0.00     0.031 C 
ENDROOT
BRANCH   1  21
HETATM   21  C4  UNL     1       5.384  27.324 117.059  1.00  0.00     0.038 C 
BRANCH  21  22
HETATM   22  C3  UNL     1       6.026  27.063 118.393  1.00  0.00     0.118 C 
BRANCH  22  23
HETATM   23  C2  UNL     1       6.829  28.295 118.814  1.00  0.00     0.027 C 
HETATM   24  C1  UNL     1       6.268  28.913 120.060  1.00  0.00     0.007 C 
ENDBRANCH  22  23
BRANCH  22  25
HETATM   25  O1  UNL     1       6.903  25.988 118.393  1.00  0.00    -0.396 OA
ATOM     26  H1  UNL     1       6.381  25.203 118.516  1.00  0.00     0.210 HD
ENDBRANCH  22  25
ENDBRANCH  21  22
ENDBRANCH   1  21
TORSDOF 4
ENDMDL
MODEL 3
REMARK VINA RESULT: -6.635483397      3.192      5.480
REMARK  4 active torsions:
REMARK  status: ('A' for Active; 'I' for Inactive)
REMARK    1  A    between atoms: C2_2  and  C3_3 
REMARK    2  A    between atoms: C3_3  and  O1_4 
REMARK    3  A    between atoms: C3_3  and  C4_6 
REMARK    4  A    between atoms: C4_6  and  C5_7 
ROOT
HETATM    1  C5  UNL     1       4.237  25.497 117.433  1.00  0.00     0.014 C 
HETATM    2  C6  UNL     1       5.587  25.582 116.804  1.00  0.00     0.087 C 
HETATM    3 CL1  UNL     1       6.319  23.966 116.535  1.00  0.00    -0.125 Cl
HETATM    4  C7  UNL     1       5.530  26.243 115.476  1.00  0.00     0.023 C 
HETATM    5  C8  UNL     1       4.464  25.704 114.564  1.00  0.00     0.041 C 
HETATM    6  C9  UNL     1       3.147  25.530 115.292  1.00  0.00     0.080 C 
HETATM    7  O2  UNL     1       2.879  24.169 115.532  1.00  0.00    -0.338 OA
HETATM    8  C10 UNL     1       1.920  23.719 114.614  1.00  0.00     0.078 A 
HETATM    9  C11 UNL     1       1.491  22.422 114.395  1.00  0.00     0.061 A 
HETATM   10  C12 UNL     1       0.534  22.161 113.446  1.00  0.00     0.036 A 
HETATM   11 CL2  UNL     1      -0.024  20.504 113.154  1.00  0.00    -0.084 Cl
HETATM   12  C13 UNL     1       0.019  23.216 112.729  1.00  0.00     0.024 A 
HETATM   13  C14 UNL     1       0.454  24.515 112.956  1.00  0.00     0.012 A 
HETATM   14  C15 UNL     1       1.418  24.791 113.907  1.00  0.00    -0.018 A 
HETATM   15  C16 UNL     1       2.079  26.035 114.372  1.00  0.00     0.057 C 
HETATM   16  C17 UNL     1       1.121  26.956 115.052  1.00  0.00     0.013 C 
HETATM   17  C18 UNL     1       0.719  26.290 116.349  1.00  0.00     0.005 C 
HETATM   18  C19 UNL     1       1.891  26.372 117.294  1.00  0.00    -0.011 C 
HETATM   19  C20 UNL     1       1.757  27.692 118.037  1.00  0.00     0.010 C 
HETATM   20  C21 UNL     1       3.233  26.231 116.618  1.00  0.00     0.031 C 
ENDROOT
BRANCH   1  21
HETATM   21  C4  UNL     1       4.197  25.810 118.892  1.00  0.00     0.038 C 
BRANCH  21  22
HETATM   22  C3  UNL     1       5.272  26.756 119.351  1.00  0.00     0.118 C 
BRANCH  22  23
HETATM   23  C2  UNL     1       5.834  26.269 120.687  1.00  0.00     0.027 C 
HETATM   24  C1  UNL     1       7.293  25.937 120.579  1.00  0.00     0.007 C 
ENDBRANCH  22  23
BRANCH  22  25
HETATM   25  O1  UNL     1       4.829  28.056 119.546  1.00  0.00    -0.396 OA
ATOM     26  H1  UNL     1       3.896  28.063 119.363  1.00  0.00     0.210 HD
ENDBRANCH  22  25
ENDBRANCH  21  22
ENDBRANCH   1  21
TORSDOF 4
ENDMDL
MODEL 4
REMARK VINA RESULT: -6.480523798      3.867      5.787
REMARK  4 active torsions:
REMARK  status: ('A' for Active; 'I' for Inactive)
REMARK    1  A    between atoms: C2_2  and  C3_3 
REMARK    2  A    between atoms: C3_3  and  O1_4 
REMARK    3  A    between atoms: C3_3  and  C4_6 
REMARK    4  A    between atoms: C4_6  and  C5_7 
ROOT
HETATM    1  C5  UNL     1      -0.225  24.014 114.435  1.00  0.00     0.014 C 
HETATM    2  C6  UNL     1      -1.157  25.172 114.308  1.00  0.00     0.087 C 
HETATM    3 CL1  UNL     1      -1.833  25.682 115.890  1.00  0.00    -0.125 Cl
HETATM    4  C7  UNL     1      -0.477  26.362 113.740  1.00  0.00     0.023 C 
HETATM    5  C8  UNL     1       0.830  26.700 114.403  1.00  0.00     0.041 C 
HETATM    6  C9  UNL     1       1.682  25.465 114.609  1.00  0.00     0.080 C 
HETATM    7  O2  UNL     1       1.705  25.089 115.966  1.00  0.00    -0.338 OA
HETATM    8  C10 UNL     1       2.925  25.481 116.533  1.00  0.00     0.078 A 
HETATM    9  C11 UNL     1       3.296  25.450 117.866  1.00  0.00     0.061 A 
HETATM   10  C12 UNL     1       4.543  25.877 118.246  1.00  0.00     0.036 A 
HETATM   11 CL2  UNL     1       5.032  25.843 119.950  1.00  0.00    -0.084 Cl
HETATM   12  C13 UNL     1       5.405  26.331 117.274  1.00  0.00     0.024 A 
HETATM   13  C14 UNL     1       5.025  26.358 115.939  1.00  0.00     0.012 A 
HETATM   14  C15 UNL     1       3.772  25.932 115.543  1.00  0.00    -0.018 A 
HETATM   15  C16 UNL     1       3.081  25.843 114.232  1.00  0.00     0.057 C 
HETATM   16  C17 UNL     1       3.725  24.842 113.329  1.00  0.00     0.013 C 
HETATM   17  C18 UNL     1       3.468  23.480 113.933  1.00  0.00     0.005 C 
HETATM   18  C19 UNL     1       2.014  23.143 113.718  1.00  0.00    -0.011 C 
HETATM   19  C20 UNL     1       1.924  22.459 112.363  1.00  0.00     0.010 C 
HETATM   20  C21 UNL     1       1.091  24.333 113.819  1.00  0.00     0.031 C 
ENDROOT
BRANCH   1  21
HETATM   21  C4  UNL     1      -0.795  22.695 114.031  1.00  0.00     0.038 C 
BRANCH  21  22
HETATM   22  C3  UNL     1      -2.280  22.708 113.801  1.00  0.00     0.118 C 
BRANCH  22  23
HETATM   23  C2  UNL     1      -2.949  21.742 114.781  1.00  0.00     0.027 C 
HETATM   24  C1  UNL     1      -2.090  20.540 115.037  1.00  0.00     0.007 C 
ENDBRANCH  22  23
BRANCH  22  25
HETATM   25  O1  UNL     1      -2.655  22.314 112.524  1.00  0.00    -0.396 OA
ATOM     26  H1  UNL     1      -2.949  23.094 112.068  1.00  0.00     0.210 HD
ENDBRANCH  22  25
ENDBRANCH  21  22
ENDBRANCH   1  21
TORSDOF 4
ENDMDL
MODEL 5
REMARK VINA RESULT: -6.416138622      3.447      5.060
REMARK  4 active torsions:
REMARK  status: ('A' for Active; 'I' for Inactive)
REMARK    1  A    between atoms: C2_2  and  C3_3 
REMARK    2  A    between atoms: C3_3  and  O1_4 
REMARK    3  A    between atoms: C3_3  and  C4_6 
REMARK    4  A    between atoms: C4_6  and  C5_7 
ROOT
HETATM    1  C5  UNL     1      -0.725  25.733 113.802  1.00  0.00     0.014 C 
HETATM    2  C6  UNL     1      -0.838  26.840 112.809  1.00  0.00     0.087 C 
HETATM    3 CL1  UNL     1      -0.661  28.457 113.565  1.00  0.00    -0.125 Cl
HETATM    4  C7  UNL     1       0.214  26.747 111.766  1.00  0.00     0.023 C 
HETATM    5  C8  UNL     1       1.603  26.551 112.307  1.00  0.00     0.041 C 
HETATM    6  C9  UNL     1       1.631  25.497 113.394  1.00  0.00     0.080 C 
HETATM    7  O2  UNL     1       1.797  26.084 114.663  1.00  0.00    -0.338 OA
HETATM    8  C10 UNL     1       3.123  25.913 115.081  1.00  0.00     0.078 A 
HETATM    9  C11 UNL     1       3.749  26.467 116.183  1.00  0.00     0.061 A 
HETATM   10  C12 UNL     1       5.067  26.187 116.443  1.00  0.00     0.036 A 
HETATM   11 CL2  UNL     1       5.883  26.892 117.850  1.00  0.00    -0.084 Cl
HETATM   12  C13 UNL     1       5.740  25.346 115.586  1.00  0.00     0.024 A 
HETATM   13  C14 UNL     1       5.103  24.793 114.483  1.00  0.00     0.012 A 
HETATM   14  C15 UNL     1       3.777  25.068 114.209  1.00  0.00    -0.018 A 
HETATM   15  C16 UNL     1       2.839  24.650 113.138  1.00  0.00     0.057 C 
HETATM   16  C17 UNL     1       2.541  23.188 113.197  1.00  0.00     0.013 C 
HETATM   17  C18 UNL     1       1.734  22.956 114.455  1.00  0.00     0.005 C 
HETATM   18  C19 UNL     1       0.349  23.506 114.225  1.00  0.00    -0.011 C 
HETATM   19  C20 UNL     1      -0.466  22.382 113.605  1.00  0.00     0.010 C 
HETATM   20  C21 UNL     1       0.321  24.761 113.386  1.00  0.00     0.031 C 
ENDROOT
BRANCH   1  21
HETATM   21  C4  UNL     1      -2.021  25.112 114.209  1.00  0.00     0.038 C 
BRANCH  21  22
HETATM   22  C3  UNL     1      -2.506  25.528 115.569  1.00  0.00     0.118 C 
BRANCH  22  23
HETATM   23  C2  UNL     1      -3.528  26.656 115.415  1.00  0.00     0.027 C 
HETATM   24  C1  UNL     1      -3.130  27.866 116.207  1.00  0.00     0.007 C 
ENDBRANCH  22  23
BRANCH  22  25
HETATM   25  O1  UNL     1      -1.503  26.000 116.403  1.00  0.00    -0.396 OA
ATOM     26  H1  UNL     1      -1.869  26.050 117.279  1.00  0.00     0.210 HD
ENDBRANCH  22  25
ENDBRANCH  21  22
ENDBRANCH   1  21
TORSDOF 4
ENDMDL
