MODEL 1
REMARK VINA RESULT: -5.305824903      0.000      0.000
REMARK  5 active torsions:
REMARK  status: ('A' for Active; 'I' for Inactive)
REMARK    1  A    between atoms: N1_1  and  N2_4 
REMARK    2  A    between atoms: N2_4  and  C1_5 
REMARK    3  A    between atoms: C1_5  and  C2_6 
REMARK    4  A    between atoms: C2_6  and  N3_7 
REMARK    5  A    between atoms: C3_9  and  C4_10 
ROOT
HETATM    1  N3  UNL     1     138.788 124.286  86.158  1.00  0.00    -0.391 N 
ATOM      2  H3  UNL     1     138.857 125.106  85.555  1.00  0.00     0.159 HD
HETATM    3  C3  UNL     1     138.536 123.183  85.587  1.00  0.00     0.114 C 
ENDROOT
BRANCH   1   4
HETATM    4  C2  UNL     1     138.985 124.506  87.552  1.00  0.00     0.180 C 
BRANCH   4   5
HETATM    5  C1  UNL     1     137.696 125.033  88.115  1.00  0.00     0.200 C 
BRANCH   5   6
HETATM    6  N2  UNL     1     137.164 125.985  87.538  1.00  0.00    -0.348 NA
BRANCH   6   7
HETATM    7  N1  UNL     1     136.732 126.863  86.777  1.00  0.00    -0.281 N 
ATOM      8  H12 UNL     1     135.783 126.553  86.991  1.00  0.00     0.191 HD
ATOM      9  H11 UNL     1     136.552 127.627  86.126  1.00  0.00     0.191 HD
ENDBRANCH   6   7
ENDBRANCH   5   6
ENDBRANCH   4   5
ENDBRANCH   1   4
BRANCH   3  10
HETATM   10  C4  UNL     1     138.367 123.167  84.137  1.00  0.00     0.063 A 
HETATM   11  C5  UNL     1     137.553 122.309  83.396  1.00  0.00     0.119 A 
HETATM   12  N4  UNL     1     137.698 122.640  82.102  1.00  0.00    -0.360 N 
HETATM   13  C6  UNL     1     138.564 123.664  81.979  1.00  0.00     0.180 A 
ATOM     14  H4  UNL     1     137.222 122.181  81.325  1.00  0.00     0.166 HD
HETATM   15  N5  UNL     1     138.961 123.973  83.224  1.00  0.00    -0.350 N 
ATOM     16  H5  UNL     1     139.622 124.716  83.452  1.00  0.00     0.166 HD
ENDBRANCH   3  10
TORSDOF 5
ENDMDL
MODEL 2
REMARK VINA RESULT: -5.294827150      1.628      5.462
REMARK  5 active torsions:
REMARK  status: ('A' for Active; 'I' for Inactive)
REMARK    1  A    between atoms: N1_1  and  N2_4 
REMARK    2  A    between atoms: N2_4  and  C1_5 
REMARK    3  A    between atoms: C1_5  and  C2_6 
REMARK    4  A    between atoms: C2_6  and  N3_7 
REMARK    5  A    between atoms: C3_9  and  C4_10 
ROOT
HETATM    1  N3  UNL     1     137.977 123.276  85.045  1.00  0.00    -0.391 N 
ATOM      2  H3  UNL     1     137.233 123.080  85.715  1.00  0.00     0.159 HD
HETATM    3  C3  UNL     1     138.815 124.169  85.374  1.00  0.00     0.114 C 
ENDROOT
BRANCH   1   4
HETATM    4  C2  UNL     1     137.962 122.516  83.840  1.00  0.00     0.180 C 
BRANCH   4   5
HETATM    5  C1  UNL     1     136.817 121.546  83.930  1.00  0.00     0.200 C 
BRANCH   5   6
HETATM    6  N2  UNL     1     136.616 120.805  82.965  1.00  0.00    -0.348 NA
BRANCH   6   7
HETATM    7  N1  UNL     1     136.261 120.209  81.937  1.00  0.00    -0.281 N 
ATOM      8  H12 UNL     1     135.984 121.107  81.538  1.00  0.00     0.191 HD
ATOM      9  H11 UNL     1     136.023 119.570  81.179  1.00  0.00     0.191 HD
ENDBRANCH   6   7
ENDBRANCH   5   6
ENDBRANCH   4   5
ENDBRANCH   1   4
BRANCH   3  10
HETATM   10  C4  UNL     1     138.657 124.837  86.663  1.00  0.00     0.063 A 
HETATM   11  C5  UNL     1     138.122 126.106  86.890  1.00  0.00     0.119 A 
HETATM   12  N4  UNL     1     138.166 126.325  88.215  1.00  0.00    -0.360 N 
HETATM   13  C6  UNL     1     138.701 125.262  88.844  1.00  0.00     0.180 A 
ATOM     14  H4  UNL     1     137.840 127.175  88.677  1.00  0.00     0.166 HD
HETATM   15  N5  UNL     1     138.994 124.367  87.888  1.00  0.00    -0.350 N 
ATOM     16  H5  UNL     1     139.414 123.453  88.060  1.00  0.00     0.166 HD
ENDBRANCH   3  10
TORSDOF 5
ENDMDL
MODEL 3
REMARK VINA RESULT: -5.228147136      1.251      4.900
REMARK  5 active torsions:
REMARK  status: ('A' for Active; 'I' for Inactive)
REMARK    1  A    between atoms: N1_1  and  N2_4 
REMARK    2  A    between atoms: N2_4  and  C1_5 
REMARK    3  A    between atoms: C1_5  and  C2_6 
REMARK    4  A    between atoms: C2_6  and  N3_7 
REMARK    5  A    between atoms: C3_9  and  C4_10 
ROOT
HETATM    1  N3  UNL     1     137.639 122.931  84.759  1.00  0.00    -0.391 N 
ATOM      2  H3  UNL     1     136.898 123.622  84.637  1.00  0.00     0.159 HD
HETATM    3  C3  UNL     1     138.464 123.145  85.698  1.00  0.00     0.114 C 
ENDROOT
BRANCH   1   4
HETATM    4  C2  UNL     1     137.635 121.830  83.855  1.00  0.00     0.180 C 
BRANCH   4   5
HETATM    5  C1  UNL     1     137.540 122.387  82.463  1.00  0.00     0.200 C 
BRANCH   5   6
HETATM    6  N2  UNL     1     138.270 123.337  82.173  1.00  0.00    -0.348 NA
BRANCH   6   7
HETATM    7  N1  UNL     1     138.873 124.314  81.705  1.00  0.00    -0.281 N 
ATOM      8  H12 UNL     1     137.987 124.656  81.332  1.00  0.00     0.191 HD
ATOM      9  H11 UNL     1     139.517 125.041  81.394  1.00  0.00     0.191 HD
ENDBRANCH   6   7
ENDBRANCH   5   6
ENDBRANCH   4   5
ENDBRANCH   1   4
BRANCH   3  10
HETATM   10  C4  UNL     1     138.295 124.341  86.520  1.00  0.00     0.063 A 
HETATM   11  C5  UNL     1     137.447 124.493  87.617  1.00  0.00     0.119 A 
HETATM   12  N4  UNL     1     137.606 125.746  88.075  1.00  0.00    -0.360 N 
HETATM   13  C6  UNL     1     138.513 126.401  87.325  1.00  0.00     0.180 A 
ATOM     14  H4  UNL     1     137.112 126.143  88.874  1.00  0.00     0.166 HD
HETATM   15  N5  UNL     1     138.922 125.534  86.386  1.00  0.00    -0.350 N 
ATOM     16  H5  UNL     1     139.614 125.746  85.666  1.00  0.00     0.166 HD
ENDBRANCH   3  10
TORSDOF 5
ENDMDL
MODEL 4
REMARK VINA RESULT: -5.170330540      1.346      5.009
REMARK  5 active torsions:
REMARK  status: ('A' for Active; 'I' for Inactive)
REMARK    1  A    between atoms: N1_1  and  N2_4 
REMARK    2  A    between atoms: N2_4  and  C1_5 
REMARK    3  A    between atoms: C1_5  and  C2_6 
REMARK    4  A    between atoms: C2_6  and  N3_7 
REMARK    5  A    between atoms: C3_9  and  C4_10 
ROOT
HETATM    1  N3  UNL     1     137.640 122.734  84.720  1.00  0.00    -0.391 N 
ATOM      2  H3  UNL     1     136.725 123.153  84.890  1.00  0.00     0.159 HD
HETATM    3  C3  UNL     1     138.606 123.186  85.407  1.00  0.00     0.114 C 
ENDROOT
BRANCH   1   4
HETATM    4  C2  UNL     1     137.694 121.704  83.737  1.00  0.00     0.180 C 
BRANCH   4   5
HETATM    5  C1  UNL     1     137.468 122.345  82.397  1.00  0.00     0.200 C 
BRANCH   5   6
HETATM    6  N2  UNL     1     138.244 123.237  82.049  1.00  0.00    -0.348 NA
BRANCH   6   7
HETATM    7  N1  UNL     1     138.846 124.265  81.705  1.00  0.00    -0.281 N 
ATOM      8  H12 UNL     1     138.735 124.623  82.654  1.00  0.00     0.191 HD
ATOM      9  H11 UNL     1     139.351 125.031  81.259  1.00  0.00     0.191 HD
ENDBRANCH   6   7
ENDBRANCH   5   6
ENDBRANCH   4   5
ENDBRANCH   1   4
BRANCH   3  10
HETATM   10  C4  UNL     1     138.343 124.250  86.371  1.00  0.00     0.063 A 
HETATM   11  C5  UNL     1     139.101 125.404  86.575  1.00  0.00     0.119 A 
HETATM   12  N4  UNL     1     138.504 126.106  87.553  1.00  0.00    -0.360 N 
HETATM   13  C6  UNL     1     137.404 125.459  87.983  1.00  0.00     0.180 A 
ATOM     14  H4  UNL     1     138.836 126.999  87.916  1.00  0.00     0.166 HD
HETATM   15  N5  UNL     1     137.320 124.334  87.255  1.00  0.00    -0.350 N 
ATOM     16  H5  UNL     1     136.583 123.636  87.354  1.00  0.00     0.166 HD
ENDBRANCH   3  10
TORSDOF 5
ENDMDL
MODEL 5
REMARK VINA RESULT: -5.076643974      0.827      1.221
REMARK  5 active torsions:
REMARK  status: ('A' for Active; 'I' for Inactive)
REMARK    1  A    between atoms: N1_1  and  N2_4 
REMARK    2  A    between atoms: N2_4  and  C1_5 
REMARK    3  A    between atoms: C1_5  and  C2_6 
REMARK    4  A    between atoms: C2_6  and  N3_7 
REMARK    5  A    between atoms: C3_9  and  C4_10 
ROOT
HETATM    1  N3  UNL     1     138.637 123.954  86.427  1.00  0.00    -0.391 N 
ATOM      2  H3  UNL     1     137.980 123.182  86.541  1.00  0.00     0.159 HD
HETATM    3  C3  UNL     1     138.970 124.242  85.238  1.00  0.00     0.114 C 
ENDROOT
BRANCH   1   4
HETATM    4  C2  UNL     1     139.080 124.592  87.621  1.00  0.00     0.180 C 
BRANCH   4   5
HETATM    5  C1  UNL     1     137.880 125.223  88.270  1.00  0.00     0.200 C 
BRANCH   5   6
HETATM    6  N2  UNL     1     137.233 126.039  87.610  1.00  0.00    -0.348 NA
BRANCH   6   7
HETATM    7  N1  UNL     1     136.747 126.841  86.798  1.00  0.00    -0.281 N 
ATOM      8  H12 UNL     1     137.106 127.606  87.370  1.00  0.00     0.191 HD
ATOM      9  H11 UNL     1     136.291 127.350  86.042  1.00  0.00     0.191 HD
ENDBRANCH   6   7
ENDBRANCH   5   6
ENDBRANCH   4   5
ENDBRANCH   1   4
BRANCH   3  10
HETATM   10  C4  UNL     1     138.401 123.464  84.142  1.00  0.00     0.063 A 
HETATM   11  C5  UNL     1     138.552 123.703  82.776  1.00  0.00     0.119 A 
HETATM   12  N4  UNL     1     137.863 122.749  82.125  1.00  0.00    -0.360 N 
HETATM   13  C6  UNL     1     137.281 121.915  83.007  1.00  0.00     0.180 A 
ATOM     14  H4  UNL     1     137.793 122.669  81.111  1.00  0.00     0.166 HD
HETATM   15  N5  UNL     1     137.617 122.362  84.228  1.00  0.00    -0.350 N 
ATOM     16  H5  UNL     1     137.322 121.929  85.103  1.00  0.00     0.166 HD
ENDBRANCH   3  10
TORSDOF 5
ENDMDL
