MODEL 1
REMARK VINA RESULT: -7.720057522      0.000      0.000
REMARK  10 active torsions:
REMARK  status: ('A' for Active; 'I' for Inactive)
REMARK    1  A    between atoms: C2_2  and  C3_4 
REMARK    2  A    between atoms: C3_4  and  N1_5 
REMARK    3  A    between atoms: C3_4  and  C10_13 
REMARK    4  A    between atoms: N1_5  and  C4_7 
REMARK    5  A    between atoms: C10_13  and  C11_14 
REMARK    6  A    between atoms: C10_13  and  N2_21 
REMARK    7  A    between atoms: C11_14  and  O2_15 
REMARK    8  A    between atoms: O2_15  and  C12_16 
REMARK       I    between atoms: N2_21  and  C17_23 
REMARK    9  A    between atoms: C17_23  and  O4_25 
REMARK   10  A    between atoms: O4_25  and  C18_26 
ROOT
HETATM    1  C10 UNL     1      51.440  58.473  41.566  1.00  0.00     0.045 C 
ENDROOT
BRANCH   1   2
HETATM    2  C3  UNL     1      50.622  57.205  41.669  1.00  0.00     0.195 C 
BRANCH   2   3
HETATM    3  C2  UNL     1      51.364  55.959  41.783  1.00  0.00     0.150 C 
HETATM    4  C1  UNL     1      51.368  54.873  40.772  1.00  0.00     0.093 C 
HETATM    5  O1  UNL     1      52.087  55.702  42.776  1.00  0.00    -0.296 OA
ENDBRANCH   2   3
BRANCH   2   6
HETATM    6  N1  UNL     1      49.751  57.222  40.503  1.00  0.00    -0.402 N 
ATOM      7  H1  UNL     1      50.129  57.069  39.569  1.00  0.00     0.154 HD
BRANCH   6   8
HETATM    8  C4  UNL     1      48.384  57.454  40.690  1.00  0.00     0.077 C 
HETATM    9  C5  UNL     1      47.755  58.086  39.473  1.00  0.00     0.024 C 
HETATM   10  C6  UNL     1      46.396  58.630  39.919  1.00  0.00     0.002 C 
HETATM   11  C7  UNL     1      45.627  57.521  40.542  1.00  0.00     0.000 C 
HETATM   12  C8  UNL     1      46.250  56.166  40.457  1.00  0.00     0.002 C 
HETATM   13  C9  UNL     1      47.658  56.121  40.979  1.00  0.00     0.024 C 
ENDBRANCH   6   8
ENDBRANCH   2   6
ENDBRANCH   1   2
BRANCH   1  14
HETATM   14  C11 UNL     1      51.293  59.506  42.588  1.00  0.00     0.223 C 
BRANCH  14  15
HETATM   15  O2  UNL     1      52.339  60.348  42.852  1.00  0.00    -0.380 OA
BRANCH  15  16
HETATM   16  C12 UNL     1      52.221  60.735  44.186  1.00  0.00     0.121 C 
HETATM   17  C13 UNL     1      52.049  59.605  45.149  1.00  0.00     0.032 C 
HETATM   18  C14 UNL     1      52.193  60.348  46.486  1.00  0.00     0.002 C 
HETATM   19  C15 UNL     1      53.396  61.220  46.218  1.00  0.00     0.002 C 
HETATM   20  C16 UNL     1      53.479  61.407  44.705  1.00  0.00     0.032 C 
ENDBRANCH  15  16
ENDBRANCH  14  15
ENDBRANCH   1  14
BRANCH   1  21
HETATM   21  N2  UNL     1      52.801  58.204  41.144  1.00  0.00    -0.305 N 
HETATM   22  C17 UNL     1      53.199  58.065  39.777  1.00  0.00     0.365 C 
HETATM   23  O3  UNL     1      52.371  58.177  38.831  1.00  0.00    -0.238 OA
ATOM     24  H2  UNL     1      53.517  58.107  41.865  1.00  0.00     0.170 HD
BRANCH  22  25
HETATM   25  O4  UNL     1      54.501  57.799  39.391  1.00  0.00    -0.294 OA
BRANCH  25  26
HETATM   26  C18 UNL     1      55.422  58.801  39.019  1.00  0.00     0.061 C 
HETATM   27  C19 UNL     1      55.641  58.922  37.548  1.00  0.00     0.046 C 
HETATM   28  C20 UNL     1      56.768  58.404  39.637  1.00  0.00     0.046 C 
HETATM   29  C21 UNL     1      55.052  60.149  39.615  1.00  0.00     0.046 C 
ENDBRANCH  25  26
ENDBRANCH  22  25
ENDBRANCH   1  21
TORSDOF 10
ENDMDL
MODEL 2
REMARK VINA RESULT: -7.483825326      2.672      6.935
REMARK  10 active torsions:
REMARK  status: ('A' for Active; 'I' for Inactive)
REMARK    1  A    between atoms: C2_2  and  C3_4 
REMARK    2  A    between atoms: C3_4  and  N1_5 
REMARK    3  A    between atoms: C3_4  and  C10_13 
REMARK    4  A    between atoms: N1_5  and  C4_7 
REMARK    5  A    between atoms: C10_13  and  C11_14 
REMARK    6  A    between atoms: C10_13  and  N2_21 
REMARK    7  A    between atoms: C11_14  and  O2_15 
REMARK    8  A    between atoms: O2_15  and  C12_16 
REMARK       I    between atoms: N2_21  and  C17_23 
REMARK    9  A    between atoms: C17_23  and  O4_25 
REMARK   10  A    between atoms: O4_25  and  C18_26 
ROOT
HETATM    1  C10 UNL     1      51.871  56.443  42.120  1.00  0.00     0.045 C 
ENDROOT
BRANCH   1   2
HETATM    2  C3  UNL     1      52.331  56.299  43.554  1.00  0.00     0.195 C 
BRANCH   2   3
HETATM    3  C2  UNL     1      52.184  54.983  44.155  1.00  0.00     0.150 C 
HETATM    4  C1  UNL     1      53.282  54.199  44.772  1.00  0.00     0.093 C 
HETATM    5  O1  UNL     1      51.077  54.393  44.206  1.00  0.00    -0.296 OA
ENDBRANCH   2   3
BRANCH   2   6
HETATM    6  N1  UNL     1      51.606  57.325  44.288  1.00  0.00    -0.402 N 
ATOM      7  H1  UNL     1      50.613  57.215  44.493  1.00  0.00     0.154 HD
BRANCH   6   8
HETATM    8  C4  UNL     1      52.297  58.465  44.708  1.00  0.00     0.077 C 
HETATM    9  C5  UNL     1      51.713  59.722  44.112  1.00  0.00     0.024 C 
HETATM   10  C6  UNL     1      52.750  60.827  44.322  1.00  0.00     0.002 C 
HETATM   11  C7  UNL     1      53.081  60.891  45.770  1.00  0.00     0.000 C 
HETATM   12  C8  UNL     1      52.260  60.023  46.667  1.00  0.00     0.002 C 
HETATM   13  C9  UNL     1      52.238  58.582  46.247  1.00  0.00     0.024 C 
ENDBRANCH   6   8
ENDBRANCH   2   6
ENDBRANCH   1   2
BRANCH   1  14
HETATM   14  C11 UNL     1      52.405  55.543  41.102  1.00  0.00     0.223 C 
BRANCH  14  15
HETATM   15  O2  UNL     1      51.643  54.497  40.659  1.00  0.00    -0.380 OA
BRANCH  15  16
HETATM   16  C12 UNL     1      52.468  53.374  40.640  1.00  0.00     0.121 C 
HETATM   17  C13 UNL     1      53.874  53.625  41.079  1.00  0.00     0.032 C 
HETATM   18  C14 UNL     1      54.406  52.187  41.164  1.00  0.00     0.002 C 
HETATM   19  C15 UNL     1      53.276  51.489  41.882  1.00  0.00     0.002 C 
HETATM   20  C16 UNL     1      52.014  52.308  41.621  1.00  0.00     0.032 C 
ENDBRANCH  15  16
ENDBRANCH  14  15
ENDBRANCH   1  14
BRANCH   1  21
HETATM   21  N2  UNL     1      50.447  56.706  42.034  1.00  0.00    -0.305 N 
HETATM   22  C17 UNL     1      49.887  57.852  41.387  1.00  0.00     0.365 C 
HETATM   23  O3  UNL     1      50.613  58.722  40.832  1.00  0.00    -0.238 OA
ATOM     24  H2  UNL     1      49.809  56.034  42.461  1.00  0.00     0.170 HD
BRANCH  22  25
HETATM   25  O4  UNL     1      48.525  58.093  41.321  1.00  0.00    -0.294 OA
BRANCH  25  26
HETATM   26  C18 UNL     1      47.712  57.673  40.247  1.00  0.00     0.061 C 
HETATM   27  C19 UNL     1      48.214  58.075  38.900  1.00  0.00     0.046 C 
HETATM   28  C20 UNL     1      46.354  58.358  40.437  1.00  0.00     0.046 C 
HETATM   29  C21 UNL     1      47.453  56.176  40.294  1.00  0.00     0.046 C 
ENDBRANCH  25  26
ENDBRANCH  22  25
ENDBRANCH   1  21
TORSDOF 10
ENDMDL
MODEL 3
REMARK VINA RESULT: -7.437824286      1.802      6.511
REMARK  10 active torsions:
REMARK  status: ('A' for Active; 'I' for Inactive)
REMARK    1  A    between atoms: C2_2  and  C3_4 
REMARK    2  A    between atoms: C3_4  and  N1_5 
REMARK    3  A    between atoms: C3_4  and  C10_13 
REMARK    4  A    between atoms: N1_5  and  C4_7 
REMARK    5  A    between atoms: C10_13  and  C11_14 
REMARK    6  A    between atoms: C10_13  and  N2_21 
REMARK    7  A    between atoms: C11_14  and  O2_15 
REMARK    8  A    between atoms: O2_15  and  C12_16 
REMARK       I    between atoms: N2_21  and  C17_23 
REMARK    9  A    between atoms: C17_23  and  O4_25 
REMARK   10  A    between atoms: O4_25  and  C18_26 
ROOT
HETATM    1  C10 UNL     1      50.662  57.592  41.340  1.00  0.00     0.045 C 
ENDROOT
BRANCH   1   2
HETATM    2  C3  UNL     1      51.691  58.551  41.898  1.00  0.00     0.195 C 
BRANCH   2   3
HETATM    3  C2  UNL     1      53.073  58.324  41.505  1.00  0.00     0.150 C 
HETATM    4  C1  UNL     1      53.897  59.264  40.705  1.00  0.00     0.093 C 
HETATM    5  O1  UNL     1      53.697  57.285  41.829  1.00  0.00    -0.296 OA
ENDBRANCH   2   3
BRANCH   2   6
HETATM    6  N1  UNL     1      51.513  58.498  43.341  1.00  0.00    -0.402 N 
ATOM      7  H1  UNL     1      50.792  57.907  43.755  1.00  0.00     0.154 HD
BRANCH   6   8
HETATM    8  C4  UNL     1      52.349  59.274  44.150  1.00  0.00     0.077 C 
HETATM    9  C5  UNL     1      52.104  60.750  43.951  1.00  0.00     0.024 C 
HETATM   10  C6  UNL     1      53.298  61.477  44.573  1.00  0.00     0.002 C 
HETATM   11  C7  UNL     1      53.438  61.028  45.984  1.00  0.00     0.000 C 
HETATM   12  C8  UNL     1      52.352  60.141  46.498  1.00  0.00     0.002 C 
HETATM   13  C9  UNL     1      52.108  58.935  45.638  1.00  0.00     0.024 C 
ENDBRANCH   6   8
ENDBRANCH   2   6
ENDBRANCH   1   2
BRANCH   1  14
HETATM   14  C11 UNL     1      49.454  58.122  40.714  1.00  0.00     0.223 C 
BRANCH  14  15
HETATM   15  O2  UNL     1      49.061  57.644  39.493  1.00  0.00    -0.380 OA
BRANCH  15  16
HETATM   16  C12 UNL     1      47.691  57.402  39.575  1.00  0.00     0.121 C 
HETATM   17  C13 UNL     1      47.289  56.453  40.656  1.00  0.00     0.032 C 
HETATM   18  C14 UNL     1      45.761  56.606  40.614  1.00  0.00     0.002 C 
HETATM   19  C15 UNL     1      45.609  58.105  40.534  1.00  0.00     0.002 C 
HETATM   20  C16 UNL     1      46.906  58.649  39.938  1.00  0.00     0.032 C 
ENDBRANCH  15  16
ENDBRANCH  14  15
ENDBRANCH   1  14
BRANCH   1  21
HETATM   21  N2  UNL     1      51.283  56.477  40.651  1.00  0.00    -0.305 N 
HETATM   22  C17 UNL     1      50.990  55.105  40.932  1.00  0.00     0.365 C 
HETATM   23  O3  UNL     1      50.149  54.773  41.812  1.00  0.00    -0.238 OA
ATOM     24  H2  UNL     1      51.969  56.683  39.925  1.00  0.00     0.170 HD
BRANCH  22  25
HETATM   25  O4  UNL     1      51.598  54.051  40.271  1.00  0.00    -0.294 OA
BRANCH  25  26
HETATM   26  C18 UNL     1      52.575  53.224  40.863  1.00  0.00     0.061 C 
HETATM   27  C19 UNL     1      53.886  53.895  41.106  1.00  0.00     0.046 C 
HETATM   28  C20 UNL     1      52.837  52.085  39.871  1.00  0.00     0.046 C 
HETATM   29  C21 UNL     1      52.063  52.578  42.140  1.00  0.00     0.046 C 
ENDBRANCH  25  26
ENDBRANCH  22  25
ENDBRANCH   1  21
TORSDOF 10
ENDMDL
MODEL 4
REMARK VINA RESULT: -7.402987113      1.344      1.864
REMARK  10 active torsions:
REMARK  status: ('A' for Active; 'I' for Inactive)
REMARK    1  A    between atoms: C2_2  and  C3_4 
REMARK    2  A    between atoms: C3_4  and  N1_5 
REMARK    3  A    between atoms: C3_4  and  C10_13 
REMARK    4  A    between atoms: N1_5  and  C4_7 
REMARK    5  A    between atoms: C10_13  and  C11_14 
REMARK    6  A    between atoms: C10_13  and  N2_21 
REMARK    7  A    between atoms: C11_14  and  O2_15 
REMARK    8  A    between atoms: O2_15  and  C12_16 
REMARK       I    between atoms: N2_21  and  C17_23 
REMARK    9  A    between atoms: C17_23  and  O4_25 
REMARK   10  A    between atoms: O4_25  and  C18_26 
ROOT
HETATM    1  C10 UNL     1      51.698  57.409  42.833  1.00  0.00     0.045 C 
ENDROOT
BRANCH   1   2
HETATM    2  C3  UNL     1      51.277  56.122  42.157  1.00  0.00     0.195 C 
BRANCH   2   3
HETATM    3  C2  UNL     1      52.318  55.127  41.949  1.00  0.00     0.150 C 
HETATM    4  C1  UNL     1      52.333  54.125  40.855  1.00  0.00     0.093 C 
HETATM    5  O1  UNL     1      53.319  55.041  42.702  1.00  0.00    -0.296 OA
ENDBRANCH   2   3
BRANCH   2   6
HETATM    6  N1  UNL     1      50.655  56.536  40.909  1.00  0.00    -0.402 N 
ATOM      7  H1  UNL     1      51.176  56.510  40.033  1.00  0.00     0.154 HD
BRANCH   6   8
HETATM    8  C4  UNL     1      49.326  56.972  40.934  1.00  0.00     0.077 C 
HETATM    9  C5  UNL     1      48.948  57.679  39.656  1.00  0.00     0.024 C 
HETATM   10  C6  UNL     1      47.643  58.426  39.941  1.00  0.00     0.002 C 
HETATM   11  C7  UNL     1      46.648  57.451  40.461  1.00  0.00     0.000 C 
HETATM   12  C8  UNL     1      47.066  56.017  40.440  1.00  0.00     0.002 C 
HETATM   13  C9  UNL     1      48.379  55.767  41.125  1.00  0.00     0.024 C 
ENDBRANCH   6   8
ENDBRANCH   2   6
ENDBRANCH   1   2
BRANCH   1  14
HETATM   14  C11 UNL     1      51.701  57.485  44.291  1.00  0.00     0.223 C 
BRANCH  14  15
HETATM   15  O2  UNL     1      51.141  58.567  44.913  1.00  0.00    -0.380 OA
BRANCH  15  16
HETATM   16  C12 UNL     1      52.188  59.313  45.450  1.00  0.00     0.121 C 
HETATM   17  C13 UNL     1      52.473  60.593  44.734  1.00  0.00     0.032 C 
HETATM   18  C14 UNL     1      53.475  61.241  45.701  1.00  0.00     0.002 C 
HETATM   19  C15 UNL     1      52.807  61.003  47.034  1.00  0.00     0.002 C 
HETATM   20  C16 UNL     1      51.890  59.795  46.858  1.00  0.00     0.032 C 
ENDBRANCH  15  16
ENDBRANCH  14  15
ENDBRANCH   1  14
BRANCH   1  21
HETATM   21  N2  UNL     1      52.838  58.016  42.174  1.00  0.00    -0.305 N 
HETATM   22  C17 UNL     1      52.751  59.168  41.331  1.00  0.00     0.365 C 
HETATM   23  O3  UNL     1      51.651  59.744  41.106  1.00  0.00    -0.238 OA
ATOM     24  H2  UNL     1      53.757  57.596  42.322  1.00  0.00     0.170 HD
BRANCH  22  25
HETATM   25  O4  UNL     1      53.849  59.730  40.702  1.00  0.00    -0.294 OA
BRANCH  25  26
HETATM   26  C18 UNL     1      54.479  59.156  39.579  1.00  0.00     0.061 C 
HETATM   27  C19 UNL     1      55.760  58.454  39.882  1.00  0.00     0.046 C 
HETATM   28  C20 UNL     1      54.822  60.314  38.634  1.00  0.00     0.046 C 
HETATM   29  C21 UNL     1      53.537  58.239  38.816  1.00  0.00     0.046 C 
ENDBRANCH  25  26
ENDBRANCH  22  25
ENDBRANCH   1  21
TORSDOF 10
ENDMDL
MODEL 5
REMARK VINA RESULT: -7.397563336      1.759      5.345
REMARK  10 active torsions:
REMARK  status: ('A' for Active; 'I' for Inactive)
REMARK    1  A    between atoms: C2_2  and  C3_4 
REMARK    2  A    between atoms: C3_4  and  N1_5 
REMARK    3  A    between atoms: C3_4  and  C10_13 
REMARK    4  A    between atoms: N1_5  and  C4_7 
REMARK    5  A    between atoms: C10_13  and  C11_14 
REMARK    6  A    between atoms: C10_13  and  N2_21 
REMARK    7  A    between atoms: C11_14  and  O2_15 
REMARK    8  A    between atoms: O2_15  and  C12_16 
REMARK       I    between atoms: N2_21  and  C17_23 
REMARK    9  A    between atoms: C17_23  and  O4_25 
REMARK   10  A    between atoms: O4_25  and  C18_26 
ROOT
HETATM    1  C10 UNL     1      52.465  58.504  41.639  1.00  0.00     0.045 C 
ENDROOT
BRANCH   1   2
HETATM    2  C3  UNL     1      53.449  57.925  40.647  1.00  0.00     0.195 C 
BRANCH   2   3
HETATM    3  C2  UNL     1      53.768  58.749  39.491  1.00  0.00     0.150 C 
HETATM    4  C1  UNL     1      54.839  59.775  39.443  1.00  0.00     0.093 C 
HETATM    5  O1  UNL     1      53.145  58.647  38.406  1.00  0.00    -0.296 OA
ENDBRANCH   2   3
BRANCH   2   6
HETATM    6  N1  UNL     1      52.890  56.637  40.268  1.00  0.00    -0.402 N 
ATOM      7  H1  UNL     1      52.478  56.499  39.345  1.00  0.00     0.154 HD
BRANCH   6   8
HETATM    8  C4  UNL     1      52.928  55.590  41.193  1.00  0.00     0.077 C 
HETATM    9  C5  UNL     1      51.992  54.471  40.808  1.00  0.00     0.024 C 
HETATM   10  C6  UNL     1      51.833  53.590  42.049  1.00  0.00     0.002 C 
HETATM   11  C7  UNL     1      53.186  53.173  42.505  1.00  0.00     0.000 C 
HETATM   12  C8  UNL     1      54.322  53.553  41.613  1.00  0.00     0.002 C 
HETATM   13  C9  UNL     1      54.361  55.018  41.286  1.00  0.00     0.024 C 
ENDBRANCH   6   8
ENDBRANCH   2   6
ENDBRANCH   1   2
BRANCH   1  14
HETATM   14  C11 UNL     1      52.903  59.555  42.554  1.00  0.00     0.223 C 
BRANCH  14  15
HETATM   15  O2  UNL     1      52.056  60.587  42.851  1.00  0.00    -0.380 OA
BRANCH  15  16
HETATM   16  C12 UNL     1      52.115  60.774  44.231  1.00  0.00     0.121 C 
HETATM   17  C13 UNL     1      52.104  59.513  45.033  1.00  0.00     0.032 C 
HETATM   18  C14 UNL     1      52.415  60.064  46.432  1.00  0.00     0.002 C 
HETATM   19  C15 UNL     1      53.549  61.017  46.137  1.00  0.00     0.002 C 
HETATM   20  C16 UNL     1      53.417  61.420  44.670  1.00  0.00     0.032 C 
ENDBRANCH  15  16
ENDBRANCH  14  15
ENDBRANCH   1  14
BRANCH   1  21
HETATM   21  N2  UNL     1      51.155  58.698  41.049  1.00  0.00    -0.305 N 
HETATM   22  C17 UNL     1      49.931  58.317  41.683  1.00  0.00     0.365 C 
HETATM   23  O3  UNL     1      49.915  57.780  42.825  1.00  0.00    -0.238 OA
ATOM     24  H2  UNL     1      51.104  59.133  40.127  1.00  0.00     0.170 HD
BRANCH  22  25
HETATM   25  O4  UNL     1      48.688  58.501  41.102  1.00  0.00    -0.294 OA
BRANCH  25  26
HETATM   26  C18 UNL     1      48.170  57.663  40.093  1.00  0.00     0.061 C 
HETATM   27  C19 UNL     1      48.357  58.179  38.705  1.00  0.00     0.046 C 
HETATM   28  C20 UNL     1      46.658  57.576  40.334  1.00  0.00     0.046 C 
HETATM   29  C21 UNL     1      48.709  56.246  40.211  1.00  0.00     0.046 C 
ENDBRANCH  25  26
ENDBRANCH  22  25
ENDBRANCH   1  21
TORSDOF 10
ENDMDL
