MODEL 1
REMARK VINA RESULT: -6.230484647      0.000      0.000
REMARK  4 active torsions:
REMARK  status: ('A' for Active; 'I' for Inactive)
REMARK       I    between atoms: C2_2  and  N1_4 
REMARK    1  A    between atoms: N1_4  and  N2_6 
REMARK    2  A    between atoms: N2_6  and  C3_8 
REMARK    3  A    between atoms: C3_8  and  O2_9 
REMARK    4  A    between atoms: C3_8  and  N3_11 
REMARK       I    between atoms: N3_11  and  C4_13 
ROOT
HETATM    1  C3  UNL     1      73.263  12.872  31.390  1.00  0.00     0.239 C 
ENDROOT
BRANCH   1   2
HETATM    2  N2  UNL     1      74.289  13.794  31.670  1.00  0.00    -0.263 N 
ATOM      3  H2  UNL     1      74.155  14.792  31.511  1.00  0.00     0.190 HD
BRANCH   2   4
HETATM    4  N1  UNL     1      75.515  13.296  32.181  1.00  0.00    -0.267 N 
HETATM    5  C2  UNL     1      75.684  13.303  33.574  1.00  0.00     0.232 C 
HETATM    6  C1  UNL     1      76.941  12.798  34.156  1.00  0.00     0.119 C 
HETATM    7  O1  UNL     1      74.787  13.727  34.320  1.00  0.00    -0.272 OA
ATOM      8  H1  UNL     1      76.246  12.947  31.560  1.00  0.00     0.190 HD
ENDBRANCH   2   4
ENDBRANCH   1   2
BRANCH   1   9
HETATM    9  O2  UNL     1      72.940  12.712  30.134  1.00  0.00    -0.331 OA
ATOM     10  H2  UNL     1      72.895  11.819  29.812  1.00  0.00     0.221 HD
ENDBRANCH   1   9
BRANCH   1  11
HETATM   11  N3  UNL     1      72.555  12.111  32.330  1.00  0.00    -0.276 N 
HETATM   12  C4  UNL     1      72.973  10.922  32.929  1.00  0.00     0.335 C 
HETATM   13  N4  UNL     1      72.071  10.300  33.880  1.00  0.00    -0.040 NA
HETATM   14  O3  UNL     1      74.069  10.332  32.722  1.00  0.00    -0.251 OA
ATOM     15  H3  UNL     1      71.638  12.464  32.605  1.00  0.00     0.173 HD
ENDBRANCH   1  11
TORSDOF 4
ENDMDL
MODEL 2
REMARK VINA RESULT: -6.143469095      1.429      1.429
REMARK  4 active torsions:
REMARK  status: ('A' for Active; 'I' for Inactive)
REMARK       I    between atoms: C2_2  and  N1_4 
REMARK    1  A    between atoms: N1_4  and  N2_6 
REMARK    2  A    between atoms: N2_6  and  C3_8 
REMARK    3  A    between atoms: C3_8  and  O2_9 
REMARK    4  A    between atoms: C3_8  and  N3_11 
REMARK       I    between atoms: N3_11  and  C4_13 
ROOT
HETATM    1  C3  UNL     1      73.085  12.272  31.745  1.00  0.00     0.239 C 
ENDROOT
BRANCH   1   2
HETATM    2  N2  UNL     1      73.815  13.454  31.518  1.00  0.00    -0.263 N 
ATOM      3  H2  UNL     1      73.444  14.192  30.919  1.00  0.00     0.190 HD
BRANCH   2   4
HETATM    4  N1  UNL     1      75.079  13.591  32.146  1.00  0.00    -0.267 N 
HETATM    5  C2  UNL     1      75.125  13.446  33.541  1.00  0.00     0.232 C 
HETATM    6  C1  UNL     1      76.415  13.582  34.243  1.00  0.00     0.119 C 
HETATM    7  O1  UNL     1      74.094  13.206  34.189  1.00  0.00    -0.272 OA
ATOM      8  H1  UNL     1      75.922  13.787  31.605  1.00  0.00     0.190 HD
ENDBRANCH   2   4
ENDBRANCH   1   2
BRANCH   1   9
HETATM    9  O2  UNL     1      71.797  12.400  31.932  1.00  0.00    -0.331 OA
ATOM     10  H2  UNL     1      71.246  12.377  31.159  1.00  0.00     0.221 HD
ENDBRANCH   1   9
BRANCH   1  11
HETATM   11  N3  UNL     1      73.607  10.972  31.789  1.00  0.00    -0.276 N 
HETATM   12  C4  UNL     1      73.446  10.041  32.815  1.00  0.00     0.335 C 
HETATM   13  N4  UNL     1      74.081   8.746  32.649  1.00  0.00    -0.040 NA
HETATM   14  O3  UNL     1      72.795  10.215  33.881  1.00  0.00    -0.251 OA
ATOM     15  H3  UNL     1      74.164  10.677  30.986  1.00  0.00     0.173 HD
ENDBRANCH   1  11
TORSDOF 4
ENDMDL
MODEL 3
REMARK VINA RESULT: -6.079010253      1.538      3.505
REMARK  4 active torsions:
REMARK  status: ('A' for Active; 'I' for Inactive)
REMARK       I    between atoms: C2_2  and  N1_4 
REMARK    1  A    between atoms: N1_4  and  N2_6 
REMARK    2  A    between atoms: N2_6  and  C3_8 
REMARK    3  A    between atoms: C3_8  and  O2_9 
REMARK    4  A    between atoms: C3_8  and  N3_11 
REMARK       I    between atoms: N3_11  and  C4_13 
ROOT
HETATM    1  C3  UNL     1      73.519  12.786  31.502  1.00  0.00     0.239 C 
ENDROOT
BRANCH   1   2
HETATM    2  N2  UNL     1      73.011  11.473  31.536  1.00  0.00    -0.263 N 
ATOM      3  H2  UNL     1      72.144  11.234  31.053  1.00  0.00     0.190 HD
BRANCH   2   4
HETATM    4  N1  UNL     1      73.736  10.492  32.258  1.00  0.00    -0.267 N 
HETATM    5  C2  UNL     1      73.141   9.975  33.419  1.00  0.00     0.232 C 
HETATM    6  C1  UNL     1      73.855   8.954  34.209  1.00  0.00     0.119 C 
HETATM    7  O1  UNL     1      72.022  10.366  33.788  1.00  0.00    -0.272 OA
ATOM      8  H1  UNL     1      74.655  10.174  31.947  1.00  0.00     0.190 HD
ENDBRANCH   2   4
ENDBRANCH   1   2
BRANCH   1   9
HETATM    9  O2  UNL     1      72.860  13.656  30.783  1.00  0.00    -0.331 OA
ATOM     10  H2  UNL     1      72.396  14.338  31.254  1.00  0.00     0.221 HD
ENDBRANCH   1   9
BRANCH   1  11
HETATM   11  N3  UNL     1      74.664  13.246  32.166  1.00  0.00    -0.276 N 
HETATM   12  C4  UNL     1      74.852  13.332  33.546  1.00  0.00     0.335 C 
HETATM   13  N4  UNL     1      76.126  13.844  34.017  1.00  0.00    -0.040 NA
HETATM   14  O3  UNL     1      74.016  13.004  34.432  1.00  0.00    -0.251 OA
ATOM     15  H3  UNL     1      75.441  13.551  31.579  1.00  0.00     0.173 HD
ENDBRANCH   1  11
TORSDOF 4
ENDMDL
MODEL 4
REMARK VINA RESULT: -6.026096366      2.932      4.353
REMARK  4 active torsions:
REMARK  status: ('A' for Active; 'I' for Inactive)
REMARK       I    between atoms: C2_2  and  N1_4 
REMARK    1  A    between atoms: N1_4  and  N2_6 
REMARK    2  A    between atoms: N2_6  and  C3_8 
REMARK    3  A    between atoms: C3_8  and  O2_9 
REMARK    4  A    between atoms: C3_8  and  N3_11 
REMARK       I    between atoms: N3_11  and  C4_13 
ROOT
HETATM    1  C3  UNL     1      75.775  11.097  31.677  1.00  0.00     0.239 C 
ENDROOT
BRANCH   1   2
HETATM    2  N2  UNL     1      75.720   9.737  31.317  1.00  0.00    -0.263 N 
ATOM      3  H2  UNL     1      76.370   9.348  30.634  1.00  0.00     0.190 HD
BRANCH   2   4
HETATM    4  N1  UNL     1      74.735   8.921  31.931  1.00  0.00    -0.267 N 
HETATM    5  C2  UNL     1      75.180   7.933  32.822  1.00  0.00     0.232 C 
HETATM    6  C1  UNL     1      74.197   7.056  33.485  1.00  0.00     0.119 C 
HETATM    7  O1  UNL     1      76.390   7.789  33.057  1.00  0.00    -0.272 OA
ATOM      8  H1  UNL     1      73.742   9.048  31.732  1.00  0.00     0.190 HD
ENDBRANCH   2   4
ENDBRANCH   1   2
BRANCH   1   9
HETATM    9  O2  UNL     1      76.780  11.470  32.424  1.00  0.00    -0.331 OA
ATOM     10  H2  UNL     1      76.572  11.962  33.210  1.00  0.00     0.221 HD
ENDBRANCH   1   9
BRANCH   1  11
HETATM   11  N3  UNL     1      74.854  12.088  31.310  1.00  0.00    -0.276 N 
HETATM   12  C4  UNL     1      73.505  12.145  31.659  1.00  0.00     0.335 C 
HETATM   13  N4  UNL     1      72.733  13.270  31.162  1.00  0.00    -0.040 NA
HETATM   14  O3  UNL     1      72.885  11.308  32.370  1.00  0.00    -0.251 OA
ATOM     15  H3  UNL     1      75.208  12.846  30.726  1.00  0.00     0.173 HD
ENDBRANCH   1  11
TORSDOF 4
ENDMDL
MODEL 5
REMARK VINA RESULT: -5.976295725      2.214      4.056
REMARK  4 active torsions:
REMARK  status: ('A' for Active; 'I' for Inactive)
REMARK       I    between atoms: C2_2  and  N1_4 
REMARK    1  A    between atoms: N1_4  and  N2_6 
REMARK    2  A    between atoms: N2_6  and  C3_8 
REMARK    3  A    between atoms: C3_8  and  O2_9 
REMARK    4  A    between atoms: C3_8  and  N3_11 
REMARK       I    between atoms: N3_11  and  C4_13 
ROOT
HETATM    1  C3  UNL     1      74.901  11.737  31.828  1.00  0.00     0.239 C 
ENDROOT
BRANCH   1   2
HETATM    2  N2  UNL     1      73.820  10.834  31.814  1.00  0.00    -0.263 N 
ATOM      3  H2  UNL     1      73.023  10.980  31.194  1.00  0.00     0.190 HD
BRANCH   2   4
HETATM    4  N1  UNL     1      73.871   9.716  32.684  1.00  0.00    -0.267 N 
HETATM    5  C2  UNL     1      72.901   9.642  33.696  1.00  0.00     0.232 C 
HETATM    6  C1  UNL     1      72.911   8.500  34.629  1.00  0.00     0.119 C 
HETATM    7  O1  UNL     1      72.036  10.524  33.813  1.00  0.00    -0.272 OA
ATOM      8  H1  UNL     1      74.585   8.994  32.580  1.00  0.00     0.190 HD
ENDBRANCH   2   4
ENDBRANCH   1   2
BRANCH   1   9
HETATM    9  O2  UNL     1      75.780  11.621  30.867  1.00  0.00    -0.331 OA
ATOM     10  H2  UNL     1      76.604  11.203  31.087  1.00  0.00     0.221 HD
ENDBRANCH   1   9
BRANCH   1  11
HETATM   11  N3  UNL     1      75.122  12.747  32.773  1.00  0.00    -0.276 N 
HETATM   12  C4  UNL     1      76.240  12.891  33.596  1.00  0.00     0.335 C 
HETATM   13  N4  UNL     1      76.258  14.019  34.509  1.00  0.00    -0.040 NA
HETATM   14  O3  UNL     1      77.245  12.129  33.624  1.00  0.00    -0.251 OA
ATOM     15  H3  UNL     1      74.390  13.451  32.870  1.00  0.00     0.173 HD
ENDBRANCH   1  11
TORSDOF 4
ENDMDL
