MODEL 1
REMARK VINA RESULT: -6.003732910      0.000      0.000
REMARK  3 active torsions:
REMARK  status: ('A' for Active; 'I' for Inactive)
REMARK    1  A    between atoms: N1_1  and  N2_4 
REMARK       I    between atoms: N2_4  and  C1_6 
REMARK    2  A    between atoms: C1_6  and  C2_8 
REMARK       I    between atoms: C2_8  and  N3_10 
REMARK    3  A    between atoms: N3_10  and  N4_12 
REMARK       I    between atoms: N4_12  and  C3_14 
ROOT
HETATM    1  C2  UNL     1      75.409  10.305  32.138  1.00  0.00     0.329 C 
HETATM    2  O2  UNL     1      75.640   9.768  33.266  1.00  0.00    -0.261 OA
HETATM    3  N3  UNL     1      76.099   9.952  30.971  1.00  0.00    -0.258 N 
ATOM      4  H3  UNL     1      75.855  10.427  30.102  1.00  0.00     0.190 HD
ENDROOT
BRANCH   1   5
HETATM    5  C1  UNL     1      74.365  11.336  32.096  1.00  0.00     0.329 C 
HETATM    6  N2  UNL     1      74.370  12.361  31.103  1.00  0.00    -0.268 N 
ATOM      7  H2  UNL     1      75.103  12.404  30.394  1.00  0.00     0.190 HD
HETATM    8  O1  UNL     1      73.447  11.294  32.975  1.00  0.00    -0.261 OA
BRANCH   6   9
HETATM    9  N1  UNL     1      73.341  13.302  31.135  1.00  0.00    -0.342 N 
ATOM     10  H12 UNL     1      73.514  14.237  31.502  1.00  0.00     0.176 HD
ATOM     11  H11 UNL     1      72.427  13.018  30.781  1.00  0.00     0.176 HD
ENDBRANCH   6   9
ENDBRANCH   1   5
BRANCH   3  12
HETATM   12  N4  UNL     1      77.103   8.983  30.933  1.00  0.00    -0.251 N 
HETATM   13  C3  UNL     1      76.849   7.652  30.505  1.00  0.00     0.347 C 
HETATM   14  N5  UNL     1      77.871   6.680  30.471  1.00  0.00    -0.038 NA
HETATM   15  O3  UNL     1      75.653   7.368  30.148  1.00  0.00    -0.249 OA
ATOM     16  H4  UNL     1      78.046   9.238  31.223  1.00  0.00     0.191 HD
ENDBRANCH   3  12
TORSDOF 3
ENDMDL
MODEL 2
REMARK VINA RESULT: -5.961779725      1.536      1.640
REMARK  3 active torsions:
REMARK  status: ('A' for Active; 'I' for Inactive)
REMARK    1  A    between atoms: N1_1  and  N2_4 
REMARK       I    between atoms: N2_4  and  C1_6 
REMARK    2  A    between atoms: C1_6  and  C2_8 
REMARK       I    between atoms: C2_8  and  N3_10 
REMARK    3  A    between atoms: N3_10  and  N4_12 
REMARK       I    between atoms: N4_12  and  C3_14 
ROOT
HETATM    1  C2  UNL     1      75.870  10.289  32.076  1.00  0.00     0.329 C 
HETATM    2  O2  UNL     1      75.611   9.531  33.063  1.00  0.00    -0.261 OA
HETATM    3  N3  UNL     1      76.198   9.798  30.805  1.00  0.00    -0.258 N 
ATOM      4  H3  UNL     1      76.392  10.470  30.063  1.00  0.00     0.190 HD
ENDROOT
BRANCH   1   5
HETATM    5  C1  UNL     1      75.814  11.735  32.317  1.00  0.00     0.329 C 
HETATM    6  N2  UNL     1      74.859  12.564  31.657  1.00  0.00    -0.268 N 
ATOM      7  H2  UNL     1      74.187  12.171  30.996  1.00  0.00     0.190 HD
HETATM    8  O1  UNL     1      76.646  12.237  33.138  1.00  0.00    -0.261 OA
BRANCH   6   9
HETATM    9  N1  UNL     1      74.874  13.929  31.943  1.00  0.00    -0.342 N 
ATOM     10  H12 UNL     1      75.065  14.251  32.892  1.00  0.00     0.176 HD
ATOM     11  H11 UNL     1      74.688  14.577  31.178  1.00  0.00     0.176 HD
ENDBRANCH   6   9
ENDBRANCH   1   5
BRANCH   3  12
HETATM   12  N4  UNL     1      76.273   8.438  30.501  1.00  0.00    -0.251 N 
HETATM   13  C3  UNL     1      77.482   7.703  30.629  1.00  0.00     0.347 C 
HETATM   14  N5  UNL     1      77.547   6.328  30.319  1.00  0.00    -0.038 NA
HETATM   15  O3  UNL     1      78.515   8.339  31.039  1.00  0.00    -0.249 OA
ATOM     16  H4  UNL     1      75.434   7.958  30.177  1.00  0.00     0.191 HD
ENDBRANCH   3  12
TORSDOF 3
ENDMDL
MODEL 3
REMARK VINA RESULT: -5.935422560      1.680      5.073
REMARK  3 active torsions:
REMARK  status: ('A' for Active; 'I' for Inactive)
REMARK    1  A    between atoms: N1_1  and  N2_4 
REMARK       I    between atoms: N2_4  and  C1_6 
REMARK    2  A    between atoms: C1_6  and  C2_8 
REMARK       I    between atoms: C2_8  and  N3_10 
REMARK    3  A    between atoms: N3_10  and  N4_12 
REMARK       I    between atoms: N4_12  and  C3_14 
ROOT
HETATM    1  C2  UNL     1      75.843  10.663  31.810  1.00  0.00     0.329 C 
HETATM    2  O2  UNL     1      76.636  11.500  32.344  1.00  0.00    -0.261 OA
HETATM    3  N3  UNL     1      74.472  10.905  31.655  1.00  0.00    -0.258 N 
ATOM      4  H3  UNL     1      73.901  10.184  31.216  1.00  0.00     0.190 HD
ENDROOT
BRANCH   1   5
HETATM    5  C1  UNL     1      76.427   9.398  31.348  1.00  0.00     0.329 C 
HETATM    6  N2  UNL     1      76.752   9.185  29.976  1.00  0.00    -0.268 N 
ATOM      7  H2  UNL     1      76.587   9.910  29.276  1.00  0.00     0.190 HD
HETATM    8  O1  UNL     1      76.638   8.487  32.211  1.00  0.00    -0.261 OA
BRANCH   6   9
HETATM    9  N1  UNL     1      77.304   7.954  29.622  1.00  0.00    -0.342 N 
ATOM     10  H12 UNL     1      76.884   7.088  29.960  1.00  0.00     0.176 HD
ATOM     11  H11 UNL     1      78.129   7.958  29.022  1.00  0.00     0.176 HD
ENDBRANCH   6   9
ENDBRANCH   1   5
BRANCH   3  12
HETATM   12  N4  UNL     1      73.846  12.081  32.071  1.00  0.00    -0.251 N 
HETATM   13  C3  UNL     1      72.960  12.111  33.182  1.00  0.00     0.347 C 
HETATM   14  N5  UNL     1      72.332  13.306  33.593  1.00  0.00    -0.038 NA
HETATM   15  O3  UNL     1      72.753  11.008  33.797  1.00  0.00    -0.249 OA
ATOM     16  H4  UNL     1      74.030  12.945  31.562  1.00  0.00     0.191 HD
ENDBRANCH   3  12
TORSDOF 3
ENDMDL
MODEL 4
REMARK VINA RESULT: -5.910303201      1.297      1.297
REMARK  3 active torsions:
REMARK  status: ('A' for Active; 'I' for Inactive)
REMARK    1  A    between atoms: N1_1  and  N2_4 
REMARK       I    between atoms: N2_4  and  C1_6 
REMARK    2  A    between atoms: C1_6  and  C2_8 
REMARK       I    between atoms: C2_8  and  N3_10 
REMARK    3  A    between atoms: N3_10  and  N4_12 
REMARK       I    between atoms: N4_12  and  C3_14 
ROOT
HETATM    1  C2  UNL     1      74.505   9.845  32.141  1.00  0.00     0.329 C 
HETATM    2  O2  UNL     1      73.775   9.000  32.748  1.00  0.00    -0.261 OA
HETATM    3  N3  UNL     1      75.562   9.472  31.299  1.00  0.00    -0.258 N 
ATOM      4  H3  UNL     1      76.102  10.209  30.846  1.00  0.00     0.190 HD
ENDROOT
BRANCH   1   5
HETATM    5  C1  UNL     1      74.198  11.264  32.356  1.00  0.00     0.329 C 
HETATM    6  N2  UNL     1      74.277  12.213  31.294  1.00  0.00    -0.268 N 
ATOM      7  H2  UNL     1      74.551  11.928  30.353  1.00  0.00     0.190 HD
HETATM    8  O1  UNL     1      73.855  11.630  33.525  1.00  0.00    -0.261 OA
BRANCH   6   9
HETATM    9  N1  UNL     1      73.968  13.541  31.584  1.00  0.00    -0.342 N 
ATOM     10  H12 UNL     1      72.994  13.835  31.662  1.00  0.00     0.176 HD
ATOM     11  H11 UNL     1      74.742  14.193  31.713  1.00  0.00     0.176 HD
ENDBRANCH   6   9
ENDBRANCH   1   5
BRANCH   3  12
HETATM   12  N4  UNL     1      75.915   8.146  31.048  1.00  0.00    -0.251 N 
HETATM   13  C3  UNL     1      77.265   7.751  30.843  1.00  0.00     0.347 C 
HETATM   14  N5  UNL     1      77.610   6.407  30.589  1.00  0.00    -0.038 NA
HETATM   15  O3  UNL     1      78.158   8.666  30.899  1.00  0.00    -0.249 OA
ATOM     16  H4  UNL     1      75.181   7.438  31.009  1.00  0.00     0.191 HD
ENDBRANCH   3  12
TORSDOF 3
ENDMDL
MODEL 5
REMARK VINA RESULT: -5.764149904      2.063      2.093
REMARK  3 active torsions:
REMARK  status: ('A' for Active; 'I' for Inactive)
REMARK    1  A    between atoms: N1_1  and  N2_4 
REMARK       I    between atoms: N2_4  and  C1_6 
REMARK    2  A    between atoms: C1_6  and  C2_8 
REMARK       I    between atoms: C2_8  and  N3_10 
REMARK    3  A    between atoms: N3_10  and  N4_12 
REMARK       I    between atoms: N4_12  and  C3_14 
ROOT
HETATM    1  C2  UNL     1      73.962   9.934  32.909  1.00  0.00     0.329 C 
HETATM    2  O2  UNL     1      73.289   8.981  33.413  1.00  0.00    -0.261 OA
HETATM    3  N3  UNL     1      74.921   9.742  31.906  1.00  0.00    -0.258 N 
ATOM      4  H3  UNL     1      75.419  10.558  31.551  1.00  0.00     0.190 HD
ENDROOT
BRANCH   1   5
HETATM    5  C1  UNL     1      73.694  11.281  33.427  1.00  0.00     0.329 C 
HETATM    6  N2  UNL     1      74.729  12.080  33.997  1.00  0.00    -0.268 N 
ATOM      7  H2  UNL     1      75.688  11.734  34.059  1.00  0.00     0.190 HD
HETATM    8  O1  UNL     1      72.503  11.723  33.356  1.00  0.00    -0.261 OA
BRANCH   6   9
HETATM    9  N1  UNL     1      74.389  13.348  34.465  1.00  0.00    -0.342 N 
ATOM     10  H12 UNL     1      73.546  13.811  34.125  1.00  0.00     0.176 HD
ATOM     11  H11 UNL     1      75.009  13.785  35.148  1.00  0.00     0.176 HD
ENDBRANCH   6   9
ENDBRANCH   1   5
BRANCH   3  12
HETATM   12  N4  UNL     1      75.231   8.494  31.366  1.00  0.00    -0.251 N 
HETATM   13  C3  UNL     1      76.557   8.140  30.997  1.00  0.00     0.347 C 
HETATM   14  N5  UNL     1      76.859   6.875  30.451  1.00  0.00    -0.038 NA
HETATM   15  O3  UNL     1      77.471   9.018  31.180  1.00  0.00    -0.249 OA
ATOM     16  H4  UNL     1      74.482   7.814  31.232  1.00  0.00     0.191 HD
ENDBRANCH   3  12
TORSDOF 3
ENDMDL
