MODEL 1
REMARK VINA RESULT: -6.971945196      0.000      0.000
REMARK  6 active torsions:
REMARK  status: ('A' for Active; 'I' for Inactive)
REMARK    1  A    between atoms: N1_1  and  C1_4 
REMARK    2  A    between atoms: C2_7  and  N3_8 
REMARK    3  A    between atoms: N3_8  and  C3_10 
REMARK    4  A    between atoms: C3_10  and  C4_11 
REMARK    5  A    between atoms: C4_11  and  N4_12 
REMARK    6  A    between atoms: C9_23  and  N5_24 
ROOT
HETATM    1  C1  UNL     1       5.251  19.087  15.236  1.00  0.00     0.678 A 
HETATM    2  N2  UNL     1       6.267  19.607  14.543  1.00  0.00    -0.176 N 
ATOM      3  H2  UNL     1       6.199  20.573  14.223  1.00  0.00     0.186 HD
HETATM    4  C2  UNL     1       7.376  18.903  14.253  1.00  0.00     0.133 A 
HETATM    5  C5  UNL     1       7.431  17.592  14.706  1.00  0.00     0.092 A 
HETATM    6  C6  UNL     1       8.570  16.860  14.410  1.00  0.00     0.242 A 
HETATM    7  O1  UNL     1       9.513  17.387  13.751  1.00  0.00    -0.283 OA
HETATM    8  C7  UNL     1       8.642  15.571  14.847  1.00  0.00     0.274 A 
HETATM    9  O2  UNL     1       9.665  14.884  14.592  1.00  0.00    -0.280 OA
HETATM   10  C8  UNL     1       7.621  15.001  15.561  1.00  0.00     0.254 A 
HETATM   11  O3  UNL     1       7.712  13.794  15.958  1.00  0.00    -0.281 OA
HETATM   12  C9  UNL     1       6.453  15.706  15.880  1.00  0.00     0.109 A 
HETATM   13  C10 UNL     1       6.389  17.019  15.430  1.00  0.00     0.097 A 
HETATM   14  N6  UNL     1       5.319  17.794  15.676  1.00  0.00    -0.189 N 
ATOM     15  H6  UNL     1       4.536  17.407  16.205  1.00  0.00     0.184 HD
ENDROOT
BRANCH   4  16
HETATM   16  N3  UNL     1       8.367  19.386  13.585  1.00  0.00    -0.373 N 
ATOM     17  H3  UNL     1       9.331  19.154  13.824  1.00  0.00     0.161 HD
BRANCH  16  18
HETATM   18  C3  UNL     1       8.056  20.271  12.483  1.00  0.00     0.148 C 
BRANCH  18  19
HETATM   19  C4  UNL     1       8.709  19.793  11.198  1.00  0.00     0.249 C 
BRANCH  19  20
HETATM   20  N4  UNL     1       9.930  19.042  11.494  1.00  0.00    -0.078 N 
ATOM     21  H43 UNL     1       9.733  18.187  12.013  1.00  0.00     0.274 HD
ATOM     22  H42 UNL     1      10.330  18.621  10.654  1.00  0.00     0.274 HD
ATOM     23  H41 UNL     1      10.603  19.634  11.979  1.00  0.00     0.274 HD
ENDBRANCH  19  20
ENDBRANCH  18  19
ENDBRANCH  16  18
ENDBRANCH   4  16
BRANCH   1  24
HETATM   24  N1  UNL     1       4.195  19.776  15.506  1.00  0.00    -0.234 N 
ATOM     25  H12 UNL     1       4.280  20.573  16.138  1.00  0.00     0.174 HD
ATOM     26  H11 UNL     1       3.287  19.543  15.104  1.00  0.00     0.174 HD
ENDBRANCH   1  24
BRANCH  12  27
HETATM   27  N5  UNL     1       5.526  15.150  16.542  1.00  0.00    -0.394 N 
ATOM     28  H52 UNL     1       4.833  14.529  16.125  1.00  0.00     0.156 HD
ATOM     29  H51 UNL     1       5.438  15.310  17.546  1.00  0.00     0.156 HD
ENDBRANCH  12  27
TORSDOF 6
ENDMDL
MODEL 2
REMARK VINA RESULT: -6.810434128      1.644      4.346
REMARK  6 active torsions:
REMARK  status: ('A' for Active; 'I' for Inactive)
REMARK    1  A    between atoms: N1_1  and  C1_4 
REMARK    2  A    between atoms: C2_7  and  N3_8 
REMARK    3  A    between atoms: N3_8  and  C3_10 
REMARK    4  A    between atoms: C3_10  and  C4_11 
REMARK    5  A    between atoms: C4_11  and  N4_12 
REMARK    6  A    between atoms: C9_23  and  N5_24 
ROOT
HETATM    1  C1  UNL     1       6.825  19.854  14.682  1.00  0.00     0.678 A 
HETATM    2  N2  UNL     1       5.830  19.238  15.325  1.00  0.00    -0.176 N 
ATOM      3  H2  UNL     1       5.039  19.792  15.653  1.00  0.00     0.186 HD
HETATM    4  C2  UNL     1       5.833  17.912  15.555  1.00  0.00     0.133 A 
HETATM    5  C5  UNL     1       6.926  17.191  15.093  1.00  0.00     0.092 A 
HETATM    6  C6  UNL     1       6.937  15.826  15.327  1.00  0.00     0.242 A 
HETATM    7  O1  UNL     1       5.976  15.276  15.940  1.00  0.00    -0.283 OA
HETATM    8  C7  UNL     1       8.002  15.101  14.881  1.00  0.00     0.274 A 
HETATM    9  O2  UNL     1       8.037  13.860  15.080  1.00  0.00    -0.280 OA
HETATM   10  C8  UNL     1       9.042  15.697  14.217  1.00  0.00     0.254 A 
HETATM   11  O3  UNL     1      10.026  14.998  13.810  1.00  0.00    -0.281 OA
HETATM   12  C9  UNL     1       9.070  17.074  13.961  1.00  0.00     0.109 A 
HETATM   13  C10 UNL     1       7.980  17.803  14.420  1.00  0.00     0.097 A 
HETATM   14  N6  UNL     1       7.896  19.131  14.232  1.00  0.00    -0.189 N 
ATOM     15  H6  UNL     1       8.650  19.613  13.742  1.00  0.00     0.184 HD
ENDROOT
BRANCH   4  16
HETATM   16  N3  UNL     1       4.884  17.298  16.173  1.00  0.00    -0.373 N 
ATOM     17  H3  UNL     1       5.020  16.366  16.565  1.00  0.00     0.161 HD
BRANCH  16  18
HETATM   18  C3  UNL     1       3.615  17.986  16.290  1.00  0.00     0.148 C 
BRANCH  18  19
HETATM   19  C4  UNL     1       2.554  17.077  16.884  1.00  0.00     0.249 C 
BRANCH  19  20
HETATM   20  N4  UNL     1       3.062  15.709  17.005  1.00  0.00    -0.078 N 
ATOM     21  H43 UNL     1       2.800  15.134  16.204  1.00  0.00     0.274 HD
ATOM     22  H42 UNL     1       4.075  15.669  16.895  1.00  0.00     0.274 HD
ATOM     23  H41 UNL     1       2.759  15.293  17.885  1.00  0.00     0.274 HD
ENDBRANCH  19  20
ENDBRANCH  18  19
ENDBRANCH  16  18
ENDBRANCH   4  16
BRANCH   1  24
HETATM   24  N1  UNL     1       6.806  21.126  14.469  1.00  0.00    -0.234 N 
ATOM     25  H12 UNL     1       6.042  21.676  14.864  1.00  0.00     0.174 HD
ATOM     26  H11 UNL     1       7.532  21.587  13.921  1.00  0.00     0.174 HD
ENDBRANCH   1  24
BRANCH  12  27
HETATM   27  N5  UNL     1      10.047  17.595  13.344  1.00  0.00    -0.394 N 
ATOM     28  H52 UNL     1      10.914  17.096  13.144  1.00  0.00     0.156 HD
ATOM     29  H51 UNL     1       9.999  18.560  13.016  1.00  0.00     0.156 HD
ENDBRANCH  12  27
TORSDOF 6
ENDMDL
MODEL 3
REMARK VINA RESULT: -6.714044986      1.677      4.817
REMARK  6 active torsions:
REMARK  status: ('A' for Active; 'I' for Inactive)
REMARK    1  A    between atoms: N1_1  and  C1_4 
REMARK    2  A    between atoms: C2_7  and  N3_8 
REMARK    3  A    between atoms: N3_8  and  C3_10 
REMARK    4  A    between atoms: C3_10  and  C4_11 
REMARK    5  A    between atoms: C4_11  and  N4_12 
REMARK    6  A    between atoms: C9_23  and  N5_24 
ROOT
HETATM    1  C1  UNL     1       5.008  17.629  16.133  1.00  0.00     0.678 A 
HETATM    2  N2  UNL     1       4.942  16.317  16.373  1.00  0.00    -0.176 N 
ATOM      3  H2  UNL     1       4.143  15.952  16.893  1.00  0.00     0.186 HD
HETATM    4  C2  UNL     1       5.889  15.459  15.952  1.00  0.00     0.133 A 
HETATM    5  C5  UNL     1       6.960  15.993  15.248  1.00  0.00     0.092 A 
HETATM    6  C6  UNL     1       7.940  15.116  14.812  1.00  0.00     0.242 A 
HETATM    7  O1  UNL     1       7.844  13.878  15.058  1.00  0.00    -0.283 OA
HETATM    8  C7  UNL     1       8.998  15.622  14.118  1.00  0.00     0.274 A 
HETATM    9  O2  UNL     1       9.902  14.847  13.711  1.00  0.00    -0.280 OA
HETATM   10  C8  UNL     1       9.103  16.962  13.852  1.00  0.00     0.254 A 
HETATM   11  O3  UNL     1      10.102  17.410  13.201  1.00  0.00    -0.281 OA
HETATM   12  C9  UNL     1       8.133  17.881  14.275  1.00  0.00     0.109 A 
HETATM   13  C10 UNL     1       7.059  17.356  14.981  1.00  0.00     0.097 A 
HETATM   14  N6  UNL     1       6.068  18.141  15.437  1.00  0.00    -0.189 N 
ATOM     15  H6  UNL     1       6.108  19.145  15.260  1.00  0.00     0.184 HD
ENDROOT
BRANCH   4  16
HETATM   16  N3  UNL     1       5.845  14.190  16.174  1.00  0.00    -0.373 N 
ATOM     17  H3  UNL     1       6.682  13.611  16.112  1.00  0.00     0.161 HD
BRANCH  16  18
HETATM   18  C3  UNL     1       4.557  13.621  16.513  1.00  0.00     0.148 C 
BRANCH  18  19
HETATM   19  C4  UNL     1       4.488  12.156  16.121  1.00  0.00     0.249 C 
BRANCH  19  20
HETATM   20  N4  UNL     1       5.760  11.720  15.543  1.00  0.00    -0.078 N 
ATOM     21  H43 UNL     1       6.013  10.780  15.845  1.00  0.00     0.274 HD
ATOM     22  H42 UNL     1       5.681  11.542  14.541  1.00  0.00     0.274 HD
ATOM     23  H41 UNL     1       6.496  12.396  15.751  1.00  0.00     0.274 HD
ENDBRANCH  19  20
ENDBRANCH  18  19
ENDBRANCH  16  18
ENDBRANCH   4  16
BRANCH   1  24
HETATM   24  N1  UNL     1       4.090  18.437  16.543  1.00  0.00    -0.234 N 
ATOM     25  H12 UNL     1       3.333  18.682  15.903  1.00  0.00     0.174 HD
ATOM     26  H11 UNL     1       4.105  18.831  17.484  1.00  0.00     0.174 HD
ENDBRANCH   1  24
BRANCH  12  27
HETATM   27  N5  UNL     1       8.259  19.115  14.012  1.00  0.00    -0.394 N 
ATOM     28  H52 UNL     1       8.847  19.471  13.258  1.00  0.00     0.156 HD
ATOM     29  H51 UNL     1       7.761  19.815  14.563  1.00  0.00     0.156 HD
ENDBRANCH  12  27
TORSDOF 6
ENDMDL
MODEL 4
REMARK VINA RESULT: -6.647801744      1.824      4.060
REMARK  6 active torsions:
REMARK  status: ('A' for Active; 'I' for Inactive)
REMARK    1  A    between atoms: N1_1  and  C1_4 
REMARK    2  A    between atoms: C2_7  and  N3_8 
REMARK    3  A    between atoms: N3_8  and  C3_10 
REMARK    4  A    between atoms: C3_10  and  C4_11 
REMARK    5  A    between atoms: C4_11  and  N4_12 
REMARK    6  A    between atoms: C9_23  and  N5_24 
ROOT
HETATM    1  C1  UNL     1       7.429  19.467  13.741  1.00  0.00     0.678 A 
HETATM    2  N2  UNL     1       6.246  18.857  13.844  1.00  0.00    -0.176 N 
ATOM      3  H2  UNL     1       5.418  19.323  13.471  1.00  0.00     0.186 HD
HETATM    4  C2  UNL     1       6.105  17.650  14.422  1.00  0.00     0.133 A 
HETATM    5  C5  UNL     1       7.253  17.047  14.918  1.00  0.00     0.092 A 
HETATM    6  C6  UNL     1       7.117  15.805  15.515  1.00  0.00     0.242 A 
HETATM    7  O1  UNL     1       5.979  15.257  15.595  1.00  0.00    -0.283 OA
HETATM    8  C7  UNL     1       8.233  15.197  16.007  1.00  0.00     0.274 A 
HETATM    9  O2  UNL     1       8.137  14.068  16.554  1.00  0.00    -0.280 OA
HETATM   10  C8  UNL     1       9.466  15.790  15.920  1.00  0.00     0.254 A 
HETATM   11  O3  UNL     1      10.494  15.202  16.388  1.00  0.00    -0.281 OA
HETATM   12  C9  UNL     1       9.646  17.045  15.325  1.00  0.00     0.109 A 
HETATM   13  C10 UNL     1       8.502  17.656  14.826  1.00  0.00     0.097 A 
HETATM   14  N6  UNL     1       8.552  18.861  14.233  1.00  0.00    -0.189 N 
ATOM     15  H6  UNL     1       9.451  19.336  14.148  1.00  0.00     0.184 HD
ENDROOT
BRANCH   4  16
HETATM   16  N3  UNL     1       4.973  17.045  14.533  1.00  0.00    -0.373 N 
ATOM     17  H3  UNL     1       4.903  16.030  14.454  1.00  0.00     0.161 HD
BRANCH  16  18
HETATM   18  C3  UNL     1       3.803  17.864  14.771  1.00  0.00     0.148 C 
BRANCH  18  19
HETATM   19  C4  UNL     1       3.306  17.705  16.197  1.00  0.00     0.249 C 
BRANCH  19  20
HETATM   20  N4  UNL     1       4.256  18.302  17.139  1.00  0.00    -0.078 N 
ATOM     21  H43 UNL     1       4.401  17.711  17.957  1.00  0.00     0.274 HD
ATOM     22  H42 UNL     1       5.209  18.293  16.774  1.00  0.00     0.274 HD
ATOM     23  H41 UNL     1       3.957  19.242  17.398  1.00  0.00     0.274 HD
ENDBRANCH  19  20
ENDBRANCH  18  19
ENDBRANCH  16  18
ENDBRANCH   4  16
BRANCH   1  24
HETATM   24  N1  UNL     1       7.546  20.624  13.183  1.00  0.00    -0.234 N 
ATOM     25  H12 UNL     1       6.747  21.003  12.674  1.00  0.00     0.174 HD
ATOM     26  H11 UNL     1       8.412  21.160  13.242  1.00  0.00     0.174 HD
ENDBRANCH   1  24
BRANCH  12  27
HETATM   27  N5  UNL     1      10.800  17.567  15.260  1.00  0.00    -0.394 N 
ATOM     28  H52 UNL     1      11.163  18.022  14.422  1.00  0.00     0.156 HD
ATOM     29  H51 UNL     1      11.423  17.549  16.067  1.00  0.00     0.156 HD
ENDBRANCH  12  27
TORSDOF 6
ENDMDL
MODEL 5
REMARK VINA RESULT: -6.601689499      2.688      5.650
REMARK  6 active torsions:
REMARK  status: ('A' for Active; 'I' for Inactive)
REMARK    1  A    between atoms: N1_1  and  C1_4 
REMARK    2  A    between atoms: C2_7  and  N3_8 
REMARK    3  A    between atoms: N3_8  and  C3_10 
REMARK    4  A    between atoms: C3_10  and  C4_11 
REMARK    5  A    between atoms: C4_11  and  N4_12 
REMARK    6  A    between atoms: C9_23  and  N5_24 
ROOT
HETATM    1  C1  UNL     1       9.087  17.445  14.017  1.00  0.00     0.678 A 
HETATM    2  N2  UNL     1       8.541  16.339  14.529  1.00  0.00    -0.176 N 
ATOM      3  H2  UNL     1       9.077  15.471  14.508  1.00  0.00     0.186 HD
HETATM    4  C2  UNL     1       7.309  16.327  15.071  1.00  0.00     0.133 A 
HETATM    5  C5  UNL     1       6.611  17.527  15.081  1.00  0.00     0.092 A 
HETATM    6  C6  UNL     1       5.342  17.524  15.637  1.00  0.00     0.242 A 
HETATM    7  O1  UNL     1       4.856  16.456  16.112  1.00  0.00    -0.283 OA
HETATM    8  C7  UNL     1       4.641  18.693  15.657  1.00  0.00     0.274 A 
HETATM    9  O2  UNL     1       3.486  18.717  16.155  1.00  0.00    -0.280 OA
HETATM   10  C8  UNL     1       5.167  19.849  15.142  1.00  0.00     0.254 A 
HETATM   11  O3  UNL     1       4.492  20.929  15.172  1.00  0.00    -0.281 OA
HETATM   12  C9  UNL     1       6.445  19.895  14.571  1.00  0.00     0.109 A 
HETATM   13  C10 UNL     1       7.151  18.698  14.556  1.00  0.00     0.097 A 
HETATM   14  N6  UNL     1       8.388  18.620  14.035  1.00  0.00    -0.189 N 
ATOM     15  H6  UNL     1       8.815  19.459  13.642  1.00  0.00     0.184 HD
ENDROOT
BRANCH   4  16
HETATM   16  N3  UNL     1       6.764  15.272  15.568  1.00  0.00    -0.373 N 
ATOM     17  H3  UNL     1       5.897  15.323  16.103  1.00  0.00     0.161 HD
BRANCH  16  18
HETATM   18  C3  UNL     1       7.433  14.008  15.339  1.00  0.00     0.148 C 
BRANCH  18  19
HETATM   19  C4  UNL     1       6.702  12.870  16.028  1.00  0.00     0.249 C 
BRANCH  19  20
HETATM   20  N4  UNL     1       5.505  13.368  16.708  1.00  0.00    -0.078 N 
ATOM     21  H43 UNL     1       5.171  12.715  17.416  1.00  0.00     0.274 HD
ATOM     22  H42 UNL     1       5.716  14.158  17.317  1.00  0.00     0.274 HD
ATOM     23  H41 UNL     1       4.778  13.596  16.029  1.00  0.00     0.274 HD
ENDBRANCH  19  20
ENDBRANCH  18  19
ENDBRANCH  16  18
ENDBRANCH   4  16
BRANCH   1  24
HETATM   24  N1  UNL     1      10.270  17.437  13.502  1.00  0.00    -0.234 N 
ATOM     25  H12 UNL     1      10.611  18.287  13.051  1.00  0.00     0.174 HD
ATOM     26  H11 UNL     1      10.863  16.608  13.538  1.00  0.00     0.174 HD
ENDBRANCH   1  24
BRANCH  12  27
HETATM   27  N5  UNL     1       6.904  20.980  14.104  1.00  0.00    -0.394 N 
ATOM     28  H52 UNL     1       6.448  21.883  14.235  1.00  0.00     0.156 HD
ATOM     29  H51 UNL     1       7.770  20.988  13.565  1.00  0.00     0.156 HD
ENDBRANCH  12  27
TORSDOF 6
ENDMDL
