MODEL 1
REMARK VINA RESULT: -5.852396729      0.000      0.000
REMARK  3 active torsions:
REMARK  status: ('A' for Active; 'I' for Inactive)
REMARK    1  A    between atoms: N1_1  and  C1_4 
REMARK    2  A    between atoms: C2_9  and  C3_10 
REMARK    3  A    between atoms: C3_10  and  N4_11 
ROOT
HETATM    1  C1  UNL     1      27.620  50.722  61.854  1.00  0.00     0.691 A 
HETATM    2  N2  UNL     1      27.617  49.594  61.124  1.00  0.00    -0.132 N 
ATOM      3  H2  UNL     1      27.316  48.716  61.544  1.00  0.00     0.205 HD
HETATM    4  N3  UNL     1      28.005  49.625  59.860  1.00  0.00    -0.286 N 
ATOM      5  H3  UNL     1      27.997  48.761  59.319  1.00  0.00     0.187 HD
HETATM    6  C2  UNL     1      28.411  50.770  59.266  1.00  0.00     0.086 A 
HETATM    7  C4  UNL     1      28.400  51.903  60.045  1.00  0.00     0.121 A 
HETATM    8 BR1  UNL     1      28.966  53.553  59.248  1.00  0.00    -0.029 Br
HETATM    9  N5  UNL     1      28.011  51.908  61.333  1.00  0.00    -0.182 N 
ATOM     10  H5  UNL     1      28.012  52.763  61.890  1.00  0.00     0.185 HD
ENDROOT
BRANCH   6  11
HETATM   11  C3  UNL     1      28.850  50.837  57.856  1.00  0.00     0.290 C 
BRANCH  11  12
HETATM   12  N4  UNL     1      27.724  50.938  56.978  1.00  0.00    -0.074 N 
ATOM     13  H43 UNL     1      26.933  51.396  57.430  1.00  0.00     0.274 HD
ATOM     14  H42 UNL     1      27.887  51.613  56.232  1.00  0.00     0.274 HD
ATOM     15  H41 UNL     1      27.471  50.022  56.609  1.00  0.00     0.274 HD
ENDBRANCH  11  12
ENDBRANCH   6  11
BRANCH   1  16
HETATM   16  N1  UNL     1      27.250  50.755  63.099  1.00  0.00    -0.233 N 
ATOM     17  H12 UNL     1      27.418  51.638  63.581  1.00  0.00     0.174 HD
ATOM     18  H11 UNL     1      26.821  49.958  63.569  1.00  0.00     0.174 HD
ENDBRANCH   1  16
TORSDOF 3
ENDMDL
MODEL 2
REMARK VINA RESULT: -5.652011350      1.894      2.465
REMARK  3 active torsions:
REMARK  status: ('A' for Active; 'I' for Inactive)
REMARK    1  A    between atoms: N1_1  and  C1_4 
REMARK    2  A    between atoms: C2_9  and  C3_10 
REMARK    3  A    between atoms: C3_10  and  N4_11 
ROOT
HETATM    1  C1  UNL     1      27.897  50.250  61.528  1.00  0.00     0.691 A 
HETATM    2  N2  UNL     1      27.764  51.564  61.775  1.00  0.00    -0.132 N 
ATOM      3  H2  UNL     1      27.431  51.880  62.686  1.00  0.00     0.205 HD
HETATM    4  N3  UNL     1      28.065  52.446  60.839  1.00  0.00    -0.286 N 
ATOM      5  H3  UNL     1      27.959  53.440  61.042  1.00  0.00     0.187 HD
HETATM    6  C2  UNL     1      28.510  52.068  59.618  1.00  0.00     0.086 A 
HETATM    7  C4  UNL     1      28.633  50.716  59.403  1.00  0.00     0.121 A 
HETATM    8 BR1  UNL     1      29.261  50.129  57.688  1.00  0.00    -0.029 Br
HETATM    9  N5  UNL     1      28.336  49.790  60.333  1.00  0.00    -0.182 N 
ATOM     10  H5  UNL     1      28.437  48.792  60.147  1.00  0.00     0.185 HD
ENDROOT
BRANCH   6  11
HETATM   11  C3  UNL     1      28.854  53.030  58.550  1.00  0.00     0.290 C 
BRANCH  11  12
HETATM   12  N4  UNL     1      30.197  53.502  58.705  1.00  0.00    -0.074 N 
ATOM     13  H43 UNL     1      30.742  52.895  59.317  1.00  0.00     0.274 HD
ATOM     14  H42 UNL     1      30.740  53.384  57.850  1.00  0.00     0.274 HD
ATOM     15  H41 UNL     1      30.205  54.469  59.027  1.00  0.00     0.274 HD
ENDBRANCH  11  12
ENDBRANCH   6  11
BRANCH   1  16
HETATM   16  N1  UNL     1      27.618  49.336  62.408  1.00  0.00    -0.233 N 
ATOM     17  H12 UNL     1      28.417  48.967  62.923  1.00  0.00     0.174 HD
ATOM     18  H11 UNL     1      26.668  49.005  62.578  1.00  0.00     0.174 HD
ENDBRANCH   1  16
TORSDOF 3
ENDMDL
MODEL 3
REMARK VINA RESULT: -5.429010842      1.265      1.279
REMARK  3 active torsions:
REMARK  status: ('A' for Active; 'I' for Inactive)
REMARK    1  A    between atoms: N1_1  and  C1_4 
REMARK    2  A    between atoms: C2_9  and  C3_10 
REMARK    3  A    between atoms: C3_10  and  N4_11 
ROOT
HETATM    1  C1  UNL     1      27.612  50.073  61.485  1.00  0.00     0.691 A 
HETATM    2  N2  UNL     1      27.733  49.408  60.324  1.00  0.00    -0.132 N 
ATOM      3  H2  UNL     1      27.521  48.412  60.283  1.00  0.00     0.205 HD
HETATM    4  N3  UNL     1      28.127  50.046  59.235  1.00  0.00    -0.286 N 
ATOM      5  H3  UNL     1      28.214  49.528  58.361  1.00  0.00     0.187 HD
HETATM    6  C2  UNL     1      28.418  51.368  59.248  1.00  0.00     0.086 A 
HETATM    7  C4  UNL     1      28.283  52.013  60.454  1.00  0.00     0.121 A 
HETATM    8 BR1  UNL     1      28.683  53.888  60.524  1.00  0.00    -0.029 Br
HETATM    9  N5  UNL     1      27.884  51.396  61.581  1.00  0.00    -0.182 N 
ATOM     10  H5  UNL     1      27.791  51.899  62.464  1.00  0.00     0.185 HD
ENDROOT
BRANCH   6  11
HETATM   11  C3  UNL     1      28.862  52.109  58.048  1.00  0.00     0.290 C 
BRANCH  11  12
HETATM   12  N4  UNL     1      30.273  51.963  57.856  1.00  0.00    -0.074 N 
ATOM     13  H43 UNL     1      30.533  50.992  57.690  1.00  0.00     0.274 HD
ATOM     14  H42 UNL     1      30.575  52.357  56.965  1.00  0.00     0.274 HD
ATOM     15  H41 UNL     1      30.787  52.365  58.640  1.00  0.00     0.274 HD
ENDBRANCH  11  12
ENDBRANCH   6  11
BRANCH   1  16
HETATM   16  N1  UNL     1      27.229  49.502  62.587  1.00  0.00    -0.233 N 
ATOM     17  H12 UNL     1      27.134  48.487  62.543  1.00  0.00     0.174 HD
ATOM     18  H11 UNL     1      27.035  50.024  63.441  1.00  0.00     0.174 HD
ENDBRANCH   1  16
TORSDOF 3
ENDMDL
MODEL 4
REMARK VINA RESULT: -5.225327964      1.369      3.639
REMARK  3 active torsions:
REMARK  status: ('A' for Active; 'I' for Inactive)
REMARK    1  A    between atoms: N1_1  and  C1_4 
REMARK    2  A    between atoms: C2_9  and  C3_10 
REMARK    3  A    between atoms: C3_10  and  N4_11 
ROOT
HETATM    1  C1  UNL     1      28.279  50.707  57.785  1.00  0.00     0.691 A 
HETATM    2  N2  UNL     1      28.090  49.505  58.353  1.00  0.00    -0.132 N 
ATOM      3  H2  UNL     1      28.054  48.667  57.773  1.00  0.00     0.205 HD
HETATM    4  N3  UNL     1      27.951  49.408  59.664  1.00  0.00    -0.286 N 
ATOM      5  H3  UNL     1      27.807  48.489  60.081  1.00  0.00     0.187 HD
HETATM    6  C2  UNL     1      27.992  50.496  60.469  1.00  0.00     0.086 A 
HETATM    7  C4  UNL     1      28.188  51.708  59.851  1.00  0.00     0.121 A 
HETATM    8 BR1  UNL     1      28.255  53.280  60.948  1.00  0.00    -0.029 Br
HETATM    9  N5  UNL     1      28.334  51.843  58.520  1.00  0.00    -0.182 N 
ATOM     10  H5  UNL     1      28.478  52.755  58.086  1.00  0.00     0.185 HD
ENDROOT
BRANCH   6  11
HETATM   11  C3  UNL     1      27.839  50.420  61.937  1.00  0.00     0.290 C 
BRANCH  11  12
HETATM   12  N4  UNL     1      26.945  49.363  62.300  1.00  0.00    -0.074 N 
ATOM     13  H43 UNL     1      26.968  49.177  63.302  1.00  0.00     0.274 HD
ATOM     14  H42 UNL     1      25.970  49.649  62.219  1.00  0.00     0.274 HD
ATOM     15  H41 UNL     1      27.139  48.524  61.754  1.00  0.00     0.274 HD
ENDBRANCH  11  12
ENDBRANCH   6  11
BRANCH   1  16
HETATM   16  N1  UNL     1      28.423  50.866  56.504  1.00  0.00    -0.233 N 
ATOM     17  H12 UNL     1      29.302  50.521  56.117  1.00  0.00     0.174 HD
ATOM     18  H11 UNL     1      27.712  51.303  55.918  1.00  0.00     0.174 HD
ENDBRANCH   1  16
TORSDOF 3
ENDMDL
MODEL 5
REMARK VINA RESULT: -4.860055604      2.107      3.495
REMARK  3 active torsions:
REMARK  status: ('A' for Active; 'I' for Inactive)
REMARK    1  A    between atoms: N1_1  and  C1_4 
REMARK    2  A    between atoms: C2_9  and  C3_10 
REMARK    3  A    between atoms: C3_10  and  N4_11 
ROOT
HETATM    1  C1  UNL     1      28.012  49.602  58.800  1.00  0.00     0.691 A 
HETATM    2  N2  UNL     1      28.221  50.696  58.049  1.00  0.00    -0.132 N 
ATOM      3  H2  UNL     1      28.293  50.612  57.035  1.00  0.00     0.205 HD
HETATM    4  N3  UNL     1      28.332  51.881  58.624  1.00  0.00    -0.286 N 
ATOM      5  H3  UNL     1      28.491  52.702  58.040  1.00  0.00     0.187 HD
HETATM    6  C2  UNL     1      28.242  52.035  59.965  1.00  0.00     0.086 A 
HETATM    7  C4  UNL     1      28.029  50.893  60.700  1.00  0.00     0.121 A 
HETATM    8 BR1  UNL     1      27.893  51.058  62.606  1.00  0.00    -0.029 Br
HETATM    9  N5  UNL     1      27.910  49.671  60.148  1.00  0.00    -0.182 N 
ATOM     10  H5  UNL     1      27.751  48.840  60.717  1.00  0.00     0.185 HD
ENDROOT
BRANCH   6  11
HETATM   11  C3  UNL     1      28.364  53.346  60.638  1.00  0.00     0.290 C 
BRANCH  11  12
HETATM   12  N4  UNL     1      29.243  54.209  59.910  1.00  0.00    -0.074 N 
ATOM     13  H43 UNL     1      29.209  54.025  58.908  1.00  0.00     0.274 HD
ATOM     14  H42 UNL     1      28.906  55.171  59.901  1.00  0.00     0.274 HD
ATOM     15  H41 UNL     1      30.194  54.146  60.275  1.00  0.00     0.274 HD
ENDBRANCH  11  12
ENDBRANCH   6  11
BRANCH   1  16
HETATM   16  N1  UNL     1      27.894  48.412  58.293  1.00  0.00    -0.233 N 
ATOM     17  H12 UNL     1      28.558  48.184  57.553  1.00  0.00     0.174 HD
ATOM     18  H11 UNL     1      27.188  47.745  58.607  1.00  0.00     0.174 HD
ENDBRANCH   1  16
TORSDOF 3
ENDMDL
