MODEL 1
REMARK VINA RESULT: -3.733365662      0.000      0.000
REMARK  1 active torsions:
REMARK  status: ('A' for Active; 'I' for Inactive)
REMARK    1  A    between atoms: C2_2  and  N1_3 
ROOT
HETATM    1  N1  UNL     1      52.704  69.312 -29.511  1.00  0.00     0.011 N 
HETATM    2  C3  UNL     1      51.966  68.797 -30.677  1.00  0.00     0.268 C 
HETATM    3  C4  UNL     1      52.046  70.220 -31.144  1.00  0.00     0.058 C 
HETATM    4  C5  UNL     1      51.327  70.956 -30.054  1.00  0.00     0.150 C 
HETATM    5  N2  UNL     1      51.879  70.229 -28.890  1.00  0.00    -0.046 NA
HETATM    6  C6  UNL     1      53.443  70.094 -30.519  1.00  0.00     0.268 C 
ENDROOT
BRANCH   1   7
HETATM    7  C2  UNL     1      53.432  68.393 -28.755  1.00  0.00     0.256 C 
HETATM    8  C1  UNL     1      53.112  66.939 -29.025  1.00  0.00     0.036 C 
ENDBRANCH   1   7
TORSDOF 1
ENDMDL
MODEL 2
REMARK VINA RESULT: -3.707762085      1.265      1.896
REMARK  1 active torsions:
REMARK  status: ('A' for Active; 'I' for Inactive)
REMARK    1  A    between atoms: C2_2  and  N1_3 
ROOT
HETATM    1  N1  UNL     1      52.924  68.948 -30.001  1.00  0.00     0.011 N 
HETATM    2  C3  UNL     1      54.031  69.858 -29.663  1.00  0.00     0.268 C 
HETATM    3  C4  UNL     1      53.120  70.906 -30.232  1.00  0.00     0.058 C 
HETATM    4  C5  UNL     1      52.929  70.433 -31.640  1.00  0.00     0.150 C 
HETATM    5  N2  UNL     1      52.781  68.986 -31.374  1.00  0.00    -0.046 NA
HETATM    6  C6  UNL     1      52.075  70.047 -29.505  1.00  0.00     0.268 C 
ENDROOT
BRANCH   1   7
HETATM    7  C2  UNL     1      52.860  67.734 -29.318  1.00  0.00     0.256 C 
HETATM    8  C1  UNL     1      52.884  66.499 -30.193  1.00  0.00     0.036 C 
ENDBRANCH   1   7
TORSDOF 1
ENDMDL
MODEL 3
REMARK VINA RESULT: -3.667122294      1.105      1.444
REMARK  1 active torsions:
REMARK  status: ('A' for Active; 'I' for Inactive)
REMARK    1  A    between atoms: C2_2  and  N1_3 
ROOT
HETATM    1  N1  UNL     1      52.263  69.210 -30.301  1.00  0.00     0.011 N 
HETATM    2  C3  UNL     1      51.312  70.247 -30.736  1.00  0.00     0.268 C 
HETATM    3  C4  UNL     1      52.427  71.183 -30.371  1.00  0.00     0.058 C 
HETATM    4  C5  UNL     1      52.623  70.894 -28.914  1.00  0.00     0.150 C 
HETATM    5  N2  UNL     1      52.498  69.422 -28.957  1.00  0.00    -0.046 NA
HETATM    6  C6  UNL     1      53.258  70.050 -30.993  1.00  0.00     0.268 C 
ENDROOT
BRANCH   1   7
HETATM    7  C2  UNL     1      52.069  67.918 -30.789  1.00  0.00     0.256 C 
HETATM    8  C1  UNL     1      52.808  66.828 -30.042  1.00  0.00     0.036 C 
ENDBRANCH   1   7
TORSDOF 1
ENDMDL
MODEL 4
REMARK VINA RESULT: -3.596966104      0.834      1.564
REMARK  1 active torsions:
REMARK  status: ('A' for Active; 'I' for Inactive)
REMARK    1  A    between atoms: C2_2  and  N1_3 
ROOT
HETATM    1  N1  UNL     1      52.927  69.232 -29.672  1.00  0.00     0.011 N 
HETATM    2  C3  UNL     1      51.893  70.232 -29.359  1.00  0.00     0.268 C 
HETATM    3  C4  UNL     1      51.673  70.221 -30.843  1.00  0.00     0.058 C 
HETATM    4  C5  UNL     1      53.010  70.648 -31.368  1.00  0.00     0.150 C 
HETATM    5  N2  UNL     1      53.871  69.864 -30.457  1.00  0.00    -0.046 NA
HETATM    6  C6  UNL     1      51.925  68.721 -30.626  1.00  0.00     0.268 C 
ENDROOT
BRANCH   1   7
HETATM    7  C2  UNL     1      53.323  68.376 -28.643  1.00  0.00     0.256 C 
HETATM    8  C1  UNL     1      53.218  66.899 -28.957  1.00  0.00     0.036 C 
ENDBRANCH   1   7
TORSDOF 1
ENDMDL
MODEL 5
REMARK VINA RESULT: -3.492874369      1.533      3.251
REMARK  1 active torsions:
REMARK  status: ('A' for Active; 'I' for Inactive)
REMARK    1  A    between atoms: C2_2  and  N1_3 
ROOT
HETATM    1  N1  UNL     1      51.741  70.131 -30.911  1.00  0.00     0.011 N 
HETATM    2  C3  UNL     1      52.084  70.276 -29.486  1.00  0.00     0.268 C 
HETATM    3  C4  UNL     1      53.365  69.614 -29.901  1.00  0.00     0.058 C 
HETATM    4  C5  UNL     1      52.886  68.299 -30.439  1.00  0.00     0.150 C 
HETATM    5  N2  UNL     1      51.698  68.777 -31.176  1.00  0.00    -0.046 NA
HETATM    6  C6  UNL     1      53.150  70.511 -31.129  1.00  0.00     0.268 C 
ENDROOT
BRANCH   1   7
HETATM    7  C2  UNL     1      50.764  70.983 -31.425  1.00  0.00     0.256 C 
HETATM    8  C1  UNL     1      50.024  71.810 -30.396  1.00  0.00     0.036 C 
ENDBRANCH   1   7
TORSDOF 1
ENDMDL
