MODEL 1
REMARK VINA RESULT: -8.684481285      0.000      0.000
REMARK  8 active torsions:
REMARK  status: ('A' for Active; 'I' for Inactive)
REMARK    1  A    between atoms: C4_7  and  C5_8 
REMARK    2  A    between atoms: C5_8  and  C6_9 
REMARK    3  A    between atoms: C6_9  and  C7_10 
REMARK    4  A    between atoms: C7_10  and  C8_11 
REMARK    5  A    between atoms: N3_17  and  C11_18 
REMARK    6  A    between atoms: C11_18  and  C12_19 
REMARK    7  A    between atoms: C13_20  and  C14_21 
REMARK    8  A    between atoms: C15_22  and  C16_23 
ROOT
HETATM    1  C8  UNL     1      43.996  24.187  53.261  1.00  0.00    -0.027 A 
HETATM    2  C9  UNL     1      44.056  23.668  51.982  1.00  0.00     0.101 A 
HETATM    3  N2  UNL     1      43.193  24.125  51.057  1.00  0.00    -0.318 N 
ATOM      4  H2  UNL     1      43.227  23.751  50.108  1.00  0.00     0.170 HD
HETATM    5  C10 UNL     1      42.281  25.073  51.369  1.00  0.00     0.327 A 
HETATM    6  O2  UNL     1      41.517  25.435  50.433  1.00  0.00    -0.246 OA
HETATM    7  N3  UNL     1      42.192  25.599  52.590  1.00  0.00    -0.298 N 
HETATM    8  C20 UNL     1      43.048  25.152  53.525  1.00  0.00     0.105 A 
ENDROOT
BRANCH   1   9
HETATM    9  C7  UNL     1      44.901  23.750  54.347  1.00  0.00     0.041 C 
BRANCH   9  10
HETATM   10  C6  UNL     1      45.793  22.621  53.904  1.00  0.00     0.005 C 
BRANCH  10  11
HETATM   11  C5  UNL     1      45.159  21.280  54.000  1.00  0.00     0.009 C 
BRANCH  11  12
HETATM   12  C4  UNL     1      45.435  20.380  52.845  1.00  0.00     0.028 C 
HETATM   13  C3  UNL     1      45.794  18.966  53.149  1.00  0.00     0.112 C 
HETATM   14  C2  UNL     1      45.871  18.508  54.563  1.00  0.00     0.150 C 
HETATM   15  N5  UNL     1      44.423  18.516  52.826  1.00  0.00    -0.327 N 
HETATM   16  N1  UNL     1      45.379  17.123  54.432  1.00  0.00    -0.341 N 
HETATM   17  C1  UNL     1      44.366  17.227  53.416  1.00  0.00     0.318 C 
ATOM     18  H1  UNL     1      45.683  16.293  54.940  1.00  0.00     0.164 HD
HETATM   19  O1  UNL     1      43.557  16.315  53.102  1.00  0.00    -0.247 OA
HETATM   20  C21 UNL     1      44.230  19.781  52.150  1.00  0.00     0.134 C 
ENDBRANCH  11  12
ENDBRANCH  10  11
ENDBRANCH   9  10
ENDBRANCH   1   9
BRANCH   7  21
HETATM   21  C11 UNL     1      41.213  26.606  52.891  1.00  0.00     0.227 C 
BRANCH  21  22
HETATM   22  C12 UNL     1      40.330  26.058  53.937  1.00  0.00    -0.072 C 
HETATM   23  C13 UNL     1      39.593  25.625  54.798  1.00  0.00    -0.013 C 
BRANCH  23  24
HETATM   24  C14 UNL     1      38.719  25.140  55.811  1.00  0.00    -0.008 C 
HETATM   25  C15 UNL     1      37.977  24.747  56.681  1.00  0.00    -0.035 C 
BRANCH  25  26
HETATM   26  C16 UNL     1      37.095  24.294  57.740  1.00  0.00     0.087 A 
HETATM   27  C17 UNL     1      37.323  24.487  59.075  1.00  0.00     0.040 A 
HETATM   28  C18 UNL     1      36.245  23.902  59.725  1.00  0.00     0.020 A 
HETATM   29  C19 UNL     1      35.390  23.370  58.781  1.00  0.00     0.089 A 
HETATM   30  N4  UNL     1      35.929  23.621  57.589  1.00  0.00    -0.359 N 
ATOM     31  H4  UNL     1      35.523  23.347  56.694  1.00  0.00     0.166 HD
ENDBRANCH  25  26
ENDBRANCH  23  24
ENDBRANCH  21  22
ENDBRANCH   7  21
TORSDOF 8
ENDMDL
MODEL 2
REMARK VINA RESULT: -8.622821780      1.406      1.778
REMARK  8 active torsions:
REMARK  status: ('A' for Active; 'I' for Inactive)
REMARK    1  A    between atoms: C4_7  and  C5_8 
REMARK    2  A    between atoms: C5_8  and  C6_9 
REMARK    3  A    between atoms: C6_9  and  C7_10 
REMARK    4  A    between atoms: C7_10  and  C8_11 
REMARK    5  A    between atoms: N3_17  and  C11_18 
REMARK    6  A    between atoms: C11_18  and  C12_19 
REMARK    7  A    between atoms: C13_20  and  C14_21 
REMARK    8  A    between atoms: C15_22  and  C16_23 
ROOT
HETATM    1  C8  UNL     1      44.445  24.811  54.387  1.00  0.00    -0.027 A 
HETATM    2  C9  UNL     1      44.827  25.980  55.014  1.00  0.00     0.101 A 
HETATM    3  N2  UNL     1      43.965  27.012  55.040  1.00  0.00    -0.318 N 
ATOM      4  H2  UNL     1      44.233  27.882  55.501  1.00  0.00     0.170 HD
HETATM    5  C10 UNL     1      42.746  26.911  54.462  1.00  0.00     0.327 A 
HETATM    6  O2  UNL     1      42.011  27.933  54.539  1.00  0.00    -0.246 OA
HETATM    7  N3  UNL     1      42.341  25.800  53.847  1.00  0.00    -0.298 N 
HETATM    8  C20 UNL     1      43.193  24.761  53.814  1.00  0.00     0.105 A 
ENDROOT
BRANCH   1   9
HETATM    9  C7  UNL     1      45.322  23.621  54.305  1.00  0.00     0.041 C 
BRANCH   9  10
HETATM   10  C6  UNL     1      44.993  22.772  53.107  1.00  0.00     0.005 C 
BRANCH  10  11
HETATM   11  C5  UNL     1      44.639  21.368  53.442  1.00  0.00     0.009 C 
BRANCH  11  12
HETATM   12  C4  UNL     1      45.026  20.367  52.409  1.00  0.00     0.028 C 
HETATM   13  C3  UNL     1      45.586  19.071  52.886  1.00  0.00     0.112 C 
HETATM   14  C2  UNL     1      45.745  18.825  54.346  1.00  0.00     0.150 C 
HETATM   15  N5  UNL     1      44.289  18.395  52.668  1.00  0.00    -0.327 N 
HETATM   16  N1  UNL     1      45.452  17.380  54.414  1.00  0.00    -0.341 N 
HETATM   17  C1  UNL     1      44.423  17.203  53.425  1.00  0.00     0.318 C 
ATOM     18  H1  UNL     1      45.878  16.677  55.018  1.00  0.00     0.164 HD
HETATM   19  O1  UNL     1      43.748  16.153  53.260  1.00  0.00    -0.247 OA
HETATM   20  C21 UNL     1      43.910  19.517  51.836  1.00  0.00     0.134 C 
ENDBRANCH  11  12
ENDBRANCH  10  11
ENDBRANCH   9  10
ENDBRANCH   1   9
BRANCH   7  21
HETATM   21  C11 UNL     1      41.041  25.723  53.242  1.00  0.00     0.227 C 
BRANCH  21  22
HETATM   22  C12 UNL     1      40.092  25.324  54.299  1.00  0.00    -0.072 C 
HETATM   23  C13 UNL     1      39.304  25.016  55.168  1.00  0.00    -0.013 C 
BRANCH  23  24
HETATM   24  C14 UNL     1      38.374  24.679  56.191  1.00  0.00    -0.008 C 
HETATM   25  C15 UNL     1      37.598  24.396  57.074  1.00  0.00    -0.035 C 
BRANCH  25  26
HETATM   26  C16 UNL     1      36.687  24.053  58.150  1.00  0.00     0.087 A 
HETATM   27  C17 UNL     1      36.938  24.270  59.478  1.00  0.00     0.040 A 
HETATM   28  C18 UNL     1      35.818  23.800  60.149  1.00  0.00     0.020 A 
HETATM   29  C19 UNL     1      34.917  23.309  59.226  1.00  0.00     0.089 A 
HETATM   30  N4  UNL     1      35.468  23.476  58.025  1.00  0.00    -0.359 N 
ATOM     31  H4  UNL     1      35.036  23.208  57.141  1.00  0.00     0.166 HD
ENDBRANCH  25  26
ENDBRANCH  23  24
ENDBRANCH  21  22
ENDBRANCH   7  21
TORSDOF 8
ENDMDL
MODEL 3
REMARK VINA RESULT: -8.621224633      1.164      1.597
REMARK  8 active torsions:
REMARK  status: ('A' for Active; 'I' for Inactive)
REMARK    1  A    between atoms: C4_7  and  C5_8 
REMARK    2  A    between atoms: C5_8  and  C6_9 
REMARK    3  A    between atoms: C6_9  and  C7_10 
REMARK    4  A    between atoms: C7_10  and  C8_11 
REMARK    5  A    between atoms: N3_17  and  C11_18 
REMARK    6  A    between atoms: C11_18  and  C12_19 
REMARK    7  A    between atoms: C13_20  and  C14_21 
REMARK    8  A    between atoms: C15_22  and  C16_23 
ROOT
HETATM    1  C8  UNL     1      43.754  24.160  51.018  1.00  0.00    -0.027 A 
HETATM    2  C9  UNL     1      43.426  24.182  49.677  1.00  0.00     0.101 A 
HETATM    3  N2  UNL     1      42.679  25.198  49.210  1.00  0.00    -0.318 N 
ATOM      4  H2  UNL     1      42.430  25.228  48.221  1.00  0.00     0.170 HD
HETATM    5  C10 UNL     1      42.255  26.182  50.035  1.00  0.00     0.327 A 
HETATM    6  O2  UNL     1      41.561  27.090  49.502  1.00  0.00    -0.246 OA
HETATM    7  N3  UNL     1      42.551  26.197  51.335  1.00  0.00    -0.298 N 
HETATM    8  C20 UNL     1      43.296  25.187  51.815  1.00  0.00     0.105 A 
ENDROOT
BRANCH   1   9
HETATM    9  C7  UNL     1      44.570  23.085  51.627  1.00  0.00     0.041 C 
BRANCH   9  10
HETATM   10  C6  UNL     1      43.971  22.600  52.920  1.00  0.00     0.005 C 
BRANCH  10  11
HETATM   11  C5  UNL     1      44.611  21.371  53.457  1.00  0.00     0.009 C 
BRANCH  11  12
HETATM   12  C4  UNL     1      45.008  20.376  52.422  1.00  0.00     0.028 C 
HETATM   13  C3  UNL     1      45.582  19.085  52.897  1.00  0.00     0.112 C 
HETATM   14  C2  UNL     1      45.745  18.838  54.356  1.00  0.00     0.150 C 
HETATM   15  N5  UNL     1      44.292  18.396  52.678  1.00  0.00    -0.327 N 
HETATM   16  N1  UNL     1      45.468  17.390  54.422  1.00  0.00    -0.341 N 
HETATM   17  C1  UNL     1      44.440  17.204  53.433  1.00  0.00     0.318 C 
ATOM     18  H1  UNL     1      45.901  16.691  55.024  1.00  0.00     0.164 HD
HETATM   19  O1  UNL     1      43.776  16.147  53.267  1.00  0.00    -0.247 OA
HETATM   20  C21 UNL     1      43.901  19.515  51.849  1.00  0.00     0.134 C 
ENDBRANCH  11  12
ENDBRANCH  10  11
ENDBRANCH   9  10
ENDBRANCH   1   9
BRANCH   7  21
HETATM   21  C11 UNL     1      42.086  27.256  52.186  1.00  0.00     0.227 C 
BRANCH  21  22
HETATM   22  C12 UNL     1      41.167  26.654  53.170  1.00  0.00    -0.072 C 
HETATM   23  C13 UNL     1      40.408  26.177  53.988  1.00  0.00    -0.013 C 
BRANCH  23  24
HETATM   24  C14 UNL     1      39.518  25.641  54.959  1.00  0.00    -0.008 C 
HETATM   25  C15 UNL     1      38.757  25.204  55.791  1.00  0.00    -0.035 C 
BRANCH  25  26
HETATM   26  C16 UNL     1      37.842  24.702  56.800  1.00  0.00     0.087 A 
HETATM   27  C17 UNL     1      36.696  24.005  56.530  1.00  0.00     0.040 A 
HETATM   28  C18 UNL     1      36.133  23.724  57.766  1.00  0.00     0.020 A 
HETATM   29  C19 UNL     1      36.938  24.251  58.755  1.00  0.00     0.089 A 
HETATM   30  N4  UNL     1      37.965  24.837  58.142  1.00  0.00    -0.359 N 
ATOM     31  H4  UNL     1      38.732  25.317  58.614  1.00  0.00     0.166 HD
ENDBRANCH  25  26
ENDBRANCH  23  24
ENDBRANCH  21  22
ENDBRANCH   7  21
TORSDOF 8
ENDMDL
MODEL 4
REMARK VINA RESULT: -8.288418751      1.086      1.353
REMARK  8 active torsions:
REMARK  status: ('A' for Active; 'I' for Inactive)
REMARK    1  A    between atoms: C4_7  and  C5_8 
REMARK    2  A    between atoms: C5_8  and  C6_9 
REMARK    3  A    between atoms: C6_9  and  C7_10 
REMARK    4  A    between atoms: C7_10  and  C8_11 
REMARK    5  A    between atoms: N3_17  and  C11_18 
REMARK    6  A    between atoms: C11_18  and  C12_19 
REMARK    7  A    between atoms: C13_20  and  C14_21 
REMARK    8  A    between atoms: C15_22  and  C16_23 
ROOT
HETATM    1  C8  UNL     1      42.860  24.215  51.899  1.00  0.00    -0.027 A 
HETATM    2  C9  UNL     1      42.219  24.787  50.817  1.00  0.00     0.101 A 
HETATM    3  N2  UNL     1      41.588  25.963  50.986  1.00  0.00    -0.318 N 
ATOM      4  H2  UNL     1      41.111  26.397  50.196  1.00  0.00     0.170 HD
HETATM    5  C10 UNL     1      41.577  26.576  52.191  1.00  0.00     0.327 A 
HETATM    6  O2  UNL     1      40.959  27.673  52.248  1.00  0.00    -0.246 OA
HETATM    7  N3  UNL     1      42.184  26.057  53.259  1.00  0.00    -0.298 N 
HETATM    8  C20 UNL     1      42.818  24.882  53.104  1.00  0.00     0.105 A 
ENDROOT
BRANCH   1   9
HETATM    9  C7  UNL     1      43.582  22.926  51.815  1.00  0.00     0.041 C 
BRANCH   9  10
HETATM   10  C6  UNL     1      44.534  22.747  52.967  1.00  0.00     0.005 C 
BRANCH  10  11
HETATM   11  C5  UNL     1      44.633  21.348  53.456  1.00  0.00     0.009 C 
BRANCH  11  12
HETATM   12  C4  UNL     1      45.003  20.351  52.413  1.00  0.00     0.028 C 
HETATM   13  C3  UNL     1      45.574  19.054  52.875  1.00  0.00     0.112 C 
HETATM   14  C2  UNL     1      45.760  18.803  54.331  1.00  0.00     0.150 C 
HETATM   15  N5  UNL     1      44.275  18.376  52.678  1.00  0.00    -0.327 N 
HETATM   16  N1  UNL     1      45.472  17.358  54.399  1.00  0.00    -0.341 N 
HETATM   17  C1  UNL     1      44.425  17.182  53.429  1.00  0.00     0.318 C 
ATOM     18  H1  UNL     1      45.910  16.653  54.993  1.00  0.00     0.164 HD
HETATM   19  O1  UNL     1      43.750  16.132  53.272  1.00  0.00    -0.247 OA
HETATM   20  C21 UNL     1      43.878  19.501  51.858  1.00  0.00     0.134 C 
ENDBRANCH  11  12
ENDBRANCH  10  11
ENDBRANCH   9  10
ENDBRANCH   1   9
BRANCH   7  21
HETATM   21  C11 UNL     1      42.155  26.733  54.526  1.00  0.00     0.227 C 
BRANCH  21  22
HETATM   22  C12 UNL     1      41.038  26.161  55.300  1.00  0.00    -0.072 C 
HETATM   23  C13 UNL     1      40.119  25.708  55.950  1.00  0.00    -0.013 C 
BRANCH  23  24
HETATM   24  C14 UNL     1      39.044  25.195  56.729  1.00  0.00    -0.008 C 
HETATM   25  C15 UNL     1      38.141  24.765  57.408  1.00  0.00    -0.035 C 
BRANCH  25  26
HETATM   26  C16 UNL     1      37.072  24.250  58.243  1.00  0.00     0.087 A 
HETATM   27  C17 UNL     1      37.074  24.280  59.611  1.00  0.00     0.040 A 
HETATM   28  C18 UNL     1      35.877  23.692  59.997  1.00  0.00     0.020 A 
HETATM   29  C19 UNL     1      35.178  23.319  58.868  1.00  0.00     0.089 A 
HETATM   30  N4  UNL     1      35.923  23.669  57.821  1.00  0.00    -0.359 N 
ATOM     31  H4  UNL     1      35.667  23.521  56.844  1.00  0.00     0.166 HD
ENDBRANCH  25  26
ENDBRANCH  23  24
ENDBRANCH  21  22
ENDBRANCH   7  21
TORSDOF 8
ENDMDL
MODEL 5
REMARK VINA RESULT: -8.275834625      1.487      2.023
REMARK  8 active torsions:
REMARK  status: ('A' for Active; 'I' for Inactive)
REMARK    1  A    between atoms: C4_7  and  C5_8 
REMARK    2  A    between atoms: C5_8  and  C6_9 
REMARK    3  A    between atoms: C6_9  and  C7_10 
REMARK    4  A    between atoms: C7_10  and  C8_11 
REMARK    5  A    between atoms: N3_17  and  C11_18 
REMARK    6  A    between atoms: C11_18  and  C12_19 
REMARK    7  A    between atoms: C13_20  and  C14_21 
REMARK    8  A    between atoms: C15_22  and  C16_23 
ROOT
HETATM    1  C8  UNL     1      42.354  24.149  52.740  1.00  0.00    -0.027 A 
HETATM    2  C9  UNL     1      41.748  25.076  51.914  1.00  0.00     0.101 A 
HETATM    3  N2  UNL     1      41.238  26.194  52.460  1.00  0.00    -0.318 N 
ATOM      4  H2  UNL     1      40.789  26.888  51.861  1.00  0.00     0.170 HD
HETATM    5  C10 UNL     1      41.314  26.411  53.793  1.00  0.00     0.327 A 
HETATM    6  O2  UNL     1      40.806  27.489  54.207  1.00  0.00    -0.246 OA
HETATM    7  N3  UNL     1      41.890  25.542  54.623  1.00  0.00    -0.298 N 
HETATM    8  C20 UNL     1      42.404  24.420  54.091  1.00  0.00     0.105 A 
ENDROOT
BRANCH   1   9
HETATM    9  C7  UNL     1      42.944  22.890  52.236  1.00  0.00     0.041 C 
BRANCH   9  10
HETATM   10  C6  UNL     1      44.355  22.703  52.728  1.00  0.00     0.005 C 
BRANCH  10  11
HETATM   11  C5  UNL     1      44.620  21.359  53.302  1.00  0.00     0.009 C 
BRANCH  11  12
HETATM   12  C4  UNL     1      44.997  20.321  52.302  1.00  0.00     0.028 C 
HETATM   13  C3  UNL     1      45.564  19.043  52.821  1.00  0.00     0.112 C 
HETATM   14  C2  UNL     1      45.739  18.851  54.287  1.00  0.00     0.150 C 
HETATM   15  N5  UNL     1      44.265  18.359  52.643  1.00  0.00    -0.327 N 
HETATM   16  N1  UNL     1      45.449  17.410  54.412  1.00  0.00    -0.341 N 
HETATM   17  C1  UNL     1      44.409  17.196  53.442  1.00  0.00     0.318 C 
ATOM     18  H1  UNL     1      45.883  16.730  55.036  1.00  0.00     0.164 HD
HETATM   19  O1  UNL     1      43.734  16.140  53.323  1.00  0.00    -0.247 OA
HETATM   20  C21 UNL     1      43.876  19.449  51.775  1.00  0.00     0.134 C 
ENDBRANCH  11  12
ENDBRANCH  10  11
ENDBRANCH   9  10
ENDBRANCH   1   9
BRANCH   7  21
HETATM   21  C11 UNL     1      41.956  25.801  56.034  1.00  0.00     0.227 C 
BRANCH  21  22
HETATM   22  C12 UNL     1      40.647  25.431  56.607  1.00  0.00    -0.072 C 
HETATM   23  C13 UNL     1      39.566  25.148  57.078  1.00  0.00    -0.013 C 
BRANCH  23  24
HETATM   24  C14 UNL     1      38.294  24.841  57.635  1.00  0.00    -0.008 C 
HETATM   25  C15 UNL     1      37.214  24.595  58.121  1.00  0.00    -0.035 C 
BRANCH  25  26
HETATM   26  C16 UNL     1      35.924  24.315  58.724  1.00  0.00     0.087 A 
HETATM   27  C17 UNL     1      35.268  25.159  59.579  1.00  0.00     0.040 A 
HETATM   28  C18 UNL     1      34.089  24.507  59.911  1.00  0.00     0.020 A 
HETATM   29  C19 UNL     1      34.051  23.291  59.260  1.00  0.00     0.089 A 
HETATM   30  N4  UNL     1      35.174  23.201  58.549  1.00  0.00    -0.359 N 
ATOM     31  H4  UNL     1      35.431  22.409  57.959  1.00  0.00     0.166 HD
ENDBRANCH  25  26
ENDBRANCH  23  24
ENDBRANCH  21  22
ENDBRANCH   7  21
TORSDOF 8
ENDMDL
