MODEL 1
REMARK VINA RESULT: -6.842819057      0.000      0.000
REMARK  9 active torsions:
REMARK  status: ('A' for Active; 'I' for Inactive)
REMARK    1  A    between atoms: C1_2  and  C2_4 
REMARK       I    between atoms: N2_8  and  C6_9 
REMARK    2  A    between atoms: C6_9  and  C7_11 
REMARK    3  A    between atoms: C7_11  and  C8_12 
REMARK    4  A    between atoms: C7_11  and  C12_20 
REMARK    5  A    between atoms: C8_12  and  C9_13 
REMARK    6  A    between atoms: C9_13  and  C10_14 
REMARK    7  A    between atoms: C10_14  and  N3_15 
REMARK    8  A    between atoms: C12_20  and  C13_21 
REMARK       I    between atoms: C13_21  and  N6_23 
REMARK    9  A    between atoms: C15_25  and  N7_26 
ROOT
HETATM    1  C7  UNL     1      -0.719  18.277  20.299  1.00  0.00     0.087 C 
ENDROOT
BRANCH   1   2
HETATM    2  C6  UNL     1      -1.181  17.881  21.662  1.00  0.00     0.225 C 
HETATM    3  N2  UNL     1      -1.054  18.863  22.721  1.00  0.00    -0.339 N 
HETATM    4  C2  UNL     1      -1.411  18.655  24.100  1.00  0.00     0.176 C 
HETATM    5  C5  UNL     1      -0.585  20.210  22.541  1.00  0.00     0.127 C 
HETATM    6  C3  UNL     1      -0.979  19.927  24.804  1.00  0.00     0.036 C 
HETATM    7  C4  UNL     1       0.085  20.516  23.885  1.00  0.00     0.022 C 
HETATM    8  O2  UNL     1      -1.651  16.778  21.911  1.00  0.00    -0.273 OA
BRANCH   4   9
HETATM    9  C1  UNL     1      -0.780  17.472  24.719  1.00  0.00     0.254 C 
HETATM   10  N1  UNL     1      -1.596  16.408  25.164  1.00  0.00    -0.060 NA
HETATM   11  O1  UNL     1       0.459  17.416  24.848  1.00  0.00    -0.275 OA
ENDBRANCH   4   9
ENDBRANCH   1   2
BRANCH   1  12
HETATM   12  C8  UNL     1      -1.760  17.797  19.278  1.00  0.00     0.016 C 
BRANCH  12  13
HETATM   13  C9  UNL     1      -1.228  16.741  18.366  1.00  0.00     0.020 C 
BRANCH  13  14
HETATM   14  C10 UNL     1      -2.348  15.853  17.818  1.00  0.00     0.122 C 
BRANCH  14  15
HETATM   15  N3  UNL     1      -1.731  14.893  16.922  1.00  0.00    -0.367 N 
HETATM   16  C11 UNL     1      -1.370  13.719  17.276  1.00  0.00     0.196 C 
HETATM   17  N4  UNL     1      -0.773  12.868  16.302  1.00  0.00    -0.067 NA
HETATM   18  N5  UNL     1      -1.519  13.190  18.579  1.00  0.00    -0.067 NA
ATOM     19  H3  UNL     1      -1.575  15.172  15.953  1.00  0.00     0.161 HD
ENDBRANCH  14  15
ENDBRANCH  13  14
ENDBRANCH  12  13
ENDBRANCH   1  12
BRANCH   1  20
HETATM   20  C12 UNL     1       0.578  17.614  19.963  1.00  0.00     0.118 C 
BRANCH  20  21
HETATM   21  C13 UNL     1       1.737  18.521  20.036  1.00  0.00     0.236 C 
HETATM   22  O3  UNL     1       2.504  18.554  21.024  1.00  0.00    -0.272 OA
HETATM   23  N6  UNL     1       2.048  19.420  18.969  1.00  0.00    -0.263 N 
HETATM   24  C14 UNL     1       1.322  19.549  17.740  1.00  0.00     0.185 C 
HETATM   25  N8  UNL     1       3.106  20.324  18.941  1.00  0.00    -0.134 NA
HETATM   26  C15 UNL     1       2.083  20.538  16.900  1.00  0.00     0.258 C 
HETATM   27  C20 UNL     1       3.465  20.423  17.514  1.00  0.00     0.172 C 
BRANCH  26  28
HETATM   28  N7  UNL     1       1.655  21.896  17.072  1.00  0.00     0.096 N 
HETATM   29  C16 UNL     1       0.341  22.168  16.541  1.00  0.00     0.273 C 
HETATM   30  C17 UNL     1       0.452  21.993  15.043  1.00  0.00     0.032 C 
HETATM   31  C18 UNL     1       1.868  22.494  14.783  1.00  0.00     0.032 C 
HETATM   32  C19 UNL     1       2.468  22.714  16.158  1.00  0.00     0.273 C 
ENDBRANCH  26  28
ENDBRANCH  20  21
ENDBRANCH   1  20
TORSDOF 9
ENDMDL
MODEL 2
REMARK VINA RESULT: -6.840077729      2.500      3.473
REMARK  9 active torsions:
REMARK  status: ('A' for Active; 'I' for Inactive)
REMARK    1  A    between atoms: C1_2  and  C2_4 
REMARK       I    between atoms: N2_8  and  C6_9 
REMARK    2  A    between atoms: C6_9  and  C7_11 
REMARK    3  A    between atoms: C7_11  and  C8_12 
REMARK    4  A    between atoms: C7_11  and  C12_20 
REMARK    5  A    between atoms: C8_12  and  C9_13 
REMARK    6  A    between atoms: C9_13  and  C10_14 
REMARK    7  A    between atoms: C10_14  and  N3_15 
REMARK    8  A    between atoms: C12_20  and  C13_21 
REMARK       I    between atoms: C13_21  and  N6_23 
REMARK    9  A    between atoms: C15_25  and  N7_26 
ROOT
HETATM    1  C7  UNL     1      -0.150  18.148  19.498  1.00  0.00     0.087 C 
ENDROOT
BRANCH   1   2
HETATM    2  C6  UNL     1      -0.791  17.772  20.792  1.00  0.00     0.225 C 
HETATM    3  N2  UNL     1      -1.072  18.838  21.733  1.00  0.00    -0.339 N 
HETATM    4  C2  UNL     1      -1.652  18.669  23.039  1.00  0.00     0.176 C 
HETATM    5  C5  UNL     1      -0.846  20.236  21.481  1.00  0.00     0.127 C 
HETATM    6  C3  UNL     1      -1.625  20.055  23.653  1.00  0.00     0.036 C 
HETATM    7  C4  UNL     1      -0.532  20.783  22.879  1.00  0.00     0.022 C 
HETATM    8  O2  UNL     1      -1.078  16.617  21.081  1.00  0.00    -0.273 OA
BRANCH   4   9
HETATM    9  C1  UNL     1      -0.942  17.700  23.898  1.00  0.00     0.254 C 
HETATM   10  N1  UNL     1      -1.668  16.649  24.501  1.00  0.00    -0.060 NA
HETATM   11  O1  UNL     1       0.285  17.810  24.088  1.00  0.00    -0.275 OA
ENDBRANCH   4   9
ENDBRANCH   1   2
BRANCH   1  12
HETATM   12  C8  UNL     1      -0.356  16.997  18.503  1.00  0.00     0.016 C 
BRANCH  12  13
HETATM   13  C9  UNL     1      -1.598  17.155  17.687  1.00  0.00     0.020 C 
BRANCH  13  14
HETATM   14  C10 UNL     1      -2.497  15.921  17.786  1.00  0.00     0.122 C 
BRANCH  14  15
HETATM   15  N3  UNL     1      -2.026  14.971  16.796  1.00  0.00    -0.367 N 
HETATM   16  C11 UNL     1      -1.587  13.804  17.082  1.00  0.00     0.196 C 
HETATM   17  N4  UNL     1      -1.151  12.962  16.018  1.00  0.00    -0.067 NA
HETATM   18  N5  UNL     1      -1.499  13.276  18.390  1.00  0.00    -0.067 NA
ATOM     19  H3  UNL     1      -2.045  15.250  15.815  1.00  0.00     0.161 HD
ENDBRANCH  14  15
ENDBRANCH  13  14
ENDBRANCH  12  13
ENDBRANCH   1  12
BRANCH   1  20
HETATM   20  C12 UNL     1       1.324  18.335  19.668  1.00  0.00     0.118 C 
BRANCH  20  21
HETATM   21  C13 UNL     1       1.863  19.472  18.903  1.00  0.00     0.236 C 
HETATM   22  O3  UNL     1       1.756  19.559  17.660  1.00  0.00    -0.272 OA
HETATM   23  N6  UNL     1       2.547  20.549  19.550  1.00  0.00    -0.263 N 
HETATM   24  C14 UNL     1       2.779  20.671  20.959  1.00  0.00     0.185 C 
HETATM   25  N8  UNL     1       3.105  21.659  18.924  1.00  0.00    -0.134 NA
HETATM   26  C15 UNL     1       3.437  22.008  21.165  1.00  0.00     0.258 C 
HETATM   27  C20 UNL     1       2.982  22.741  19.919  1.00  0.00     0.172 C 
BRANCH  26  28
HETATM   28  N7  UNL     1       4.870  21.960  21.128  1.00  0.00     0.096 N 
HETATM   29  C16 UNL     1       5.467  21.368  22.302  1.00  0.00     0.273 C 
HETATM   30  C17 UNL     1       5.149  22.301  23.448  1.00  0.00     0.032 C 
HETATM   31  C18 UNL     1       5.197  23.659  22.757  1.00  0.00     0.032 C 
HETATM   32  C19 UNL     1       5.343  23.345  21.281  1.00  0.00     0.273 C 
ENDBRANCH  26  28
ENDBRANCH  20  21
ENDBRANCH   1  20
TORSDOF 9
ENDMDL
MODEL 3
REMARK VINA RESULT: -6.748118468      2.264      6.655
REMARK  9 active torsions:
REMARK  status: ('A' for Active; 'I' for Inactive)
REMARK    1  A    between atoms: C1_2  and  C2_4 
REMARK       I    between atoms: N2_8  and  C6_9 
REMARK    2  A    between atoms: C6_9  and  C7_11 
REMARK    3  A    between atoms: C7_11  and  C8_12 
REMARK    4  A    between atoms: C7_11  and  C12_20 
REMARK    5  A    between atoms: C8_12  and  C9_13 
REMARK    6  A    between atoms: C9_13  and  C10_14 
REMARK    7  A    between atoms: C10_14  and  N3_15 
REMARK    8  A    between atoms: C12_20  and  C13_21 
REMARK       I    between atoms: C13_21  and  N6_23 
REMARK    9  A    between atoms: C15_25  and  N7_26 
ROOT
HETATM    1  C7  UNL     1      -0.957  20.832  21.460  1.00  0.00     0.087 C 
ENDROOT
BRANCH   1   2
HETATM    2  C6  UNL     1       0.536  20.840  21.449  1.00  0.00     0.225 C 
HETATM    3  N2  UNL     1       1.194  20.643  20.172  1.00  0.00    -0.339 N 
HETATM    4  C2  UNL     1       2.617  20.585  19.967  1.00  0.00     0.176 C 
HETATM    5  C5  UNL     1       0.517  20.513  18.910  1.00  0.00     0.127 C 
HETATM    6  C3  UNL     1       2.779  20.248  18.497  1.00  0.00     0.036 C 
HETATM    7  C4  UNL     1       1.455  19.594  18.119  1.00  0.00     0.022 C 
HETATM    8  O2  UNL     1       1.208  21.002  22.459  1.00  0.00    -0.273 OA
BRANCH   4   9
HETATM    9  C1  UNL     1       3.314  19.596  20.812  1.00  0.00     0.254 C 
HETATM   10  N1  UNL     1       4.430  20.004  21.578  1.00  0.00    -0.060 NA
HETATM   11  O1  UNL     1       2.921  18.413  20.849  1.00  0.00    -0.275 OA
ENDBRANCH   4   9
ENDBRANCH   1   2
BRANCH   1  12
HETATM   12  C8  UNL     1      -1.434  21.492  22.762  1.00  0.00     0.016 C 
BRANCH  12  13
HETATM   13  C9  UNL     1      -2.133  20.536  23.671  1.00  0.00     0.020 C 
BRANCH  13  14
HETATM   14  C10 UNL     1      -1.240  20.115  24.841  1.00  0.00     0.122 C 
BRANCH  14  15
HETATM   15  N3  UNL     1      -1.607  18.756  25.189  1.00  0.00    -0.367 N 
HETATM   16  C11 UNL     1      -0.993  17.721  24.759  1.00  0.00     0.196 C 
HETATM   17  N4  UNL     1      -1.451  16.436  25.174  1.00  0.00    -0.067 NA
HETATM   18  N5  UNL     1       0.121  17.749  23.890  1.00  0.00    -0.067 NA
ATOM     19  H3  UNL     1      -2.402  18.618  25.814  1.00  0.00     0.161 HD
ENDBRANCH  14  15
ENDBRANCH  13  14
ENDBRANCH  12  13
ENDBRANCH   1  12
BRANCH   1  20
HETATM   20  C12 UNL     1      -1.481  19.431  21.450  1.00  0.00     0.118 C 
BRANCH  20  21
HETATM   21  C13 UNL     1      -2.399  19.156  20.332  1.00  0.00     0.236 C 
HETATM   22  O3  UNL     1      -3.418  19.849  20.112  1.00  0.00    -0.272 OA
HETATM   23  N6  UNL     1      -2.172  18.071  19.429  1.00  0.00    -0.263 N 
HETATM   24  C14 UNL     1      -1.070  17.156  19.477  1.00  0.00     0.185 C 
HETATM   25  N8  UNL     1      -2.980  17.717  18.353  1.00  0.00    -0.134 NA
HETATM   26  C15 UNL     1      -1.207  16.266  18.272  1.00  0.00     0.258 C 
HETATM   27  C20 UNL     1      -2.045  17.146  17.366  1.00  0.00     0.172 C 
BRANCH  26  28
HETATM   28  N7  UNL     1      -1.961  15.070  18.516  1.00  0.00     0.096 N 
HETATM   29  C16 UNL     1      -1.199  14.014  19.138  1.00  0.00     0.273 C 
HETATM   30  C17 UNL     1      -0.155  13.601  18.126  1.00  0.00     0.032 C 
HETATM   31  C18 UNL     1      -0.911  13.786  16.816  1.00  0.00     0.032 C 
HETATM   32  C19 UNL     1      -2.215  14.455  17.204  1.00  0.00     0.273 C 
ENDBRANCH  26  28
ENDBRANCH  20  21
ENDBRANCH   1  20
TORSDOF 9
ENDMDL
MODEL 4
REMARK VINA RESULT: -6.739825993      0.949      1.031
REMARK  9 active torsions:
REMARK  status: ('A' for Active; 'I' for Inactive)
REMARK    1  A    between atoms: C1_2  and  C2_4 
REMARK       I    between atoms: N2_8  and  C6_9 
REMARK    2  A    between atoms: C6_9  and  C7_11 
REMARK    3  A    between atoms: C7_11  and  C8_12 
REMARK    4  A    between atoms: C7_11  and  C12_20 
REMARK    5  A    between atoms: C8_12  and  C9_13 
REMARK    6  A    between atoms: C9_13  and  C10_14 
REMARK    7  A    between atoms: C10_14  and  N3_15 
REMARK    8  A    between atoms: C12_20  and  C13_21 
REMARK       I    between atoms: C13_21  and  N6_23 
REMARK    9  A    between atoms: C15_25  and  N7_26 
ROOT
HETATM    1  C7  UNL     1      -0.462  18.839  19.672  1.00  0.00     0.087 C 
ENDROOT
BRANCH   1   2
HETATM    2  C6  UNL     1      -1.033  18.357  20.964  1.00  0.00     0.225 C 
HETATM    3  N2  UNL     1      -1.008  19.274  22.087  1.00  0.00    -0.339 N 
HETATM    4  C2  UNL     1      -1.477  18.980  23.416  1.00  0.00     0.176 C 
HETATM    5  C5  UNL     1      -0.542  20.633  22.028  1.00  0.00     0.127 C 
HETATM    6  C3  UNL     1      -1.122  20.210  24.228  1.00  0.00     0.036 C 
HETATM    7  C4  UNL     1       0.009  20.862  23.440  1.00  0.00     0.022 C 
HETATM    8  O2  UNL     1      -1.508  17.237  21.106  1.00  0.00    -0.273 OA
BRANCH   4   9
HETATM    9  C1  UNL     1      -0.887  17.767  24.014  1.00  0.00     0.254 C 
HETATM   10  N1  UNL     1      -1.736  16.716  24.427  1.00  0.00    -0.060 NA
HETATM   11  O1  UNL     1       0.349  17.673  24.154  1.00  0.00    -0.275 OA
ENDBRANCH   4   9
ENDBRANCH   1   2
BRANCH   1  12
HETATM   12  C8  UNL     1      -1.349  18.321  18.530  1.00  0.00     0.016 C 
BRANCH  12  13
HETATM   13  C9  UNL     1      -0.909  16.989  18.016  1.00  0.00     0.020 C 
BRANCH  13  14
HETATM   14  C10 UNL     1      -2.093  16.036  17.838  1.00  0.00     0.122 C 
BRANCH  14  15
HETATM   15  N3  UNL     1      -1.693  15.039  16.862  1.00  0.00    -0.367 N 
HETATM   16  C11 UNL     1      -1.433  13.822  17.153  1.00  0.00     0.196 C 
HETATM   17  N4  UNL     1      -1.049  12.938  16.103  1.00  0.00    -0.067 NA
HETATM   18  N5  UNL     1      -1.496  13.275  18.455  1.00  0.00    -0.067 NA
ATOM     19  H3  UNL     1      -1.615  15.327  15.886  1.00  0.00     0.161 HD
ENDBRANCH  14  15
ENDBRANCH  13  14
ENDBRANCH  12  13
ENDBRANCH   1  12
BRANCH   1  20
HETATM   20  C12 UNL     1       0.911  18.287  19.458  1.00  0.00     0.118 C 
BRANCH  20  21
HETATM   21  C13 UNL     1       1.967  19.314  19.486  1.00  0.00     0.236 C 
HETATM   22  O3  UNL     1       2.501  19.701  20.550  1.00  0.00    -0.272 OA
HETATM   23  N6  UNL     1       2.441  19.930  18.286  1.00  0.00    -0.263 N 
HETATM   24  C14 UNL     1       1.988  19.640  16.958  1.00  0.00     0.185 C 
HETATM   25  N8  UNL     1       3.420  20.916  18.202  1.00  0.00    -0.134 NA
HETATM   26  C15 UNL     1       2.846  20.456  16.031  1.00  0.00     0.258 C 
HETATM   27  C20 UNL     1       4.069  20.677  16.900  1.00  0.00     0.172 C 
BRANCH  26  28
HETATM   28  N7  UNL     1       2.305  21.749  15.726  1.00  0.00     0.096 N 
HETATM   29  C16 UNL     1       1.148  21.712  14.864  1.00  0.00     0.273 C 
HETATM   30  C17 UNL     1       1.636  21.183  13.534  1.00  0.00     0.032 C 
HETATM   31  C18 UNL     1       3.037  21.777  13.467  1.00  0.00     0.032 C 
HETATM   32  C19 UNL     1       3.265  22.408  14.826  1.00  0.00     0.273 C 
ENDBRANCH  26  28
ENDBRANCH  20  21
ENDBRANCH   1  20
TORSDOF 9
ENDMDL
MODEL 5
REMARK VINA RESULT: -6.568316046      1.195      1.514
REMARK  9 active torsions:
REMARK  status: ('A' for Active; 'I' for Inactive)
REMARK    1  A    between atoms: C1_2  and  C2_4 
REMARK       I    between atoms: N2_8  and  C6_9 
REMARK    2  A    between atoms: C6_9  and  C7_11 
REMARK    3  A    between atoms: C7_11  and  C8_12 
REMARK    4  A    between atoms: C7_11  and  C12_20 
REMARK    5  A    between atoms: C8_12  and  C9_13 
REMARK    6  A    between atoms: C9_13  and  C10_14 
REMARK    7  A    between atoms: C10_14  and  N3_15 
REMARK    8  A    between atoms: C12_20  and  C13_21 
REMARK       I    between atoms: C13_21  and  N6_23 
REMARK    9  A    between atoms: C15_25  and  N7_26 
ROOT
HETATM    1  C7  UNL     1       0.419  18.604  19.724  1.00  0.00     0.087 C 
ENDROOT
BRANCH   1   2
HETATM    2  C6  UNL     1      -0.368  18.079  20.878  1.00  0.00     0.225 C 
HETATM    3  N2  UNL     1      -0.825  19.037  21.865  1.00  0.00    -0.339 N 
HETATM    4  C2  UNL     1      -1.564  18.719  23.059  1.00  0.00     0.176 C 
HETATM    5  C5  UNL     1      -0.639  20.460  21.776  1.00  0.00     0.127 C 
HETATM    6  C3  UNL     1      -1.689  20.038  23.796  1.00  0.00     0.036 C 
HETATM    7  C4  UNL     1      -0.542  20.879  23.248  1.00  0.00     0.022 C 
HETATM    8  O2  UNL     1      -0.632  16.891  21.018  1.00  0.00    -0.273 OA
BRANCH   4   9
HETATM    9  C1  UNL     1      -0.925  17.698  23.914  1.00  0.00     0.254 C 
HETATM   10  N1  UNL     1      -1.698  16.618  24.395  1.00  0.00    -0.060 NA
HETATM   11  O1  UNL     1       0.283  17.791  24.208  1.00  0.00    -0.275 OA
ENDBRANCH   4   9
ENDBRANCH   1   2
BRANCH   1  12
HETATM   12  C8  UNL     1       0.072  17.769  18.483  1.00  0.00     0.016 C 
BRANCH  12  13
HETATM   13  C9  UNL     1      -1.375  17.845  18.123  1.00  0.00     0.020 C 
BRANCH  13  14
HETATM   14  C10 UNL     1      -1.820  16.623  17.316  1.00  0.00     0.122 C 
BRANCH  14  15
HETATM   15  N3  UNL     1      -1.693  15.469  18.186  1.00  0.00    -0.367 N 
HETATM   16  C11 UNL     1      -1.579  14.268  17.763  1.00  0.00     0.196 C 
HETATM   17  N4  UNL     1      -1.462  13.218  18.720  1.00  0.00    -0.067 NA
HETATM   18  N5  UNL     1      -1.561  13.893  16.400  1.00  0.00    -0.067 NA
ATOM     19  H3  UNL     1      -1.695  15.625  19.194  1.00  0.00     0.161 HD
ENDBRANCH  14  15
ENDBRANCH  13  14
ENDBRANCH  12  13
ENDBRANCH   1  12
BRANCH   1  20
HETATM   20  C12 UNL     1       1.887  18.456  19.969  1.00  0.00     0.118 C 
BRANCH  20  21
HETATM   21  C13 UNL     1       2.599  19.741  20.060  1.00  0.00     0.236 C 
HETATM   22  O3  UNL     1       2.820  20.313  21.151  1.00  0.00    -0.272 OA
HETATM   23  N6  UNL     1       3.082  20.412  18.893  1.00  0.00    -0.263 N 
HETATM   24  C14 UNL     1       2.957  19.943  17.544  1.00  0.00     0.185 C 
HETATM   25  N8  UNL     1       3.752  21.630  18.866  1.00  0.00    -0.134 NA
HETATM   26  C15 UNL     1       3.702  20.928  16.684  1.00  0.00     0.258 C 
HETATM   27  C20 UNL     1       4.652  21.528  17.702  1.00  0.00     0.172 C 
BRANCH  26  28
HETATM   28  N7  UNL     1       2.887  21.997  16.185  1.00  0.00     0.096 N 
HETATM   29  C16 UNL     1       1.761  21.556  15.396  1.00  0.00     0.273 C 
HETATM   30  C17 UNL     1       2.344  20.916  14.157  1.00  0.00     0.032 C 
HETATM   31  C18 UNL     1       3.579  21.777  13.924  1.00  0.00     0.032 C 
HETATM   32  C19 UNL     1       3.671  22.676  15.142  1.00  0.00     0.273 C 
ENDBRANCH  26  28
ENDBRANCH  20  21
ENDBRANCH   1  20
TORSDOF 9
ENDMDL
