MODEL 1
REMARK VINA RESULT: -3.631057274      0.000      0.000
REMARK  2 active torsions:
REMARK  status: ('A' for Active; 'I' for Inactive)
REMARK    1  A    between atoms: O1_1  and  C1_3 
REMARK    2  A    between atoms: C1_3  and  N1_4 
ROOT
HETATM    1  N1  UNL     1      53.152  68.412 -29.561  1.00  0.00    -0.046 N 
HETATM    2  C2  UNL     1      52.767  68.345 -30.936  1.00  0.00     0.240 C 
HETATM    3  C3  UNL     1      52.926  69.834 -31.315  1.00  0.00     0.036 C 
HETATM    4  C4  UNL     1      53.229  70.367 -29.948  1.00  0.00     0.039 C 
HETATM    5  C5  UNL     1      52.353  69.542 -29.057  1.00  0.00     0.246 C 
HETATM    6  C6  UNL     1      54.279  69.357 -29.485  1.00  0.00     0.246 C 
ENDROOT
BRANCH   1   7
HETATM    7  C1  UNL     1      53.215  67.263 -28.777  1.00  0.00     0.401 C 
BRANCH   7   8
HETATM    8  O1  UNL     1      53.451  66.154 -29.621  1.00  0.00    -0.374 OA
ATOM      9  H1  UNL     1      52.883  65.441 -29.351  1.00  0.00     0.211 HD
ENDBRANCH   7   8
ENDBRANCH   1   7
TORSDOF 2
ENDMDL
MODEL 2
REMARK VINA RESULT: -3.626836852      2.362      3.018
REMARK  2 active torsions:
REMARK  status: ('A' for Active; 'I' for Inactive)
REMARK    1  A    between atoms: O1_1  and  C1_3 
REMARK    2  A    between atoms: C1_3  and  N1_4 
ROOT
HETATM    1  N1  UNL     1      51.953  69.833 -30.355  1.00  0.00    -0.046 N 
HETATM    2  C2  UNL     1      51.886  68.437 -30.652  1.00  0.00     0.240 C 
HETATM    3  C3  UNL     1      53.201  67.974 -29.987  1.00  0.00     0.036 C 
HETATM    4  C4  UNL     1      53.732  69.323 -29.614  1.00  0.00     0.039 C 
HETATM    5  C5  UNL     1      53.323  70.185 -30.767  1.00  0.00     0.246 C 
HETATM    6  C6  UNL     1      52.485  69.947 -28.987  1.00  0.00     0.246 C 
ENDROOT
BRANCH   1   7
HETATM    7  C1  UNL     1      50.924  70.695 -30.725  1.00  0.00     0.401 C 
BRANCH   7   8
HETATM    8  O1  UNL     1      50.516  70.373 -32.040  1.00  0.00    -0.374 OA
ATOM      9  H1  UNL     1      49.881  71.019 -32.326  1.00  0.00     0.211 HD
ENDBRANCH   7   8
ENDBRANCH   1   7
TORSDOF 2
ENDMDL
MODEL 3
REMARK VINA RESULT: -3.529970214      1.350      2.150
REMARK  2 active torsions:
REMARK  status: ('A' for Active; 'I' for Inactive)
REMARK    1  A    between atoms: O1_1  and  C1_3 
REMARK    2  A    between atoms: C1_3  and  N1_4 
ROOT
HETATM    1  N1  UNL     1      52.705  68.913 -30.233  1.00  0.00    -0.046 N 
HETATM    2  C2  UNL     1      53.834  68.782 -29.366  1.00  0.00     0.240 C 
HETATM    3  C3  UNL     1      54.053  70.268 -29.010  1.00  0.00     0.036 C 
HETATM    4  C4  UNL     1      53.031  70.857 -29.933  1.00  0.00     0.039 C 
HETATM    5  C5  UNL     1      53.124  69.988 -31.148  1.00  0.00     0.246 C 
HETATM    6  C6  UNL     1      51.839  69.946 -29.641  1.00  0.00     0.246 C 
ENDROOT
BRANCH   1   7
HETATM    7  C1  UNL     1      52.093  67.793 -30.787  1.00  0.00     0.401 C 
BRANCH   7   8
HETATM    8  O1  UNL     1      52.709  67.509 -32.028  1.00  0.00    -0.374 OA
ATOM      9  H1  UNL     1      52.698  66.569 -32.164  1.00  0.00     0.211 HD
ENDBRANCH   7   8
ENDBRANCH   1   7
TORSDOF 2
ENDMDL
MODEL 4
REMARK VINA RESULT: -3.502277675      2.283      2.859
REMARK  2 active torsions:
REMARK  status: ('A' for Active; 'I' for Inactive)
REMARK    1  A    between atoms: O1_1  and  C1_3 
REMARK    2  A    between atoms: C1_3  and  N1_4 
ROOT
HETATM    1  N1  UNL     1      53.384  70.081 -29.121  1.00  0.00    -0.046 N 
HETATM    2  C2  UNL     1      53.512  68.726 -28.684  1.00  0.00     0.240 C 
HETATM    3  C3  UNL     1      52.614  68.037 -29.735  1.00  0.00     0.036 C 
HETATM    4  C4  UNL     1      52.095  69.269 -30.407  1.00  0.00     0.039 C 
HETATM    5  C5  UNL     1      51.928  70.234 -29.275  1.00  0.00     0.246 C 
HETATM    6  C6  UNL     1      53.395  70.050 -30.593  1.00  0.00     0.246 C 
ENDROOT
BRANCH   1   7
HETATM    7  C1  UNL     1      54.080  71.107 -28.488  1.00  0.00     0.401 C 
BRANCH   7   8
HETATM    8  O1  UNL     1      54.017  70.900 -27.091  1.00  0.00    -0.374 OA
ATOM      9  H1  UNL     1      54.902  70.804 -26.759  1.00  0.00     0.211 HD
ENDBRANCH   7   8
ENDBRANCH   1   7
TORSDOF 2
ENDMDL
MODEL 5
REMARK VINA RESULT: -3.420366722      2.556      3.346
REMARK  2 active torsions:
REMARK  status: ('A' for Active; 'I' for Inactive)
REMARK    1  A    between atoms: O1_1  and  C1_3 
REMARK    2  A    between atoms: C1_3  and  N1_4 
ROOT
HETATM    1  N1  UNL     1      51.812  70.385 -30.290  1.00  0.00    -0.046 N 
HETATM    2  C2  UNL     1      52.198  70.584 -28.928  1.00  0.00     0.240 C 
HETATM    3  C3  UNL     1      53.497  69.749 -28.909  1.00  0.00     0.036 C 
HETATM    4  C4  UNL     1      53.395  69.171 -30.286  1.00  0.00     0.039 C 
HETATM    5  C5  UNL     1      51.927  68.925 -30.447  1.00  0.00     0.246 C 
HETATM    6  C6  UNL     1      53.050  70.426 -31.087  1.00  0.00     0.246 C 
ENDROOT
BRANCH   1   7
HETATM    7  C1  UNL     1      50.682  71.005 -30.813  1.00  0.00     0.401 C 
BRANCH   7   8
HETATM    8  O1  UNL     1      50.439  70.485 -32.105  1.00  0.00    -0.374 OA
ATOM      9  H1  UNL     1      49.613  70.832 -32.421  1.00  0.00     0.211 HD
ENDBRANCH   7   8
ENDBRANCH   1   7
TORSDOF 2
ENDMDL
