MODEL 1
REMARK VINA RESULT: -4.583119592      0.000      0.000
REMARK  1 active torsions:
REMARK  status: ('A' for Active; 'I' for Inactive)
REMARK    1  A    between atoms: N2_6  and  C5_7 
ROOT
HETATM    1  C1  UNL     1      51.955  69.992 -29.087  1.00  0.00     0.274 C 
HETATM    2  N1  UNL     1      52.733  69.288 -30.088  1.00  0.00    -0.057 N 
HETATM    3  C2  UNL     1      53.222  70.278 -31.034  1.00  0.00     0.274 C 
HETATM    4  C3  UNL     1      51.956  68.268 -30.755  1.00  0.00     0.258 C 
HETATM    5  C4  UNL     1      52.431  66.934 -30.214  1.00  0.00     0.153 C 
HETATM    6  N2  UNL     1      53.259  67.339 -29.102  1.00  0.00    -0.352 N 
HETATM    7  C6  UNL     1      53.857  68.591 -29.503  1.00  0.00     0.362 C 
ENDROOT
BRANCH   6   8
HETATM    8  C5  UNL     1      53.456  66.669 -27.874  1.00  0.00     0.172 C 
HETATM    9  N3  UNL     1      53.456  65.391 -27.748  1.00  0.00    -0.395 N 
ATOM     10  H32 UNL     1      53.303  64.843 -28.594  1.00  0.00     0.156 HD
ATOM     11  H31 UNL     1      53.599  64.908 -26.862  1.00  0.00     0.156 HD
ENDBRANCH   6   8
TORSDOF 1
ENDMDL
MODEL 2
REMARK VINA RESULT: -3.726894952      1.278      2.183
REMARK  1 active torsions:
REMARK  status: ('A' for Active; 'I' for Inactive)
REMARK    1  A    between atoms: N2_6  and  C5_7 
ROOT
HETATM    1  C1  UNL     1      53.096  70.136 -31.646  1.00  0.00     0.274 C 
HETATM    2  N1  UNL     1      52.857  70.132 -30.217  1.00  0.00    -0.057 N 
HETATM    3  C2  UNL     1      52.364  71.451 -29.854  1.00  0.00     0.274 C 
HETATM    4  C3  UNL     1      54.049  69.796 -29.472  1.00  0.00     0.258 C 
HETATM    5  C4  UNL     1      53.866  68.378 -28.970  1.00  0.00     0.153 C 
HETATM    6  N2  UNL     1      52.691  67.953 -29.696  1.00  0.00    -0.352 N 
HETATM    7  C6  UNL     1      51.877  69.137 -29.839  1.00  0.00     0.362 C 
ENDROOT
BRANCH   6   8
HETATM    8  C5  UNL     1      52.384  66.659 -30.173  1.00  0.00     0.172 C 
HETATM    9  N3  UNL     1      52.033  65.682 -29.417  1.00  0.00    -0.395 N 
ATOM     10  H32 UNL     1      51.979  65.868 -28.416  1.00  0.00     0.156 HD
ATOM     11  H31 UNL     1      51.811  64.749 -29.762  1.00  0.00     0.156 HD
ENDBRANCH   6   8
TORSDOF 1
ENDMDL
MODEL 3
REMARK VINA RESULT: -3.569978884      1.748      2.888
REMARK  1 active torsions:
REMARK  status: ('A' for Active; 'I' for Inactive)
REMARK    1  A    between atoms: N2_6  and  C5_7 
ROOT
HETATM    1  C1  UNL     1      53.076  71.222 -31.142  1.00  0.00     0.274 C 
HETATM    2  N1  UNL     1      52.791  70.844 -29.772  1.00  0.00    -0.057 N 
HETATM    3  C2  UNL     1      52.292  72.026 -29.089  1.00  0.00     0.274 C 
HETATM    4  C3  UNL     1      53.958  70.310 -29.107  1.00  0.00     0.258 C 
HETATM    5  C4  UNL     1      53.754  68.811 -29.003  1.00  0.00     0.153 C 
HETATM    6  N2  UNL     1      52.602  68.607 -29.850  1.00  0.00    -0.352 N 
HETATM    7  C6  UNL     1      51.797  69.796 -29.700  1.00  0.00     0.362 C 
ENDROOT
BRANCH   6   8
HETATM    8  C5  UNL     1      52.305  67.488 -30.661  1.00  0.00     0.172 C 
HETATM    9  N3  UNL     1      52.600  67.410 -31.908  1.00  0.00    -0.395 N 
ATOM     10  H32 UNL     1      53.076  68.211 -32.322  1.00  0.00     0.156 HD
ATOM     11  H31 UNL     1      52.386  66.602 -32.492  1.00  0.00     0.156 HD
ENDBRANCH   6   8
TORSDOF 1
ENDMDL
MODEL 4
REMARK VINA RESULT: -3.528814838      2.262      3.254
REMARK  1 active torsions:
REMARK  status: ('A' for Active; 'I' for Inactive)
REMARK    1  A    between atoms: N2_6  and  C5_7 
ROOT
HETATM    1  C1  UNL     1      52.833  71.366 -32.112  1.00  0.00     0.274 C 
HETATM    2  N1  UNL     1      52.200  71.338 -30.807  1.00  0.00    -0.057 N 
HETATM    3  C2  UNL     1      51.433  72.565 -30.670  1.00  0.00     0.274 C 
HETATM    4  C3  UNL     1      53.168  71.204 -29.742  1.00  0.00     0.258 C 
HETATM    5  C4  UNL     1      53.065  69.780 -29.235  1.00  0.00     0.153 C 
HETATM    6  N2  UNL     1      52.223  69.166 -30.235  1.00  0.00    -0.352 N 
HETATM    7  C6  UNL     1      51.315  70.204 -30.665  1.00  0.00     0.362 C 
ENDROOT
BRANCH   6   8
HETATM    8  C5  UNL     1      52.261  67.835 -30.708  1.00  0.00     0.172 C 
HETATM    9  N3  UNL     1      52.612  67.508 -31.898  1.00  0.00    -0.395 N 
ATOM     10  H32 UNL     1      52.875  68.266 -32.528  1.00  0.00     0.156 HD
ATOM     11  H31 UNL     1      52.640  66.548 -32.239  1.00  0.00     0.156 HD
ENDBRANCH   6   8
TORSDOF 1
ENDMDL
MODEL 5
REMARK VINA RESULT: -3.445875290      2.231      2.985
REMARK  1 active torsions:
REMARK  status: ('A' for Active; 'I' for Inactive)
REMARK    1  A    between atoms: N2_6  and  C5_7 
ROOT
HETATM    1  C1  UNL     1      51.194  71.158 -29.043  1.00  0.00     0.274 C 
HETATM    2  N1  UNL     1      52.568  71.204 -29.503  1.00  0.00    -0.057 N 
HETATM    3  C2  UNL     1      53.261  72.202 -28.705  1.00  0.00     0.274 C 
HETATM    4  C3  UNL     1      52.654  71.511 -30.913  1.00  0.00     0.258 C 
HETATM    5  C4  UNL     1      53.019  70.220 -31.620  1.00  0.00     0.153 C 
HETATM    6  N2  UNL     1      52.854  69.245 -30.566  1.00  0.00    -0.352 N 
HETATM    7  C6  UNL     1      53.228  69.927 -29.349  1.00  0.00     0.362 C 
ENDROOT
BRANCH   6   8
HETATM    8  C5  UNL     1      52.422  67.906 -30.680  1.00  0.00     0.172 C 
HETATM    9  N3  UNL     1      51.507  67.515 -31.492  1.00  0.00    -0.395 N 
ATOM     10  H32 UNL     1      51.078  68.227 -32.083  1.00  0.00     0.156 HD
ATOM     11  H31 UNL     1      51.196  66.548 -31.574  1.00  0.00     0.156 HD
ENDBRANCH   6   8
TORSDOF 1
ENDMDL
