MODEL 1
REMARK VINA RESULT: -7.064929312      0.000      0.000
REMARK  14 active torsions:
REMARK  status: ('A' for Active; 'I' for Inactive)
REMARK    1  A    between atoms: N1_1  and  C1_5 
REMARK    2  A    between atoms: C1_5  and  C2_6 
REMARK    3  A    between atoms: C2_6  and  C3_7 
REMARK    4  A    between atoms: C3_7  and  C4_8 
REMARK    5  A    between atoms: C4_8  and  C5_9 
REMARK    6  A    between atoms: C5_9  and  C6_10 
REMARK    7  A    between atoms: C6_10  and  C7_11 
REMARK    8  A    between atoms: C7_11  and  C8_12 
REMARK    9  A    between atoms: C8_12  and  C9_13 
REMARK   10  A    between atoms: C9_13  and  C10_14 
REMARK   11  A    between atoms: C10_14  and  C11_15 
REMARK   12  A    between atoms: C11_15  and  C12_16 
REMARK   13  A    between atoms: C12_16  and  C13_17 
REMARK   14  A    between atoms: C13_17  and  C14_18 
ROOT
HETATM    1  C9  UNL     1       7.749  32.284   5.661  1.00  0.00     0.000 C 
ENDROOT
BRANCH   1   2
HETATM    2  C8  UNL     1       7.718  31.826   7.098  1.00  0.00     0.000 C 
BRANCH   2   3
HETATM    3  C7  UNL     1       9.045  31.240   7.517  1.00  0.00     0.000 C 
BRANCH   3   4
HETATM    4  C6  UNL     1       8.926  30.466   8.807  1.00  0.00     0.000 C 
BRANCH   4   5
HETATM    5  C5  UNL     1      10.002  29.438   8.926  1.00  0.00     0.000 C 
BRANCH   5   6
HETATM    6  C4  UNL     1      11.380  30.040   8.886  1.00  0.00     0.000 C 
BRANCH   6   7
HETATM    7  C3  UNL     1      12.436  29.029   9.267  1.00  0.00     0.002 C 
BRANCH   7   8
HETATM    8  C2  UNL     1      13.710  29.698   9.735  1.00  0.00     0.027 C 
BRANCH   8   9
HETATM    9  C1  UNL     1      13.587  31.208   9.658  1.00  0.00     0.229 C 
BRANCH   9  10
HETATM   10  N1  UNL     1      13.598  31.710  11.025  1.00  0.00    -0.079 N 
ATOM     11  H13 UNL     1      14.456  31.482  11.527  1.00  0.00     0.274 HD
ATOM     12  H12 UNL     1      13.682  32.725  11.077  1.00  0.00     0.274 HD
ATOM     13  H11 UNL     1      12.759  31.355  11.483  1.00  0.00     0.274 HD
ENDBRANCH   9  10
ENDBRANCH   8   9
ENDBRANCH   7   8
ENDBRANCH   6   7
ENDBRANCH   5   6
ENDBRANCH   4   5
ENDBRANCH   3   4
ENDBRANCH   2   3
ENDBRANCH   1   2
BRANCH   1  14
HETATM   14  C10 UNL     1       7.872  33.783   5.514  1.00  0.00     0.000 C 
BRANCH  14  15
HETATM   15  C11 UNL     1       7.672  34.217   4.078  1.00  0.00     0.000 C 
BRANCH  15  16
HETATM   16  C12 UNL     1       8.984  34.328   3.337  1.00  0.00     0.005 C 
BRANCH  16  17
HETATM   17  C13 UNL     1       9.725  35.587   3.688  1.00  0.00     0.039 C 
BRANCH  17  18
HETATM   18  C14 UNL     1      11.012  35.242   4.295  1.00  0.00    -0.046 A 
HETATM   19  C15 UNL     1      12.145  35.891   4.512  1.00  0.00     0.020 A 
HETATM   20  C16 UNL     1      12.815  34.762   5.146  1.00  0.00    -0.025 A 
HETATM   21  C17 UNL     1      13.877  34.127   5.765  1.00  0.00     0.012 A 
HETATM   22  C21 UNL     1      11.638  34.081   4.924  1.00  0.00    -0.020 A 
HETATM   23  C18 UNL     1      13.728  32.811   6.149  1.00  0.00     0.001 A 
HETATM   24  C19 UNL     1      12.544  32.110   5.930  1.00  0.00     0.001 A 
HETATM   25  C20 UNL     1      11.496  32.766   5.310  1.00  0.00     0.013 A 
ENDBRANCH  17  18
ENDBRANCH  16  17
ENDBRANCH  15  16
ENDBRANCH  14  15
ENDBRANCH   1  14
TORSDOF 14
ENDMDL
MODEL 2
REMARK VINA RESULT: -7.052909200      2.181      6.530
REMARK  14 active torsions:
REMARK  status: ('A' for Active; 'I' for Inactive)
REMARK    1  A    between atoms: N1_1  and  C1_5 
REMARK    2  A    between atoms: C1_5  and  C2_6 
REMARK    3  A    between atoms: C2_6  and  C3_7 
REMARK    4  A    between atoms: C3_7  and  C4_8 
REMARK    5  A    between atoms: C4_8  and  C5_9 
REMARK    6  A    between atoms: C5_9  and  C6_10 
REMARK    7  A    between atoms: C6_10  and  C7_11 
REMARK    8  A    between atoms: C7_11  and  C8_12 
REMARK    9  A    between atoms: C8_12  and  C9_13 
REMARK   10  A    between atoms: C9_13  and  C10_14 
REMARK   11  A    between atoms: C10_14  and  C11_15 
REMARK   12  A    between atoms: C11_15  and  C12_16 
REMARK   13  A    between atoms: C12_16  and  C13_17 
REMARK   14  A    between atoms: C13_17  and  C14_18 
ROOT
HETATM    1  C9  UNL     1      10.919  31.813   8.179  1.00  0.00     0.000 C 
ENDROOT
BRANCH   1   2
HETATM    2  C8  UNL     1      11.638  31.930   6.859  1.00  0.00     0.000 C 
BRANCH   2   3
HETATM    3  C7  UNL     1      12.753  32.947   6.930  1.00  0.00     0.000 C 
BRANCH   3   4
HETATM    4  C6  UNL     1      13.212  33.360   5.553  1.00  0.00     0.000 C 
BRANCH   4   5
HETATM    5  C5  UNL     1      12.053  33.638   4.654  1.00  0.00     0.000 C 
BRANCH   5   6
HETATM    6  C4  UNL     1      11.579  35.063   4.750  1.00  0.00     0.000 C 
BRANCH   6   7
HETATM    7  C3  UNL     1      10.080  35.160   4.586  1.00  0.00     0.002 C 
BRANCH   7   8
HETATM    8  C2  UNL     1       9.438  33.793   4.494  1.00  0.00     0.027 C 
BRANCH   8   9
HETATM    9  C1  UNL     1       7.999  33.838   4.970  1.00  0.00     0.229 C 
BRANCH   9  10
HETATM   10  N1  UNL     1       7.996  33.445   6.372  1.00  0.00    -0.079 N 
ATOM     11  H13 UNL     1       8.856  32.977   6.657  1.00  0.00     0.274 HD
ATOM     12  H12 UNL     1       8.061  34.239   7.009  1.00  0.00     0.274 HD
ATOM     13  H11 UNL     1       7.162  32.878   6.524  1.00  0.00     0.274 HD
ENDBRANCH   9  10
ENDBRANCH   8   9
ENDBRANCH   7   8
ENDBRANCH   6   7
ENDBRANCH   5   6
ENDBRANCH   4   5
ENDBRANCH   3   4
ENDBRANCH   2   3
ENDBRANCH   1   2
BRANCH   1  14
HETATM   14  C10 UNL     1       9.816  30.780   8.169  1.00  0.00     0.000 C 
BRANCH  14  15
HETATM   15  C11 UNL     1       9.966  29.799   9.312  1.00  0.00     0.000 C 
BRANCH  15  16
HETATM   16  C12 UNL     1      10.655  28.527   8.875  1.00  0.00     0.005 C 
BRANCH  16  17
HETATM   17  C13 UNL     1      11.777  28.148   9.798  1.00  0.00     0.039 C 
BRANCH  17  18
HETATM   18  C14 UNL     1      12.855  29.133   9.686  1.00  0.00    -0.046 A 
HETATM   19  C15 UNL     1      13.365  30.052  10.490  1.00  0.00     0.020 A 
HETATM   20  C16 UNL     1      14.364  30.512   9.532  1.00  0.00    -0.025 A 
HETATM   21  C17 UNL     1      15.414  31.307   9.109  1.00  0.00     0.012 A 
HETATM   22  C21 UNL     1      13.837  29.557   8.692  1.00  0.00    -0.020 A 
HETATM   23  C18 UNL     1      15.915  31.118   7.837  1.00  0.00     0.001 A 
HETATM   24  C19 UNL     1      15.392  30.156   6.976  1.00  0.00     0.001 A 
HETATM   25  C20 UNL     1      14.341  29.374   7.422  1.00  0.00     0.013 A 
ENDBRANCH  17  18
ENDBRANCH  16  17
ENDBRANCH  15  16
ENDBRANCH  14  15
ENDBRANCH   1  14
TORSDOF 14
ENDMDL
MODEL 3
REMARK VINA RESULT: -7.042538534      1.393      4.293
REMARK  14 active torsions:
REMARK  status: ('A' for Active; 'I' for Inactive)
REMARK    1  A    between atoms: N1_1  and  C1_5 
REMARK    2  A    between atoms: C1_5  and  C2_6 
REMARK    3  A    between atoms: C2_6  and  C3_7 
REMARK    4  A    between atoms: C3_7  and  C4_8 
REMARK    5  A    between atoms: C4_8  and  C5_9 
REMARK    6  A    between atoms: C5_9  and  C6_10 
REMARK    7  A    between atoms: C6_10  and  C7_11 
REMARK    8  A    between atoms: C7_11  and  C8_12 
REMARK    9  A    between atoms: C8_12  and  C9_13 
REMARK   10  A    between atoms: C9_13  and  C10_14 
REMARK   11  A    between atoms: C10_14  and  C11_15 
REMARK   12  A    between atoms: C11_15  and  C12_16 
REMARK   13  A    between atoms: C12_16  and  C13_17 
REMARK   14  A    between atoms: C13_17  and  C14_18 
ROOT
HETATM    1  C9  UNL     1      10.891  29.261   9.183  1.00  0.00     0.000 C 
ENDROOT
BRANCH   1   2
HETATM    2  C8  UNL     1      11.701  29.539  10.425  1.00  0.00     0.000 C 
BRANCH   2   3
HETATM    3  C7  UNL     1      13.180  29.390  10.160  1.00  0.00     0.000 C 
BRANCH   3   4
HETATM    4  C6  UNL     1      13.453  29.080   8.708  1.00  0.00     0.000 C 
BRANCH   4   5
HETATM    5  C5  UNL     1      14.463  30.017   8.133  1.00  0.00     0.000 C 
BRANCH   5   6
HETATM    6  C4  UNL     1      13.883  30.905   7.065  1.00  0.00     0.000 C 
BRANCH   6   7
HETATM    7  C3  UNL     1      13.867  32.352   7.497  1.00  0.00     0.002 C 
BRANCH   7   8
HETATM    8  C2  UNL     1      12.527  32.750   8.075  1.00  0.00     0.027 C 
BRANCH   8   9
HETATM    9  C1  UNL     1      12.650  33.084   9.549  1.00  0.00     0.229 C 
BRANCH   9  10
HETATM   10  N1  UNL     1      11.302  33.113  10.098  1.00  0.00    -0.079 N 
ATOM     11  H13 UNL     1      10.579  33.141   9.379  1.00  0.00     0.274 HD
ATOM     12  H12 UNL     1      11.026  32.231  10.528  1.00  0.00     0.274 HD
ATOM     13  H11 UNL     1      11.256  33.903  10.742  1.00  0.00     0.274 HD
ENDBRANCH   9  10
ENDBRANCH   8   9
ENDBRANCH   7   8
ENDBRANCH   6   7
ENDBRANCH   5   6
ENDBRANCH   4   5
ENDBRANCH   3   4
ENDBRANCH   2   3
ENDBRANCH   1   2
BRANCH   1  14
HETATM   14  C10 UNL     1       9.594  30.034   9.131  1.00  0.00     0.000 C 
BRANCH  14  15
HETATM   15  C11 UNL     1       9.476  30.831   7.849  1.00  0.00     0.000 C 
BRANCH  15  16
HETATM   16  C12 UNL     1       8.172  31.592   7.779  1.00  0.00     0.005 C 
BRANCH  16  17
HETATM   17  C13 UNL     1       7.601  31.605   6.390  1.00  0.00     0.039 C 
BRANCH  17  18
HETATM   18  C14 UNL     1       8.195  32.707   5.630  1.00  0.00    -0.046 A 
HETATM   19  C15 UNL     1       7.752  33.864   5.164  1.00  0.00     0.020 A 
HETATM   20  C16 UNL     1       9.025  34.251   4.566  1.00  0.00    -0.025 A 
HETATM   21  C17 UNL     1       9.870  35.092   3.864  1.00  0.00     0.012 A 
HETATM   22  C21 UNL     1       9.491  33.049   5.049  1.00  0.00    -0.020 A 
HETATM   23  C18 UNL     1      11.177  34.699   3.664  1.00  0.00     0.001 A 
HETATM   24  C19 UNL     1      11.662  33.486   4.147  1.00  0.00     0.001 A 
HETATM   25  C20 UNL     1      10.799  32.662   4.846  1.00  0.00     0.013 A 
ENDBRANCH  17  18
ENDBRANCH  16  17
ENDBRANCH  15  16
ENDBRANCH  14  15
ENDBRANCH   1  14
TORSDOF 14
ENDMDL
MODEL 4
REMARK VINA RESULT: -6.970725633      1.772      4.489
REMARK  14 active torsions:
REMARK  status: ('A' for Active; 'I' for Inactive)
REMARK    1  A    between atoms: N1_1  and  C1_5 
REMARK    2  A    between atoms: C1_5  and  C2_6 
REMARK    3  A    between atoms: C2_6  and  C3_7 
REMARK    4  A    between atoms: C3_7  and  C4_8 
REMARK    5  A    between atoms: C4_8  and  C5_9 
REMARK    6  A    between atoms: C5_9  and  C6_10 
REMARK    7  A    between atoms: C6_10  and  C7_11 
REMARK    8  A    between atoms: C7_11  and  C8_12 
REMARK    9  A    between atoms: C8_12  and  C9_13 
REMARK   10  A    between atoms: C9_13  and  C10_14 
REMARK   11  A    between atoms: C10_14  and  C11_15 
REMARK   12  A    between atoms: C11_15  and  C12_16 
REMARK   13  A    between atoms: C12_16  and  C13_17 
REMARK   14  A    between atoms: C13_17  and  C14_18 
ROOT
HETATM    1  C9  UNL     1      10.336  28.772   9.010  1.00  0.00     0.000 C 
ENDROOT
BRANCH   1   2
HETATM    2  C8  UNL     1      11.735  28.473   9.489  1.00  0.00     0.000 C 
BRANCH   2   3
HETATM    3  C7  UNL     1      12.266  29.585  10.362  1.00  0.00     0.000 C 
BRANCH   3   4
HETATM    4  C6  UNL     1      13.567  30.133   9.828  1.00  0.00     0.000 C 
BRANCH   4   5
HETATM    5  C5  UNL     1      14.033  29.363   8.636  1.00  0.00     0.000 C 
BRANCH   5   6
HETATM    6  C4  UNL     1      14.333  30.251   7.459  1.00  0.00     0.000 C 
BRANCH   6   7
HETATM    7  C3  UNL     1      13.322  31.366   7.334  1.00  0.00     0.002 C 
BRANCH   7   8
HETATM    8  C2  UNL     1      13.969  32.662   6.895  1.00  0.00     0.027 C 
BRANCH   8   9
HETATM    9  C1  UNL     1      15.058  32.404   5.872  1.00  0.00     0.229 C 
BRANCH   9  10
HETATM   10  N1  UNL     1      15.183  33.608   5.064  1.00  0.00    -0.079 N 
ATOM     11  H13 UNL     1      15.924  33.545   4.366  1.00  0.00     0.274 HD
ATOM     12  H12 UNL     1      14.405  33.738   4.418  1.00  0.00     0.274 HD
ATOM     13  H11 UNL     1      15.304  34.391   5.707  1.00  0.00     0.274 HD
ENDBRANCH   9  10
ENDBRANCH   8   9
ENDBRANCH   7   8
ENDBRANCH   6   7
ENDBRANCH   5   6
ENDBRANCH   4   5
ENDBRANCH   3   4
ENDBRANCH   2   3
ENDBRANCH   1   2
BRANCH   1  14
HETATM   14  C10 UNL     1       9.943  30.221   9.184  1.00  0.00     0.000 C 
BRANCH  14  15
HETATM   15  C11 UNL     1       9.670  30.885   7.852  1.00  0.00     0.000 C 
BRANCH  15  16
HETATM   16  C12 UNL     1       8.352  31.624   7.852  1.00  0.00     0.005 C 
BRANCH  16  17
HETATM   17  C13 UNL     1       7.700  31.615   6.499  1.00  0.00     0.039 C 
BRANCH  17  18
HETATM   18  C14 UNL     1       8.233  32.716   5.693  1.00  0.00    -0.046 A 
HETATM   19  C15 UNL     1       7.734  33.838   5.201  1.00  0.00     0.020 A 
HETATM   20  C16 UNL     1       8.978  34.258   4.566  1.00  0.00    -0.025 A 
HETATM   21  C17 UNL     1       9.773  35.110   3.821  1.00  0.00     0.012 A 
HETATM   22  C21 UNL     1       9.503  33.091   5.076  1.00  0.00    -0.020 A 
HETATM   23  C18 UNL     1      11.092  34.764   3.606  1.00  0.00     0.001 A 
HETATM   24  C19 UNL     1      11.636  33.588   4.116  1.00  0.00     0.001 A 
HETATM   25  C20 UNL     1      10.821  32.752   4.857  1.00  0.00     0.013 A 
ENDBRANCH  17  18
ENDBRANCH  16  17
ENDBRANCH  15  16
ENDBRANCH  14  15
ENDBRANCH   1  14
TORSDOF 14
ENDMDL
MODEL 5
REMARK VINA RESULT: -6.965171185      1.692      2.467
REMARK  14 active torsions:
REMARK  status: ('A' for Active; 'I' for Inactive)
REMARK    1  A    between atoms: N1_1  and  C1_5 
REMARK    2  A    between atoms: C1_5  and  C2_6 
REMARK    3  A    between atoms: C2_6  and  C3_7 
REMARK    4  A    between atoms: C3_7  and  C4_8 
REMARK    5  A    between atoms: C4_8  and  C5_9 
REMARK    6  A    between atoms: C5_9  and  C6_10 
REMARK    7  A    between atoms: C6_10  and  C7_11 
REMARK    8  A    between atoms: C7_11  and  C8_12 
REMARK    9  A    between atoms: C8_12  and  C9_13 
REMARK   10  A    between atoms: C9_13  and  C10_14 
REMARK   11  A    between atoms: C10_14  and  C11_15 
REMARK   12  A    between atoms: C11_15  and  C12_16 
REMARK   13  A    between atoms: C12_16  and  C13_17 
REMARK   14  A    between atoms: C13_17  and  C14_18 
ROOT
HETATM    1  C9  UNL     1       8.980  31.315   7.525  1.00  0.00     0.000 C 
ENDROOT
BRANCH   1   2
HETATM    2  C8  UNL     1       8.871  30.400   8.719  1.00  0.00     0.000 C 
BRANCH   2   3
HETATM    3  C7  UNL     1      10.150  29.626   8.936  1.00  0.00     0.000 C 
BRANCH   3   4
HETATM    4  C6  UNL     1      11.247  30.511   9.477  1.00  0.00     0.000 C 
BRANCH   4   5
HETATM    5  C5  UNL     1      12.462  30.459   8.611  1.00  0.00     0.000 C 
BRANCH   5   6
HETATM    6  C4  UNL     1      13.419  29.374   9.027  1.00  0.00     0.000 C 
BRANCH   6   7
HETATM    7  C3  UNL     1      14.853  29.773   8.768  1.00  0.00     0.002 C 
BRANCH   7   8
HETATM    8  C2  UNL     1      15.101  30.055   7.302  1.00  0.00     0.027 C 
BRANCH   8   9
HETATM    9  C1  UNL     1      15.994  31.268   7.128  1.00  0.00     0.229 C 
BRANCH   9  10
HETATM   10  N1  UNL     1      16.646  31.139   5.832  1.00  0.00    -0.079 N 
ATOM     11  H13 UNL     1      17.613  30.826   5.901  1.00  0.00     0.274 HD
ATOM     12  H12 UNL     1      16.292  30.356   5.283  1.00  0.00     0.274 HD
ATOM     13  H11 UNL     1      16.548  32.036   5.356  1.00  0.00     0.274 HD
ENDBRANCH   9  10
ENDBRANCH   8   9
ENDBRANCH   7   8
ENDBRANCH   6   7
ENDBRANCH   5   6
ENDBRANCH   4   5
ENDBRANCH   3   4
ENDBRANCH   2   3
ENDBRANCH   1   2
BRANCH   1  14
HETATM   14  C10 UNL     1       7.652  31.888   7.088  1.00  0.00     0.000 C 
BRANCH  14  15
HETATM   15  C11 UNL     1       7.649  32.217   5.611  1.00  0.00     0.000 C 
BRANCH  15  16
HETATM   16  C12 UNL     1       7.528  33.703   5.367  1.00  0.00     0.005 C 
BRANCH  16  17
HETATM   17  C13 UNL     1       8.236  34.129   4.113  1.00  0.00     0.039 C 
BRANCH  17  18
HETATM   18  C14 UNL     1       9.633  34.441   4.424  1.00  0.00    -0.046 A 
HETATM   19  C15 UNL     1      10.361  35.546   4.439  1.00  0.00     0.020 A 
HETATM   20  C16 UNL     1      11.588  34.880   4.860  1.00  0.00    -0.025 A 
HETATM   21  C17 UNL     1      12.925  34.832   5.212  1.00  0.00     0.012 A 
HETATM   22  C21 UNL     1      10.835  33.727   4.847  1.00  0.00    -0.020 A 
HETATM   23  C18 UNL     1      13.477  33.614   5.547  1.00  0.00     0.001 A 
HETATM   24  C19 UNL     1      12.728  32.439   5.538  1.00  0.00     0.001 A 
HETATM   25  C20 UNL     1      11.394  32.512   5.182  1.00  0.00     0.013 A 
ENDBRANCH  17  18
ENDBRANCH  16  17
ENDBRANCH  15  16
ENDBRANCH  14  15
ENDBRANCH   1  14
TORSDOF 14
ENDMDL
