MODEL 1
REMARK VINA RESULT: -9.009064258      0.000      0.000
REMARK  11 active torsions:
REMARK  status: ('A' for Active; 'I' for Inactive)
REMARK    1  A    between atoms: N1_1  and  C1_5 
REMARK    2  A    between atoms: C3_7  and  N2_8 
REMARK    3  A    between atoms: N2_8  and  S1_10 
REMARK    4  A    between atoms: S1_10  and  O3_13 
REMARK    5  A    between atoms: O3_13  and  C4_14 
REMARK    6  A    between atoms: C4_14  and  C5_15 
REMARK    7  A    between atoms: C13_24  and  O5_25 
REMARK    8  A    between atoms: O5_25  and  C14_26 
REMARK    9  A    between atoms: C16_29  and  O7_30 
REMARK   10  A    between atoms: C17_32  and  O8_33 
REMARK   11  A    between atoms: C18_35  and  O9_36 
ROOT
HETATM    1  C1  UNL     1      24.713  10.119  29.826  1.00  0.00     0.214 C 
HETATM    2  C2  UNL     1      23.471  10.241  29.024  1.00  0.00     0.061 C 
HETATM    3  C3  UNL     1      23.447  11.388  28.060  1.00  0.00     0.097 C 
HETATM    4  C11 UNL     1      23.886  12.623  28.807  1.00  0.00     0.028 C 
HETATM    5  C12 UNL     1      25.337  12.466  29.113  1.00  0.00     0.036 C 
HETATM    6  C13 UNL     1      25.781  11.120  29.538  1.00  0.00     0.155 C 
ENDROOT
BRANCH   3   7
HETATM    7  N2  UNL     1      24.204  11.195  26.871  1.00  0.00    -0.292 N 
ATOM      8  H2  UNL     1      25.217  11.077  26.861  1.00  0.00     0.174 HD
BRANCH   7   9
HETATM    9  S1  UNL     1      23.230  11.180  25.445  1.00  0.00     0.358 S 
HETATM   10  O1  UNL     1      22.672   9.795  25.286  1.00  0.00    -0.176 OA
HETATM   11  O2  UNL     1      22.051  12.113  25.581  1.00  0.00    -0.176 OA
BRANCH   9  12
HETATM   12  O3  UNL     1      24.171  11.578  24.121  1.00  0.00    -0.257 OA
BRANCH  12  13
HETATM   13  C4  UNL     1      24.098  10.516  23.226  1.00  0.00     0.223 C 
BRANCH  13  14
HETATM   14  C5  UNL     1      25.480   9.917  23.090  1.00  0.00     0.146 C 
HETATM   15  C6  UNL     1      26.527  10.767  23.774  1.00  0.00     0.034 C 
HETATM   16  C7  UNL     1      27.208  11.603  22.720  1.00  0.00     0.003 C 
HETATM   17  C8  UNL     1      28.467  10.919  22.232  1.00  0.00     0.002 C 
HETATM   18  C9  UNL     1      28.206   9.809  21.269  1.00  0.00     0.026 C 
HETATM   19  C10 UNL     1      26.978   8.993  21.600  1.00  0.00     0.168 C 
HETATM   20  O4  UNL     1      25.853   9.759  21.770  1.00  0.00    -0.384 OA
ENDBRANCH  13  14
ENDBRANCH  12  13
ENDBRANCH   9  12
ENDBRANCH   7   9
ENDBRANCH   3   7
BRANCH   1  21
HETATM   21  N1  UNL     1      25.241   8.757  29.692  1.00  0.00    -0.072 N 
ATOM     22  H13 UNL     1      24.523   8.088  29.412  1.00  0.00     0.274 HD
ATOM     23  H12 UNL     1      25.854   8.657  28.882  1.00  0.00     0.274 HD
ATOM     24  H11 UNL     1      25.701   8.488  30.561  1.00  0.00     0.274 HD
ENDBRANCH   1  21
BRANCH   6  25
HETATM   25  O5  UNL     1      26.666  11.254  30.618  1.00  0.00    -0.351 OA
BRANCH  25  26
HETATM   26  C14 UNL     1      27.899  10.695  30.382  1.00  0.00     0.291 C 
HETATM   27  O6  UNL     1      28.422  10.040  31.494  1.00  0.00    -0.356 OA
HETATM   28  C15 UNL     1      28.814  10.923  32.498  1.00  0.00     0.205 C 
HETATM   29  C16 UNL     1      29.917  11.838  32.066  1.00  0.00     0.173 C 
HETATM   30  C17 UNL     1      30.143  11.807  30.577  1.00  0.00     0.182 C 
HETATM   31  C18 UNL     1      28.816  11.780  29.873  1.00  0.00     0.204 C 
BRANCH  29  32
HETATM   32  O7  UNL     1      31.125  11.556  32.712  1.00  0.00    -0.391 OA
ATOM     33  H7  UNL     1      31.876  11.885  32.234  1.00  0.00     0.210 HD
ENDBRANCH  29  32
BRANCH  30  34
HETATM   34  O8  UNL     1      30.991  10.794  30.171  1.00  0.00    -0.390 OA
ATOM     35  H8  UNL     1      31.251  10.213  30.876  1.00  0.00     0.210 HD
ENDBRANCH  30  34
BRANCH  31  36
HETATM   36  O9  UNL     1      28.983  11.662  28.491  1.00  0.00    -0.388 OA
ATOM     37  H9  UNL     1      28.984  12.521  28.085  1.00  0.00     0.210 HD
ENDBRANCH  31  36
ENDBRANCH  25  26
ENDBRANCH   6  25
TORSDOF 11
ENDMDL
MODEL 2
REMARK VINA RESULT: -8.973932550      3.500      6.293
REMARK  11 active torsions:
REMARK  status: ('A' for Active; 'I' for Inactive)
REMARK    1  A    between atoms: N1_1  and  C1_5 
REMARK    2  A    between atoms: C3_7  and  N2_8 
REMARK    3  A    between atoms: N2_8  and  S1_10 
REMARK    4  A    between atoms: S1_10  and  O3_13 
REMARK    5  A    between atoms: O3_13  and  C4_14 
REMARK    6  A    between atoms: C4_14  and  C5_15 
REMARK    7  A    between atoms: C13_24  and  O5_25 
REMARK    8  A    between atoms: O5_25  and  C14_26 
REMARK    9  A    between atoms: C16_29  and  O7_30 
REMARK   10  A    between atoms: C17_32  and  O8_33 
REMARK   11  A    between atoms: C18_35  and  O9_36 
ROOT
HETATM    1  C1  UNL     1      24.895   8.905  23.796  1.00  0.00     0.214 C 
HETATM    2  C2  UNL     1      24.368   8.384  22.512  1.00  0.00     0.061 C 
HETATM    3  C3  UNL     1      22.885   8.173  22.472  1.00  0.00     0.097 C 
HETATM    4  C11 UNL     1      22.496   7.412  23.714  1.00  0.00     0.028 C 
HETATM    5  C12 UNL     1      22.678   8.331  24.874  1.00  0.00     0.036 C 
HETATM    6  C13 UNL     1      23.881   9.191  24.853  1.00  0.00     0.155 C 
ENDROOT
BRANCH   3   7
HETATM    7  N2  UNL     1      22.111   9.357  22.315  1.00  0.00    -0.292 N 
ATOM      8  H2  UNL     1      22.450  10.288  22.558  1.00  0.00     0.174 HD
BRANCH   7   9
HETATM    9  S1  UNL     1      20.538   9.056  21.669  1.00  0.00     0.358 S 
HETATM   10  O1  UNL     1      20.709   8.328  20.367  1.00  0.00    -0.176 OA
HETATM   11  O2  UNL     1      19.741   8.149  22.575  1.00  0.00    -0.176 OA
BRANCH   9  12
HETATM   12  O3  UNL     1      19.750  10.509  21.416  1.00  0.00    -0.257 OA
BRANCH  12  13
HETATM   13  C4  UNL     1      20.724  11.480  21.215  1.00  0.00     0.223 C 
BRANCH  13  14
HETATM   14  C5  UNL     1      20.497  12.592  22.216  1.00  0.00     0.146 C 
HETATM   15  C6  UNL     1      21.789  13.025  22.871  1.00  0.00     0.034 C 
HETATM   16  C7  UNL     1      21.874  12.355  24.219  1.00  0.00     0.003 C 
HETATM   17  C8  UNL     1      21.333  13.266  25.299  1.00  0.00     0.002 C 
HETATM   18  C9  UNL     1      19.842  13.310  25.349  1.00  0.00     0.026 C 
HETATM   19  C10 UNL     1      19.187  13.274  23.987  1.00  0.00     0.168 C 
HETATM   20  O4  UNL     1      19.614  12.226  23.212  1.00  0.00    -0.384 OA
ENDBRANCH  13  14
ENDBRANCH  12  13
ENDBRANCH   9  12
ENDBRANCH   7   9
ENDBRANCH   3   7
BRANCH   1  21
HETATM   21  N1  UNL     1      25.708  10.097  23.534  1.00  0.00    -0.072 N 
ATOM     22  H13 UNL     1      26.092  10.105  22.589  1.00  0.00     0.274 HD
ATOM     23  H12 UNL     1      25.144  10.944  23.466  1.00  0.00     0.274 HD
ATOM     24  H11 UNL     1      26.434  10.172  24.247  1.00  0.00     0.274 HD
ENDBRANCH   1  21
BRANCH   6  25
HETATM   25  O5  UNL     1      24.458   9.196  26.132  1.00  0.00    -0.351 OA
BRANCH  25  26
HETATM   26  C14 UNL     1      24.114  10.297  26.879  1.00  0.00     0.291 C 
HETATM   27  O6  UNL     1      25.137  11.236  26.968  1.00  0.00    -0.356 OA
HETATM   28  C15 UNL     1      26.193  10.800  27.766  1.00  0.00     0.205 C 
HETATM   29  C16 UNL     1      25.787  10.573  29.189  1.00  0.00     0.173 C 
HETATM   30  C17 UNL     1      24.292  10.571  29.369  1.00  0.00     0.182 C 
HETATM   31  C18 UNL     1      23.655   9.819  28.234  1.00  0.00     0.204 C 
BRANCH  29  32
HETATM   32  O7  UNL     1      26.346  11.515  30.059  1.00  0.00    -0.391 OA
ATOM     33  H7  UNL     1      25.755  12.236  30.238  1.00  0.00     0.210 HD
ENDBRANCH  29  32
BRANCH  30  34
HETATM   34  O8  UNL     1      23.758  11.833  29.549  1.00  0.00    -0.390 OA
ATOM     35  H8  UNL     1      23.335  11.947  30.391  1.00  0.00     0.210 HD
ENDBRANCH  30  34
BRANCH  31  36
HETATM   36  O9  UNL     1      22.261   9.870  28.319  1.00  0.00    -0.388 OA
ATOM     37  H9  UNL     1      21.931   9.106  28.777  1.00  0.00     0.210 HD
ENDBRANCH  31  36
ENDBRANCH  25  26
ENDBRANCH   6  25
TORSDOF 11
ENDMDL
MODEL 3
REMARK VINA RESULT: -8.933749020      3.580      6.263
REMARK  11 active torsions:
REMARK  status: ('A' for Active; 'I' for Inactive)
REMARK    1  A    between atoms: N1_1  and  C1_5 
REMARK    2  A    between atoms: C3_7  and  N2_8 
REMARK    3  A    between atoms: N2_8  and  S1_10 
REMARK    4  A    between atoms: S1_10  and  O3_13 
REMARK    5  A    between atoms: O3_13  and  C4_14 
REMARK    6  A    between atoms: C4_14  and  C5_15 
REMARK    7  A    between atoms: C13_24  and  O5_25 
REMARK    8  A    between atoms: O5_25  and  C14_26 
REMARK    9  A    between atoms: C16_29  and  O7_30 
REMARK   10  A    between atoms: C17_32  and  O8_33 
REMARK   11  A    between atoms: C18_35  and  O9_36 
ROOT
HETATM    1  C1  UNL     1      25.030   8.923  23.386  1.00  0.00     0.214 C 
HETATM    2  C2  UNL     1      24.222   8.127  22.430  1.00  0.00     0.061 C 
HETATM    3  C3  UNL     1      22.743   8.153  22.672  1.00  0.00     0.097 C 
HETATM    4  C11 UNL     1      22.513   7.875  24.137  1.00  0.00     0.028 C 
HETATM    5  C12 UNL     1      23.003   9.061  24.897  1.00  0.00     0.036 C 
HETATM    6  C13 UNL     1      24.265   9.672  24.426  1.00  0.00     0.155 C 
ENDROOT
BRANCH   3   7
HETATM    7  N2  UNL     1      22.082   9.341  22.251  1.00  0.00    -0.292 N 
ATOM      8  H2  UNL     1      22.505  10.268  22.301  1.00  0.00     0.174 HD
BRANCH   7   9
HETATM    9  S1  UNL     1      20.491   9.051  21.645  1.00  0.00     0.358 S 
HETATM   10  O1  UNL     1      20.625   8.347  20.325  1.00  0.00    -0.176 OA
HETATM   11  O2  UNL     1      19.721   8.127  22.556  1.00  0.00    -0.176 OA
BRANCH   9  12
HETATM   12  O3  UNL     1      19.697  10.509  21.442  1.00  0.00    -0.257 OA
BRANCH  12  13
HETATM   13  C4  UNL     1      20.666  11.491  21.280  1.00  0.00     0.223 C 
BRANCH  13  14
HETATM   14  C5  UNL     1      20.390  12.597  22.275  1.00  0.00     0.146 C 
HETATM   15  C6  UNL     1      21.670  13.181  22.830  1.00  0.00     0.034 C 
HETATM   16  C7  UNL     1      21.918  12.556  24.180  1.00  0.00     0.003 C 
HETATM   17  C8  UNL     1      21.357  13.430  25.280  1.00  0.00     0.002 C 
HETATM   18  C9  UNL     1      19.877  13.317  25.434  1.00  0.00     0.026 C 
HETATM   19  C10 UNL     1      19.139  13.178  24.123  1.00  0.00     0.168 C 
HETATM   20  O4  UNL     1      19.622  12.163  23.338  1.00  0.00    -0.384 OA
ENDBRANCH  13  14
ENDBRANCH  12  13
ENDBRANCH   9  12
ENDBRANCH   7   9
ENDBRANCH   3   7
BRANCH   1  21
HETATM   21  N1  UNL     1      25.901   9.835  22.638  1.00  0.00    -0.072 N 
ATOM     22  H13 UNL     1      26.792   9.403  22.389  1.00  0.00     0.274 HD
ATOM     23  H12 UNL     1      25.558  10.010  21.693  1.00  0.00     0.274 HD
ATOM     24  H11 UNL     1      26.023  10.695  23.171  1.00  0.00     0.274 HD
ENDBRANCH   1  21
BRANCH   6  25
HETATM   25  O5  UNL     1      25.067   9.972  25.538  1.00  0.00    -0.351 OA
BRANCH  25  26
HETATM   26  C14 UNL     1      24.421   9.794  26.737  1.00  0.00     0.291 C 
HETATM   27  O6  UNL     1      24.324  10.966  27.483  1.00  0.00    -0.356 OA
HETATM   28  C15 UNL     1      25.553  11.372  27.999  1.00  0.00     0.205 C 
HETATM   29  C16 UNL     1      26.134  10.380  28.959  1.00  0.00     0.173 C 
HETATM   30  C17 UNL     1      25.422   9.053  28.918  1.00  0.00     0.182 C 
HETATM   31  C18 UNL     1      25.124   8.692  27.490  1.00  0.00     0.204 C 
BRANCH  29  32
HETATM   32  O7  UNL     1      26.135  10.852  30.275  1.00  0.00    -0.391 OA
ATOM     33  H7  UNL     1      25.922  10.172  30.903  1.00  0.00     0.210 HD
ENDBRANCH  29  32
BRANCH  30  34
HETATM   34  O8  UNL     1      24.308   9.002  29.733  1.00  0.00    -0.390 OA
ATOM     35  H8  UNL     1      24.270   8.221  30.273  1.00  0.00     0.210 HD
ENDBRANCH  30  34
BRANCH  31  36
HETATM   36  O9  UNL     1      24.386   7.508  27.416  1.00  0.00    -0.388 OA
ATOM     37  H9  UNL     1      24.457   7.130  26.547  1.00  0.00     0.210 HD
ENDBRANCH  31  36
ENDBRANCH  25  26
ENDBRANCH   6  25
TORSDOF 11
ENDMDL
MODEL 4
REMARK VINA RESULT: -8.872257678      3.109      8.951
REMARK  11 active torsions:
REMARK  status: ('A' for Active; 'I' for Inactive)
REMARK    1  A    between atoms: N1_1  and  C1_5 
REMARK    2  A    between atoms: C3_7  and  N2_8 
REMARK    3  A    between atoms: N2_8  and  S1_10 
REMARK    4  A    between atoms: S1_10  and  O3_13 
REMARK    5  A    between atoms: O3_13  and  C4_14 
REMARK    6  A    between atoms: C4_14  and  C5_15 
REMARK    7  A    between atoms: C13_24  and  O5_25 
REMARK    8  A    between atoms: O5_25  and  C14_26 
REMARK    9  A    between atoms: C16_29  and  O7_30 
REMARK   10  A    between atoms: C17_32  and  O8_33 
REMARK   11  A    between atoms: C18_35  and  O9_36 
ROOT
HETATM    1  C1  UNL     1      24.538   9.985  24.464  1.00  0.00     0.214 C 
HETATM    2  C2  UNL     1      24.790  10.831  25.656  1.00  0.00     0.061 C 
HETATM    3  C3  UNL     1      23.569  11.449  26.267  1.00  0.00     0.097 C 
HETATM    4  C11 UNL     1      22.770  12.081  25.154  1.00  0.00     0.028 C 
HETATM    5  C12 UNL     1      22.212  10.974  24.323  1.00  0.00     0.036 C 
HETATM    6  C13 UNL     1      23.110   9.828  24.062  1.00  0.00     0.155 C 
ENDROOT
BRANCH   3   7
HETATM    7  N2  UNL     1      22.774  10.568  27.052  1.00  0.00    -0.292 N 
ATOM      8  H2  UNL     1      21.826  10.288  26.799  1.00  0.00     0.174 HD
BRANCH   7   9
HETATM    9  S1  UNL     1      23.579  10.021  28.479  1.00  0.00     0.358 S 
HETATM   10  O1  UNL     1      22.557   9.927  29.574  1.00  0.00    -0.176 OA
HETATM   11  O2  UNL     1      24.143   8.634  28.287  1.00  0.00    -0.176 OA
BRANCH   9  12
HETATM   12  O3  UNL     1      24.775  11.112  28.899  1.00  0.00    -0.257 OA
BRANCH  12  13
HETATM   13  C4  UNL     1      25.948  10.390  29.087  1.00  0.00     0.223 C 
BRANCH  13  14
HETATM   14  C5  UNL     1      26.681  10.979  30.271  1.00  0.00     0.146 C 
HETATM   15  C6  UNL     1      27.546  12.151  29.865  1.00  0.00     0.034 C 
HETATM   16  C7  UNL     1      28.964  11.657  29.727  1.00  0.00     0.003 C 
HETATM   17  C8  UNL     1      29.731  11.879  31.012  1.00  0.00     0.002 C 
HETATM   18  C9  UNL     1      29.422  10.874  32.071  1.00  0.00     0.026 C 
HETATM   19  C10 UNL     1      27.967  10.467  32.116  1.00  0.00     0.168 C 
HETATM   20  O4  UNL     1      27.487  10.051  30.901  1.00  0.00    -0.384 OA
ENDBRANCH  13  14
ENDBRANCH  12  13
ENDBRANCH   9  12
ENDBRANCH   7   9
ENDBRANCH   3   7
BRANCH   1  21
HETATM   21  N1  UNL     1      25.158   8.672  24.666  1.00  0.00    -0.072 N 
ATOM     22  H13 UNL     1      26.044   8.580  24.167  1.00  0.00     0.274 HD
ATOM     23  H12 UNL     1      25.515   8.553  25.614  1.00  0.00     0.274 HD
ATOM     24  H11 UNL     1      24.492   7.943  24.409  1.00  0.00     0.274 HD
ENDBRANCH   1  21
BRANCH   6  25
HETATM   25  O5  UNL     1      22.993   9.459  22.713  1.00  0.00    -0.351 OA
BRANCH  25  26
HETATM   26  C14 UNL     1      22.890   8.101  22.529  1.00  0.00     0.291 C 
HETATM   27  O6  UNL     1      22.635   7.749  21.206  1.00  0.00    -0.356 OA
HETATM   28  C15 UNL     1      21.343   8.083  20.806  1.00  0.00     0.205 C 
HETATM   29  C16 UNL     1      20.289   7.356  21.583  1.00  0.00     0.173 C 
HETATM   30  C17 UNL     1      20.844   6.671  22.805  1.00  0.00     0.182 C 
HETATM   31  C18 UNL     1      21.838   7.577  23.475  1.00  0.00     0.204 C 
BRANCH  29  32
HETATM   32  O7  UNL     1      19.611   6.412  20.805  1.00  0.00    -0.391 OA
ATOM     33  H7  UNL     1      20.035   5.563  20.815  1.00  0.00     0.210 HD
ENDBRANCH  29  32
BRANCH  30  34
HETATM   34  O8  UNL     1      21.348   5.411  22.548  1.00  0.00    -0.390 OA
ATOM     35  H8  UNL     1      20.932   4.981  21.811  1.00  0.00     0.210 HD
ENDBRANCH  30  34
BRANCH  31  36
HETATM   36  O9  UNL     1      22.440   6.943  24.564  1.00  0.00    -0.388 OA
ATOM     37  H9  UNL     1      22.935   7.571  25.079  1.00  0.00     0.210 HD
ENDBRANCH  31  36
ENDBRANCH  25  26
ENDBRANCH   6  25
TORSDOF 11
ENDMDL
MODEL 5
REMARK VINA RESULT: -8.865472761      2.934      3.769
REMARK  11 active torsions:
REMARK  status: ('A' for Active; 'I' for Inactive)
REMARK    1  A    between atoms: N1_1  and  C1_5 
REMARK    2  A    between atoms: C3_7  and  N2_8 
REMARK    3  A    between atoms: N2_8  and  S1_10 
REMARK    4  A    between atoms: S1_10  and  O3_13 
REMARK    5  A    between atoms: O3_13  and  C4_14 
REMARK    6  A    between atoms: C4_14  and  C5_15 
REMARK    7  A    between atoms: C13_24  and  O5_25 
REMARK    8  A    between atoms: O5_25  and  C14_26 
REMARK    9  A    between atoms: C16_29  and  O7_30 
REMARK   10  A    between atoms: C17_32  and  O8_33 
REMARK   11  A    between atoms: C18_35  and  O9_36 
ROOT
HETATM    1  C1  UNL     1      24.901   9.751  27.460  1.00  0.00     0.214 C 
HETATM    2  C2  UNL     1      23.447   9.719  27.166  1.00  0.00     0.061 C 
HETATM    3  C3  UNL     1      22.741  11.033  27.306  1.00  0.00     0.097 C 
HETATM    4  C11 UNL     1      23.142  11.630  28.632  1.00  0.00     0.028 C 
HETATM    5  C12 UNL     1      24.577  12.025  28.526  1.00  0.00     0.036 C 
HETATM    6  C13 UNL     1      25.469  11.086  27.811  1.00  0.00     0.155 C 
ENDROOT
BRANCH   3   7
HETATM    7  N2  UNL     1      22.943  11.946  26.234  1.00  0.00    -0.292 N 
ATOM      8  H2  UNL     1      23.861  12.157  25.840  1.00  0.00     0.174 HD
BRANCH   7   9
HETATM    9  S1  UNL     1      21.477  12.660  25.667  1.00  0.00     0.358 S 
HETATM   10  O1  UNL     1      20.515  12.707  26.819  1.00  0.00    -0.176 OA
HETATM   11  O2  UNL     1      21.701  14.087  25.227  1.00  0.00    -0.176 OA
BRANCH   9  12
HETATM   12  O3  UNL     1      20.846  11.732  24.428  1.00  0.00    -0.257 OA
BRANCH  12  13
HETATM   13  C4  UNL     1      21.736  11.800  23.363  1.00  0.00     0.223 C 
BRANCH  13  14
HETATM   14  C5  UNL     1      22.186  10.394  23.032  1.00  0.00     0.146 C 
HETATM   15  C6  UNL     1      21.579   9.905  21.737  1.00  0.00     0.034 C 
HETATM   16  C7  UNL     1      20.399   9.031  22.078  1.00  0.00     0.003 C 
HETATM   17  C8  UNL     1      20.811   7.576  22.124  1.00  0.00     0.002 C 
HETATM   18  C9  UNL     1      21.528   7.199  23.378  1.00  0.00     0.026 C 
HETATM   19  C10 UNL     1      22.464   8.271  23.888  1.00  0.00     0.168 C 
HETATM   20  O4  UNL     1      21.858   9.494  24.026  1.00  0.00    -0.384 OA
ENDBRANCH  13  14
ENDBRANCH  12  13
ENDBRANCH   9  12
ENDBRANCH   7   9
ENDBRANCH   3   7
BRANCH   1  21
HETATM   21  N1  UNL     1      25.633   9.166  26.333  1.00  0.00    -0.072 N 
ATOM     22  H13 UNL     1      25.133   9.270  25.449  1.00  0.00     0.274 HD
ATOM     23  H12 UNL     1      26.466   9.702  26.091  1.00  0.00     0.274 HD
ATOM     24  H11 UNL     1      25.848   8.191  26.543  1.00  0.00     0.274 HD
ENDBRANCH   1  21
BRANCH   6  25
HETATM   25  O5  UNL     1      26.667  10.962  28.530  1.00  0.00    -0.351 OA
BRANCH  25  26
HETATM   26  C14 UNL     1      26.526  11.226  29.871  1.00  0.00     0.291 C 
HETATM   27  O6  UNL     1      27.226  12.358  30.280  1.00  0.00    -0.356 OA
HETATM   28  C15 UNL     1      28.605  12.161  30.280  1.00  0.00     0.205 C 
HETATM   29  C16 UNL     1      29.038  11.100  31.245  1.00  0.00     0.173 C 
HETATM   30  C17 UNL     1      27.882  10.287  31.766  1.00  0.00     0.182 C 
HETATM   31  C18 UNL     1      26.933   9.993  30.638  1.00  0.00     0.204 C 
BRANCH  29  32
HETATM   32  O7  UNL     1      29.746  11.626  32.330  1.00  0.00    -0.391 OA
ATOM     33  H7  UNL     1      29.571  12.550  32.462  1.00  0.00     0.210 HD
ENDBRANCH  29  32
BRANCH  30  34
HETATM   34  O8  UNL     1      27.260  10.855  32.861  1.00  0.00    -0.390 OA
ATOM     35  H8  UNL     1      26.540  11.430  32.631  1.00  0.00     0.210 HD
ENDBRANCH  30  34
BRANCH  31  36
HETATM   36  O9  UNL     1      25.802   9.314  31.099  1.00  0.00    -0.388 OA
ATOM     37  H9  UNL     1      25.038   9.877  31.050  1.00  0.00     0.210 HD
ENDBRANCH  31  36
ENDBRANCH  25  26
ENDBRANCH   6  25
TORSDOF 11
ENDMDL
