MODEL 1
REMARK VINA RESULT: -8.142880206      0.000      0.000
REMARK  6 active torsions:
REMARK  status: ('A' for Active; 'I' for Inactive)
REMARK       I    between atoms: C1_4  and  N3_6 
REMARK    1  A    between atoms: N4_9  and  S1_10 
REMARK    2  A    between atoms: S1_10  and  N5_13 
REMARK       I    between atoms: N5_13  and  C4_15 
REMARK       I    between atoms: C4_15  and  N6_17 
REMARK    3  A    between atoms: N7_20  and  C7_21 
REMARK    4  A    between atoms: C7_21  and  O4_22 
REMARK    5  A    between atoms: C7_21  and  N8_24 
REMARK    6  A    between atoms: N9_29  and  C12_31 
ROOT
HETATM    1  N5  UNL     1      15.292 -13.755  21.823  1.00  0.00    -0.223 N 
ATOM      2  H5  UNL     1      15.156 -14.705  22.169  1.00  0.00     0.184 HD
HETATM    3  C4  UNL     1      16.578 -13.177  21.905  1.00  0.00     0.332 C 
HETATM    4  O3  UNL     1      16.674 -11.984  21.453  1.00  0.00    -0.246 OA
HETATM    5  N6  UNL     1      17.724 -13.776  22.424  1.00  0.00    -0.330 N 
HETATM    6  C5  UNL     1      18.981 -13.043  22.436  1.00  0.00     0.147 C 
HETATM    7  C6  UNL     1      20.133 -13.909  22.744  1.00  0.00     0.146 C 
HETATM    8  N7  UNL     1      19.920 -14.898  23.809  1.00  0.00    -0.344 N 
HETATM    9  C13 UNL     1      18.590 -15.187  24.202  1.00  0.00     0.146 C 
HETATM   10  C14 UNL     1      17.685 -15.126  22.948  1.00  0.00     0.147 C 
ENDROOT
BRANCH   1  11
HETATM   11  S1  UNL     1      13.944 -12.907  21.158  1.00  0.00     0.306 S 
HETATM   12  O1  UNL     1      12.810 -13.883  20.958  1.00  0.00    -0.188 OA
HETATM   13  O2  UNL     1      14.250 -12.322  19.810  1.00  0.00    -0.188 OA
BRANCH  11  14
HETATM   14  N4  UNL     1      13.370 -11.652  22.170  1.00  0.00    -0.190 NA
HETATM   15  C3  UNL     1      13.323 -10.381  21.537  1.00  0.00     0.129 C 
HETATM   16  C2  UNL     1      12.099  -9.601  21.932  1.00  0.00     0.141 C 
HETATM   17  N3  UNL     1      11.992  -9.625  23.376  1.00  0.00    -0.354 N 
HETATM   18  C1  UNL     1      12.002  -8.443  24.154  1.00  0.00     0.184 C 
HETATM   19  C16 UNL     1      11.871 -10.958  23.975  1.00  0.00     0.141 C 
HETATM   20  N1  UNL     1      13.019  -8.089  24.856  1.00  0.00    -0.374 N 
HETATM   21  N2  UNL     1      10.833  -7.635  24.144  1.00  0.00    -0.064 NA
ATOM     22  H12 UNL     1      13.027  -7.238  25.417  1.00  0.00     0.158 HD
ATOM     23  H11 UNL     1      13.858  -8.669  24.864  1.00  0.00     0.158 HD
HETATM   24  C15 UNL     1      12.208 -12.021  22.931  1.00  0.00     0.129 C 
ENDBRANCH  11  14
ENDBRANCH   1  11
BRANCH   8  25
HETATM   25  C7  UNL     1      21.100 -15.441  24.370  1.00  0.00     0.223 C 
BRANCH  25  26
HETATM   26  O4  UNL     1      20.975 -16.660  24.817  1.00  0.00    -0.332 OA
ATOM     27  H4  UNL     1      21.636 -16.918  25.450  1.00  0.00     0.221 HD
ENDBRANCH  25  26
BRANCH  25  28
HETATM   28  N8  UNL     1      22.378 -14.851  24.506  1.00  0.00    -0.302 N 
HETATM   29  C8  UNL     1      22.783 -13.504  24.821  1.00  0.00     0.134 C 
HETATM   30  C9  UNL     1      24.301 -13.474  24.812  1.00  0.00     0.028 C 
HETATM   31  C10 UNL     1      24.697 -14.930  25.026  1.00  0.00     0.078 C 
HETATM   32  C11 UNL     1      23.596 -15.629  24.285  1.00  0.00     0.088 C 
HETATM   33  N9  UNL     1      23.675 -16.697  23.575  1.00  0.00    -0.324 N 
ATOM     34  H9  UNL     1      22.831 -17.046  23.122  1.00  0.00     0.169 HD
BRANCH  33  35
HETATM   35  C12 UNL     1      24.881 -17.408  23.397  1.00  0.00     0.354 C 
HETATM   36  O5  UNL     1      25.661 -17.187  22.434  1.00  0.00    -0.283 OA
ENDBRANCH  33  35
ENDBRANCH  25  28
ENDBRANCH   8  25
TORSDOF 6
ENDMDL
MODEL 2
REMARK VINA RESULT: -8.118806857      1.630      1.885
REMARK  6 active torsions:
REMARK  status: ('A' for Active; 'I' for Inactive)
REMARK       I    between atoms: C1_4  and  N3_6 
REMARK    1  A    between atoms: N4_9  and  S1_10 
REMARK    2  A    between atoms: S1_10  and  N5_13 
REMARK       I    between atoms: N5_13  and  C4_15 
REMARK       I    between atoms: C4_15  and  N6_17 
REMARK    3  A    between atoms: N7_20  and  C7_21 
REMARK    4  A    between atoms: C7_21  and  O4_22 
REMARK    5  A    between atoms: C7_21  and  N8_24 
REMARK    6  A    between atoms: N9_29  and  C12_31 
ROOT
HETATM    1  N5  UNL     1      15.244 -13.523  21.780  1.00  0.00    -0.223 N 
ATOM      2  H5  UNL     1      15.268 -14.434  22.238  1.00  0.00     0.184 HD
HETATM    3  C4  UNL     1      16.460 -12.840  21.555  1.00  0.00     0.332 C 
HETATM    4  O3  UNL     1      16.354 -11.704  20.977  1.00  0.00    -0.246 OA
HETATM    5  N6  UNL     1      17.735 -13.285  21.899  1.00  0.00    -0.330 N 
HETATM    6  C5  UNL     1      18.895 -12.460  21.596  1.00  0.00     0.147 C 
HETATM    7  C6  UNL     1      20.163 -13.192  21.760  1.00  0.00     0.146 C 
HETATM    8  N7  UNL     1      20.247 -14.065  22.938  1.00  0.00    -0.344 N 
HETATM    9  C13 UNL     1      19.047 -14.409  23.607  1.00  0.00     0.146 C 
HETATM   10  C14 UNL     1      17.925 -14.565  22.551  1.00  0.00     0.147 C 
ENDROOT
BRANCH   1  11
HETATM   11  S1  UNL     1      13.721 -12.865  21.307  1.00  0.00     0.306 S 
HETATM   12  O1  UNL     1      12.677 -13.954  21.388  1.00  0.00    -0.188 OA
HETATM   13  O2  UNL     1      13.727 -12.382  19.885  1.00  0.00    -0.188 OA
BRANCH  11  14
HETATM   14  N4  UNL     1      13.201 -11.578  22.308  1.00  0.00    -0.190 NA
HETATM   15  C3  UNL     1      13.174 -10.317  21.655  1.00  0.00     0.129 C 
HETATM   16  C2  UNL     1      11.980  -9.498  22.061  1.00  0.00     0.141 C 
HETATM   17  N3  UNL     1      11.901  -9.496  23.506  1.00  0.00    -0.354 N 
HETATM   18  C1  UNL     1      11.958  -8.301  24.264  1.00  0.00     0.184 C 
HETATM   19  C16 UNL     1      11.757 -10.815  24.130  1.00  0.00     0.141 C 
HETATM   20  N1  UNL     1      12.998  -7.964  24.941  1.00  0.00    -0.374 N 
HETATM   21  N2  UNL     1      10.811  -7.462  24.263  1.00  0.00    -0.064 NA
ATOM     22  H12 UNL     1      13.039  -7.104  25.487  1.00  0.00     0.158 HD
ATOM     23  H11 UNL     1      13.821  -8.566  24.942  1.00  0.00     0.158 HD
HETATM   24  C15 UNL     1      12.044 -11.903  23.097  1.00  0.00     0.129 C 
ENDBRANCH  11  14
ENDBRANCH   1  11
BRANCH   8  25
HETATM   25  C7  UNL     1      21.557 -14.446  23.312  1.00  0.00     0.223 C 
BRANCH  25  26
HETATM   26  O4  UNL     1      22.481 -13.578  23.008  1.00  0.00    -0.332 OA
ATOM     27  H4  UNL     1      22.333 -12.705  23.353  1.00  0.00     0.221 HD
ENDBRANCH  25  26
BRANCH  25  28
HETATM   28  N8  UNL     1      21.993 -15.623  23.966  1.00  0.00    -0.302 N 
HETATM   29  C8  UNL     1      22.545 -15.841  25.278  1.00  0.00     0.134 C 
HETATM   30  C9  UNL     1      22.835 -17.327  25.406  1.00  0.00     0.028 C 
HETATM   31  C10 UNL     1      21.931 -17.967  24.360  1.00  0.00     0.078 C 
HETATM   32  C11 UNL     1      21.961 -16.918  23.288  1.00  0.00     0.088 C 
HETATM   33  N9  UNL     1      21.969 -17.089  22.014  1.00  0.00    -0.324 N 
ATOM     34  H9  UNL     1      22.001 -16.268  21.411  1.00  0.00     0.169 HD
BRANCH  33  35
HETATM   35  C12 UNL     1      21.937 -18.367  21.415  1.00  0.00     0.354 C 
HETATM   36  O5  UNL     1      22.182 -18.549  20.195  1.00  0.00    -0.283 OA
ENDBRANCH  33  35
ENDBRANCH  25  28
ENDBRANCH   8  25
TORSDOF 6
ENDMDL
MODEL 3
REMARK VINA RESULT: -7.958338679      6.195      8.242
REMARK  6 active torsions:
REMARK  status: ('A' for Active; 'I' for Inactive)
REMARK       I    between atoms: C1_4  and  N3_6 
REMARK    1  A    between atoms: N4_9  and  S1_10 
REMARK    2  A    between atoms: S1_10  and  N5_13 
REMARK       I    between atoms: N5_13  and  C4_15 
REMARK       I    between atoms: C4_15  and  N6_17 
REMARK    3  A    between atoms: N7_20  and  C7_21 
REMARK    4  A    between atoms: C7_21  and  O4_22 
REMARK    5  A    between atoms: C7_21  and  N8_24 
REMARK    6  A    between atoms: N9_29  and  C12_31 
ROOT
HETATM    1  N5  UNL     1      17.076 -11.540  17.023  1.00  0.00    -0.223 N 
ATOM      2  H5  UNL     1      16.353 -11.869  17.663  1.00  0.00     0.184 HD
HETATM    3  C4  UNL     1      18.432 -11.708  17.380  1.00  0.00     0.332 C 
HETATM    4  O3  UNL     1      19.283 -11.272  16.531  1.00  0.00    -0.246 OA
HETATM    5  N6  UNL     1      18.913 -12.294  18.550  1.00  0.00    -0.330 N 
HETATM    6  C5  UNL     1      20.348 -12.394  18.772  1.00  0.00     0.147 C 
HETATM    7  C6  UNL     1      20.682 -13.282  19.899  1.00  0.00     0.146 C 
HETATM    8  N7  UNL     1      19.824 -13.156  21.085  1.00  0.00    -0.344 N 
HETATM    9  C13 UNL     1      18.583 -12.488  20.949  1.00  0.00     0.146 C 
HETATM   10  C14 UNL     1      18.002 -12.813  19.551  1.00  0.00     0.147 C 
ENDROOT
BRANCH   1  11
HETATM   11  S1  UNL     1      16.603 -10.794  15.540  1.00  0.00     0.306 S 
HETATM   12  O1  UNL     1      17.217  -9.416  15.474  1.00  0.00    -0.188 OA
HETATM   13  O2  UNL     1      15.117 -10.606  15.447  1.00  0.00    -0.188 OA
BRANCH  11  14
HETATM   14  N4  UNL     1      17.123 -11.656  14.155  1.00  0.00    -0.190 NA
HETATM   15  C3  UNL     1      17.207 -13.061  14.352  1.00  0.00     0.129 C 
HETATM   16  C2  UNL     1      16.732 -13.826  13.147  1.00  0.00     0.141 C 
HETATM   17  N3  UNL     1      17.387 -13.282  11.976  1.00  0.00    -0.354 N 
HETATM   18  C1  UNL     1      18.215 -14.068  11.139  1.00  0.00     0.184 C 
HETATM   19  C16 UNL     1      17.132 -11.861  11.717  1.00  0.00     0.141 C 
HETATM   20  N1  UNL     1      19.496 -13.960  11.140  1.00  0.00    -0.374 N 
HETATM   21  N2  UNL     1      17.584 -15.002  10.274  1.00  0.00    -0.064 NA
ATOM     22  H12 UNL     1      20.093 -14.526  10.537  1.00  0.00     0.158 HD
ATOM     23  H11 UNL     1      19.949 -13.289  11.761  1.00  0.00     0.158 HD
HETATM   24  C15 UNL     1      16.479 -11.227  12.944  1.00  0.00     0.129 C 
ENDBRANCH  11  14
ENDBRANCH   1  11
BRANCH   8  25
HETATM   25  C7  UNL     1      20.364 -13.694  22.277  1.00  0.00     0.223 C 
BRANCH  25  26
HETATM   26  O4  UNL     1      21.667 -13.747  22.306  1.00  0.00    -0.332 OA
ATOM     27  H4  UNL     1      22.022 -14.467  22.814  1.00  0.00     0.221 HD
ENDBRANCH  25  26
BRANCH  25  28
HETATM   28  N8  UNL     1      19.691 -14.173  23.426  1.00  0.00    -0.302 N 
HETATM   29  C8  UNL     1      18.403 -14.797  23.591  1.00  0.00     0.134 C 
HETATM   30  C9  UNL     1      18.223 -15.079  25.072  1.00  0.00     0.028 C 
HETATM   31  C10 UNL     1      19.647 -15.097  25.616  1.00  0.00     0.078 C 
HETATM   32  C11 UNL     1      20.286 -14.048  24.755  1.00  0.00     0.088 C 
HETATM   33  N9  UNL     1      21.176 -13.184  25.092  1.00  0.00    -0.324 N 
ATOM     34  H9  UNL     1      21.507 -12.524  24.387  1.00  0.00     0.169 HD
BRANCH  33  35
HETATM   35  C12 UNL     1      21.715 -13.110  26.394  1.00  0.00     0.354 C 
HETATM   36  O5  UNL     1      21.193 -12.416  27.304  1.00  0.00    -0.283 OA
ENDBRANCH  33  35
ENDBRANCH  25  28
ENDBRANCH   8  25
TORSDOF 6
ENDMDL
MODEL 4
REMARK VINA RESULT: -7.948876038      6.041      8.069
REMARK  6 active torsions:
REMARK  status: ('A' for Active; 'I' for Inactive)
REMARK       I    between atoms: C1_4  and  N3_6 
REMARK    1  A    between atoms: N4_9  and  S1_10 
REMARK    2  A    between atoms: S1_10  and  N5_13 
REMARK       I    between atoms: N5_13  and  C4_15 
REMARK       I    between atoms: C4_15  and  N6_17 
REMARK    3  A    between atoms: N7_20  and  C7_21 
REMARK    4  A    between atoms: C7_21  and  O4_22 
REMARK    5  A    between atoms: C7_21  and  N8_24 
REMARK    6  A    between atoms: N9_29  and  C12_31 
ROOT
HETATM    1  N5  UNL     1      17.527 -11.148  16.757  1.00  0.00    -0.223 N 
ATOM      2  H5  UNL     1      18.531 -11.313  16.819  1.00  0.00     0.184 HD
HETATM    3  C4  UNL     1      16.718 -11.425  17.880  1.00  0.00     0.332 C 
HETATM    4  O3  UNL     1      15.469 -11.194  17.730  1.00  0.00    -0.246 OA
HETATM    5  N6  UNL     1      17.151 -11.916  19.111  1.00  0.00    -0.330 N 
HETATM    6  C5  UNL     1      16.186 -12.149  20.176  1.00  0.00     0.147 C 
HETATM    7  C6  UNL     1      16.834 -12.388  21.478  1.00  0.00     0.146 C 
HETATM    8  N7  UNL     1      18.026 -13.246  21.448  1.00  0.00    -0.344 N 
HETATM    9  C13 UNL     1      18.654 -13.483  20.201  1.00  0.00     0.146 C 
HETATM   10  C14 UNL     1      18.552 -12.193  19.349  1.00  0.00     0.147 C 
ENDROOT
BRANCH   1  11
HETATM   11  S1  UNL     1      16.871 -10.541  15.280  1.00  0.00     0.306 S 
HETATM   12  O1  UNL     1      17.851  -9.559  14.683  1.00  0.00    -0.188 OA
HETATM   13  O2  UNL     1      15.588  -9.790  15.494  1.00  0.00    -0.188 OA
BRANCH  11  14
HETATM   14  N4  UNL     1      16.589 -11.761  14.114  1.00  0.00    -0.190 NA
HETATM   15  C3  UNL     1      16.605 -11.290  12.774  1.00  0.00     0.129 C 
HETATM   16  C2  UNL     1      17.278 -12.262  11.844  1.00  0.00     0.141 C 
HETATM   17  N3  UNL     1      16.716 -13.575  12.076  1.00  0.00    -0.354 N 
HETATM   18  C1  UNL     1      16.059 -14.307  11.057  1.00  0.00     0.184 C 
HETATM   19  C16 UNL     1      16.874 -14.096  13.438  1.00  0.00     0.141 C 
HETATM   20  N1  UNL     1      14.782 -14.449  11.024  1.00  0.00    -0.374 N 
HETATM   21  N2  UNL     1      16.864 -14.899  10.046  1.00  0.00    -0.064 NA
ATOM     22  H12 UNL     1      14.309 -14.976  10.291  1.00  0.00     0.158 HD
ATOM     23  H11 UNL     1      14.205 -14.024  11.750  1.00  0.00     0.158 HD
HETATM   24  C15 UNL     1      17.326 -12.970  14.366  1.00  0.00     0.129 C 
ENDBRANCH  11  14
ENDBRANCH   1  11
BRANCH   8  25
HETATM   25  C7  UNL     1      18.405 -13.792  22.697  1.00  0.00     0.223 C 
BRANCH  25  26
HETATM   26  O4  UNL     1      17.534 -13.615  23.652  1.00  0.00    -0.332 OA
ATOM     27  H4  UNL     1      17.855 -13.113  24.392  1.00  0.00     0.221 HD
ENDBRANCH  25  26
BRANCH  25  28
HETATM   28  N8  UNL     1      19.583 -14.495  23.045  1.00  0.00    -0.302 N 
HETATM   29  C8  UNL     1      20.097 -15.771  22.618  1.00  0.00     0.134 C 
HETATM   30  C9  UNL     1      21.407 -15.999  23.353  1.00  0.00     0.028 C 
HETATM   31  C10 UNL     1      21.849 -14.598  23.756  1.00  0.00     0.078 C 
HETATM   32  C11 UNL     1      20.521 -13.955  24.028  1.00  0.00     0.088 C 
HETATM   33  N9  UNL     1      20.228 -13.102  24.943  1.00  0.00    -0.324 N 
ATOM     34  H9  UNL     1      19.269 -12.762  25.005  1.00  0.00     0.169 HD
BRANCH  33  35
HETATM   35  C12 UNL     1      21.179 -12.616  25.866  1.00  0.00     0.354 C 
HETATM   36  O5  UNL     1      21.044 -12.749  27.110  1.00  0.00    -0.283 OA
ENDBRANCH  33  35
ENDBRANCH  25  28
ENDBRANCH   8  25
TORSDOF 6
ENDMDL
MODEL 5
REMARK VINA RESULT: -7.930459265      5.983      7.777
REMARK  6 active torsions:
REMARK  status: ('A' for Active; 'I' for Inactive)
REMARK       I    between atoms: C1_4  and  N3_6 
REMARK    1  A    between atoms: N4_9  and  S1_10 
REMARK    2  A    between atoms: S1_10  and  N5_13 
REMARK       I    between atoms: N5_13  and  C4_15 
REMARK       I    between atoms: C4_15  and  N6_17 
REMARK    3  A    between atoms: N7_20  and  C7_21 
REMARK    4  A    between atoms: C7_21  and  O4_22 
REMARK    5  A    between atoms: C7_21  and  N8_24 
REMARK    6  A    between atoms: N9_29  and  C12_31 
ROOT
HETATM    1  N5  UNL     1      17.922 -11.322  17.144  1.00  0.00    -0.223 N 
ATOM      2  H5  UNL     1      18.851 -10.911  17.237  1.00  0.00     0.184 HD
HETATM    3  C4  UNL     1      17.505 -12.287  18.086  1.00  0.00     0.332 C 
HETATM    4  O3  UNL     1      16.330 -12.759  17.907  1.00  0.00    -0.246 OA
HETATM    5  N6  UNL     1      18.244 -12.760  19.170  1.00  0.00    -0.330 N 
HETATM    6  C5  UNL     1      17.668 -13.761  20.055  1.00  0.00     0.147 C 
HETATM    7  C6  UNL     1      18.452 -13.934  21.292  1.00  0.00     0.146 C 
HETATM    8  N7  UNL     1      19.911 -13.941  21.124  1.00  0.00    -0.344 N 
HETATM    9  C13 UNL     1      20.452 -13.449  19.912  1.00  0.00     0.146 C 
HETATM   10  C14 UNL     1      19.579 -12.263  19.432  1.00  0.00     0.147 C 
ENDROOT
BRANCH   1  11
HETATM   11  S1  UNL     1      16.912 -10.817  15.838  1.00  0.00     0.306 S 
HETATM   12  O1  UNL     1      17.123  -9.340  15.607  1.00  0.00    -0.188 OA
HETATM   13  O2  UNL     1      15.454 -10.999  16.145  1.00  0.00    -0.188 OA
BRANCH  11  14
HETATM   14  N4  UNL     1      17.256 -11.623  14.368  1.00  0.00    -0.190 NA
HETATM   15  C3  UNL     1      17.342 -13.035  14.494  1.00  0.00     0.129 C 
HETATM   16  C2  UNL     1      16.721 -13.743  13.322  1.00  0.00     0.141 C 
HETATM   17  N3  UNL     1      17.244 -13.155  12.107  1.00  0.00    -0.354 N 
HETATM   18  C1  UNL     1      17.958 -13.912  11.147  1.00  0.00     0.184 C 
HETATM   19  C16 UNL     1      16.981 -11.722  11.939  1.00  0.00     0.141 C 
HETATM   20  N1  UNL     1      19.232 -13.815  11.004  1.00  0.00    -0.374 N 
HETATM   21  N2  UNL     1      17.218 -14.801  10.323  1.00  0.00    -0.064 NA
ATOM     22  H12 UNL     1      19.747 -14.360  10.313  1.00  0.00     0.158 HD
ATOM     23  H11 UNL     1      19.763 -13.176  11.595  1.00  0.00     0.158 HD
HETATM   24  C15 UNL     1      16.483 -11.136  13.258  1.00  0.00     0.129 C 
ENDBRANCH  11  14
ENDBRANCH   1  11
BRANCH   8  25
HETATM   25  C7  UNL     1      20.637 -14.491  22.207  1.00  0.00     0.223 C 
BRANCH  25  26
HETATM   26  O4  UNL     1      21.291 -15.583  21.922  1.00  0.00    -0.332 OA
ATOM     27  H4  UNL     1      20.755 -16.282  21.566  1.00  0.00     0.221 HD
ENDBRANCH  25  26
BRANCH  25  28
HETATM   28  N8  UNL     1      20.752 -14.021  23.537  1.00  0.00    -0.302 N 
HETATM   29  C8  UNL     1      19.766 -13.539  24.470  1.00  0.00     0.134 C 
HETATM   30  C9  UNL     1      20.497 -13.162  25.747  1.00  0.00     0.028 C 
HETATM   31  C10 UNL     1      21.795 -13.957  25.672  1.00  0.00     0.078 C 
HETATM   32  C11 UNL     1      22.054 -13.928  24.195  1.00  0.00     0.088 C 
HETATM   33  N9  UNL     1      23.185 -13.830  23.592  1.00  0.00    -0.324 N 
ATOM     34  H9  UNL     1      23.195 -13.815  22.572  1.00  0.00     0.169 HD
BRANCH  33  35
HETATM   35  C12 UNL     1      24.413 -13.744  24.282  1.00  0.00     0.354 C 
HETATM   36  O5  UNL     1      24.836 -12.668  24.778  1.00  0.00    -0.283 OA
ENDBRANCH  33  35
ENDBRANCH  25  28
ENDBRANCH   8  25
TORSDOF 6
ENDMDL
