MODEL 1
REMARK VINA RESULT: -7.161188644      0.000      0.000
REMARK  7 active torsions:
REMARK  status: ('A' for Active; 'I' for Inactive)
REMARK    1  A    between atoms: C1_4  and  C2_6 
REMARK    2  A    between atoms: C2_6  and  N3_7 
REMARK    3  A    between atoms: C4_9  and  N4_10 
REMARK    4  A    between atoms: N4_10  and  C5_13 
REMARK    5  A    between atoms: C5_13  and  C6_14 
REMARK    6  A    between atoms: C6_14  and  N5_15 
REMARK    7  A    between atoms: N5_15  and  C7_17 
ROOT
HETATM    1  N4  UNL     1     -25.999  22.266 153.300  1.00  0.00    -0.051 N 
ATOM      2  H41 UNL     1     -26.418  23.104 153.703  1.00  0.00     0.279 HD
ATOM      3  H42 UNL     1     -26.528  22.236 152.429  1.00  0.00     0.279 HD
ENDROOT
BRANCH   1   4
HETATM    4  C4  UNL     1     -26.237  21.112 154.107  1.00  0.00     0.306 C 
HETATM    5  C3  UNL     1     -25.913  21.327 155.562  1.00  0.00     0.182 C 
HETATM    6  N3  UNL     1     -27.240  21.393 156.198  1.00  0.00    -0.324 N 
HETATM    7  C11 UNL     1     -28.119  20.581 155.403  1.00  0.00     0.320 C 
HETATM    8  N9  UNL     1     -27.617  20.668 154.077  1.00  0.00    -0.313 N 
HETATM    9  O1  UNL     1     -29.106  19.944 155.803  1.00  0.00    -0.247 OA
ATOM     10  H9  UNL     1     -28.147  20.451 153.233  1.00  0.00     0.166 HD
BRANCH   6  11
HETATM   11  C2  UNL     1     -27.505  22.148 157.389  1.00  0.00     0.200 C 
BRANCH  11  12
HETATM   12  C1  UNL     1     -27.327  23.587 157.088  1.00  0.00     0.104 C 
HETATM   13  N1  UNL     1     -28.301  24.268 156.623  1.00  0.00    -0.390 N 
ATOM     14  H12 UNL     1     -28.179  25.259 156.416  1.00  0.00     0.157 HD
ATOM     15  H11 UNL     1     -29.204  23.823 156.457  1.00  0.00     0.157 HD
HETATM   16  N2  UNL     1     -26.073  24.203 157.319  1.00  0.00    -0.086 NA
ENDBRANCH  11  12
ENDBRANCH   6  11
ENDBRANCH   1   4
BRANCH   1  17
HETATM   17  C5  UNL     1     -24.593  22.429 153.068  1.00  0.00     0.254 C 
BRANCH  17  18
HETATM   18  C6  UNL     1     -24.154  23.871 153.213  1.00  0.00     0.148 C 
BRANCH  18  19
HETATM   19  N5  UNL     1     -24.173  24.232 154.598  1.00  0.00    -0.378 N 
ATOM     20  H5  UNL     1     -25.067  24.366 155.071  1.00  0.00     0.160 HD
BRANCH  19  21
HETATM   21  C7  UNL     1     -22.965  24.406 155.321  1.00  0.00     0.080 A 
HETATM   22  N6  UNL     1     -22.984  25.067 156.453  1.00  0.00    -0.321 N 
HETATM   23  C8  UNL     1     -21.867  25.301 157.249  1.00  0.00     0.189 A 
ATOM     24  H6  UNL     1     -23.880  25.435 156.774  1.00  0.00     0.169 HD
HETATM   25  N7  UNL     1     -21.891  26.014 158.480  1.00  0.00    -0.064 NA
HETATM   26  N8  UNL     1     -20.727  24.847 156.873  1.00  0.00    -0.364 N 
HETATM   27  C9  UNL     1     -20.504  24.107 155.682  1.00  0.00     0.130 A 
ATOM     28  H8  UNL     1     -19.924  25.031 157.474  1.00  0.00     0.162 HD
HETATM   29  C10 UNL     1     -21.691  23.854 154.820  1.00  0.00     0.096 A 
ENDBRANCH  19  21
ENDBRANCH  18  19
ENDBRANCH  17  18
ENDBRANCH   1  17
TORSDOF 7
ENDMDL
MODEL 2
REMARK VINA RESULT: -7.091508015      2.068      3.374
REMARK  7 active torsions:
REMARK  status: ('A' for Active; 'I' for Inactive)
REMARK    1  A    between atoms: C1_4  and  C2_6 
REMARK    2  A    between atoms: C2_6  and  N3_7 
REMARK    3  A    between atoms: C4_9  and  N4_10 
REMARK    4  A    between atoms: N4_10  and  C5_13 
REMARK    5  A    between atoms: C5_13  and  C6_14 
REMARK    6  A    between atoms: C6_14  and  N5_15 
REMARK    7  A    between atoms: N5_15  and  C7_17 
ROOT
HETATM    1  N4  UNL     1     -27.184  20.845 154.154  1.00  0.00    -0.051 N 
ATOM      2  H41 UNL     1     -27.372  19.955 153.693  1.00  0.00     0.279 HD
ATOM      3  H42 UNL     1     -26.343  21.107 153.641  1.00  0.00     0.279 HD
ENDROOT
BRANCH   1   4
HETATM    4  C4  UNL     1     -26.927  20.678 155.549  1.00  0.00     0.306 C 
HETATM    5  C3  UNL     1     -25.796  21.536 156.051  1.00  0.00     0.182 C 
HETATM    6  N3  UNL     1     -26.483  22.572 156.842  1.00  0.00    -0.324 N 
HETATM    7  C11 UNL     1     -27.683  21.971 157.354  1.00  0.00     0.320 C 
HETATM    8  N9  UNL     1     -28.066  21.006 156.384  1.00  0.00    -0.313 N 
HETATM    9  O1  UNL     1     -28.256  22.247 158.420  1.00  0.00    -0.247 OA
ATOM     10  H9  UNL     1     -28.999  20.605 156.290  1.00  0.00     0.166 HD
BRANCH   6  11
HETATM   11  C2  UNL     1     -25.967  23.900 157.015  1.00  0.00     0.200 C 
BRANCH  11  12
HETATM   12  C1  UNL     1     -24.900  23.863 158.040  1.00  0.00     0.104 C 
HETATM   13  N1  UNL     1     -23.674  23.829 157.685  1.00  0.00    -0.390 N 
ATOM     14  H12 UNL     1     -22.938  23.804 158.391  1.00  0.00     0.157 HD
ATOM     15  H11 UNL     1     -23.427  23.826 156.695  1.00  0.00     0.157 HD
HETATM   16  N2  UNL     1     -25.244  23.867 159.414  1.00  0.00    -0.086 NA
ENDBRANCH  11  12
ENDBRANCH   6  11
ENDBRANCH   1   4
BRANCH   1  17
HETATM   17  C5  UNL     1     -28.249  21.786 153.953  1.00  0.00     0.254 C 
BRANCH  17  18
HETATM   18  C6  UNL     1     -27.739  23.132 153.485  1.00  0.00     0.148 C 
BRANCH  18  19
HETATM   19  N5  UNL     1     -26.833  22.940 152.395  1.00  0.00    -0.378 N 
ATOM     20  H5  UNL     1     -27.194  22.655 151.484  1.00  0.00     0.160 HD
BRANCH  19  21
HETATM   21  C7  UNL     1     -25.439  23.140 152.563  1.00  0.00     0.080 A 
HETATM   22  N6  UNL     1     -25.012  23.885 153.554  1.00  0.00    -0.321 N 
HETATM   23  C8  UNL     1     -23.673  24.153 153.820  1.00  0.00     0.189 A 
ATOM     24  H6  UNL     1     -25.710  24.298 154.173  1.00  0.00     0.169 HD
HETATM   25  N7  UNL     1     -23.212  24.958 154.900  1.00  0.00    -0.064 NA
HETATM   26  N8  UNL     1     -22.772  23.645 153.061  1.00  0.00    -0.364 N 
HETATM   27  C9  UNL     1     -23.034  22.811 151.941  1.00  0.00     0.130 A 
ATOM     28  H8  UNL     1     -21.798  23.856 153.276  1.00  0.00     0.162 HD
HETATM   29  C10 UNL     1     -24.464  22.521 151.644  1.00  0.00     0.096 A 
ENDBRANCH  19  21
ENDBRANCH  18  19
ENDBRANCH  17  18
ENDBRANCH   1  17
TORSDOF 7
ENDMDL
MODEL 3
REMARK VINA RESULT: -6.880713680      2.523      3.710
REMARK  7 active torsions:
REMARK  status: ('A' for Active; 'I' for Inactive)
REMARK    1  A    between atoms: C1_4  and  C2_6 
REMARK    2  A    between atoms: C2_6  and  N3_7 
REMARK    3  A    between atoms: C4_9  and  N4_10 
REMARK    4  A    between atoms: N4_10  and  C5_13 
REMARK    5  A    between atoms: C5_13  and  C6_14 
REMARK    6  A    between atoms: C6_14  and  N5_15 
REMARK    7  A    between atoms: N5_15  and  C7_17 
ROOT
HETATM    1  N4  UNL     1     -27.456  23.153 152.970  1.00  0.00    -0.051 N 
ATOM      2  H41 UNL     1     -27.576  24.166 152.981  1.00  0.00     0.279 HD
ATOM      3  H42 UNL     1     -28.096  22.934 152.207  1.00  0.00     0.279 HD
ENDROOT
BRANCH   1   4
HETATM    4  C4  UNL     1     -27.868  22.556 154.199  1.00  0.00     0.306 C 
HETATM    5  C3  UNL     1     -26.744  21.881 154.939  1.00  0.00     0.182 C 
HETATM    6  N3  UNL     1     -26.494  22.786 156.074  1.00  0.00    -0.324 N 
HETATM    7  C11 UNL     1     -27.745  23.423 156.376  1.00  0.00     0.320 C 
HETATM    8  N9  UNL     1     -28.434  23.507 155.136  1.00  0.00    -0.313 N 
HETATM    9  O1  UNL     1     -28.130  23.815 157.489  1.00  0.00    -0.247 OA
ATOM     10  H9  UNL     1     -29.209  24.140 154.936  1.00  0.00     0.166 HD
BRANCH   6  11
HETATM   11  C2  UNL     1     -25.210  22.928 156.698  1.00  0.00     0.200 C 
BRANCH  11  12
HETATM   12  C1  UNL     1     -24.183  23.077 155.642  1.00  0.00     0.104 C 
HETATM   13  N1  UNL     1     -23.477  22.073 155.292  1.00  0.00    -0.390 N 
ATOM     14  H12 UNL     1     -22.769  22.175 154.564  1.00  0.00     0.157 HD
ATOM     15  H11 UNL     1     -23.618  21.166 155.738  1.00  0.00     0.157 HD
HETATM   16  N2  UNL     1     -23.988  24.336 155.023  1.00  0.00    -0.086 NA
ENDBRANCH  11  12
ENDBRANCH   6  11
ENDBRANCH   1   4
BRANCH   1  17
HETATM   17  C5  UNL     1     -26.106  22.777 152.661  1.00  0.00     0.254 C 
BRANCH  17  18
HETATM   18  C6  UNL     1     -25.449  23.748 151.703  1.00  0.00     0.148 C 
BRANCH  18  19
HETATM   19  N5  UNL     1     -24.470  23.052 150.925  1.00  0.00    -0.378 N 
ATOM     20  H5  UNL     1     -24.680  22.805 149.957  1.00  0.00     0.160 HD
BRANCH  19  21
HETATM   21  C7  UNL     1     -23.213  22.701 151.480  1.00  0.00     0.080 A 
HETATM   22  N6  UNL     1     -22.544  23.593 152.170  1.00  0.00    -0.321 N 
HETATM   23  C8  UNL     1     -21.305  23.367 152.761  1.00  0.00     0.189 A 
ATOM     24  H6  UNL     1     -22.960  24.518 152.281  1.00  0.00     0.169 HD
HETATM   25  N7  UNL     1     -20.584  24.336 153.514  1.00  0.00    -0.064 NA
HETATM   26  N8  UNL     1     -20.759  22.213 152.641  1.00  0.00    -0.364 N 
HETATM   27  C9  UNL     1     -21.326  21.117 151.937  1.00  0.00     0.130 A 
ATOM     28  H8  UNL     1     -19.851  22.071 153.084  1.00  0.00     0.162 HD
HETATM   29  C10 UNL     1     -22.650  21.350 151.296  1.00  0.00     0.096 A 
ENDBRANCH  19  21
ENDBRANCH  18  19
ENDBRANCH  17  18
ENDBRANCH   1  17
TORSDOF 7
ENDMDL
MODEL 4
REMARK VINA RESULT: -6.869490557      1.606      1.768
REMARK  7 active torsions:
REMARK  status: ('A' for Active; 'I' for Inactive)
REMARK    1  A    between atoms: C1_4  and  C2_6 
REMARK    2  A    between atoms: C2_6  and  N3_7 
REMARK    3  A    between atoms: C4_9  and  N4_10 
REMARK    4  A    between atoms: N4_10  and  C5_13 
REMARK    5  A    between atoms: C5_13  and  C6_14 
REMARK    6  A    between atoms: C6_14  and  N5_15 
REMARK    7  A    between atoms: N5_15  and  C7_17 
ROOT
HETATM    1  N4  UNL     1     -24.210  21.702 155.188  1.00  0.00    -0.051 N 
ATOM      2  H41 UNL     1     -23.426  21.059 155.291  1.00  0.00     0.279 HD
ATOM      3  H42 UNL     1     -24.181  22.126 156.115  1.00  0.00     0.279 HD
ENDROOT
BRANCH   1   4
HETATM    4  C4  UNL     1     -25.438  21.012 154.955  1.00  0.00     0.306 C 
HETATM    5  C3  UNL     1     -26.282  20.866 156.194  1.00  0.00     0.182 C 
HETATM    6  N3  UNL     1     -27.385  21.815 155.965  1.00  0.00    -0.324 N 
HETATM    7  C11 UNL     1     -27.572  21.895 154.543  1.00  0.00     0.320 C 
HETATM    8  N9  UNL     1     -26.287  21.668 153.980  1.00  0.00    -0.313 N 
HETATM    9  O1  UNL     1     -28.636  22.117 153.945  1.00  0.00    -0.247 OA
ATOM     10  H9  UNL     1     -26.006  21.927 153.035  1.00  0.00     0.166 HD
BRANCH   6  11
HETATM   11  C2  UNL     1     -28.084  22.479 157.028  1.00  0.00     0.200 C 
BRANCH  11  12
HETATM   12  C1  UNL     1     -27.735  23.918 156.998  1.00  0.00     0.104 C 
HETATM   13  N1  UNL     1     -28.607  24.780 156.642  1.00  0.00    -0.390 N 
ATOM     14  H12 UNL     1     -28.367  25.771 156.622  1.00  0.00     0.157 HD
ATOM     15  H11 UNL     1     -29.545  24.480 156.376  1.00  0.00     0.157 HD
HETATM   16  N2  UNL     1     -26.433  24.333 157.368  1.00  0.00    -0.086 NA
ENDBRANCH  11  12
ENDBRANCH   6  11
ENDBRANCH   1   4
BRANCH   1  17
HETATM   17  C5  UNL     1     -23.976  22.667 154.151  1.00  0.00     0.254 C 
BRANCH  17  18
HETATM   18  C6  UNL     1     -23.782  24.063 154.704  1.00  0.00     0.148 C 
BRANCH  18  19
HETATM   19  N5  UNL     1     -23.766  24.006 156.133  1.00  0.00    -0.378 N 
ATOM     20  H5  UNL     1     -24.617  23.756 156.637  1.00  0.00     0.160 HD
BRANCH  19  21
HETATM   21  C7  UNL     1     -22.582  24.293 156.859  1.00  0.00     0.080 A 
HETATM   22  N6  UNL     1     -22.358  23.676 157.994  1.00  0.00    -0.321 N 
HETATM   23  C8  UNL     1     -21.236  23.874 158.792  1.00  0.00     0.189 A 
ATOM     24  H6  UNL     1     -23.055  23.004 158.315  1.00  0.00     0.169 HD
HETATM   25  N7  UNL     1     -20.993  23.198 160.022  1.00  0.00    -0.064 NA
HETATM   26  N8  UNL     1     -20.341  24.711 158.414  1.00  0.00    -0.364 N 
HETATM   27  C9  UNL     1     -20.400  25.473 157.217  1.00  0.00     0.130 A 
ATOM     28  H8  UNL     1     -19.528  24.838 159.016  1.00  0.00     0.162 HD
HETATM   29  C10 UNL     1     -21.598  25.273 156.356  1.00  0.00     0.096 A 
ENDBRANCH  19  21
ENDBRANCH  18  19
ENDBRANCH  17  18
ENDBRANCH   1  17
TORSDOF 7
ENDMDL
MODEL 5
REMARK VINA RESULT: -6.853492036      2.801      4.606
REMARK  7 active torsions:
REMARK  status: ('A' for Active; 'I' for Inactive)
REMARK    1  A    between atoms: C1_4  and  C2_6 
REMARK    2  A    between atoms: C2_6  and  N3_7 
REMARK    3  A    between atoms: C4_9  and  N4_10 
REMARK    4  A    between atoms: N4_10  and  C5_13 
REMARK    5  A    between atoms: C5_13  and  C6_14 
REMARK    6  A    between atoms: C6_14  and  N5_15 
REMARK    7  A    between atoms: N5_15  and  C7_17 
ROOT
HETATM    1  N4  UNL     1     -27.046  21.976 153.627  1.00  0.00    -0.051 N 
ATOM      2  H41 UNL     1     -27.210  21.133 153.076  1.00  0.00     0.279 HD
ATOM      3  H42 UNL     1     -26.096  21.771 153.937  1.00  0.00     0.279 HD
ENDROOT
BRANCH   1   4
HETATM    4  C4  UNL     1     -27.954  22.080 154.724  1.00  0.00     0.306 C 
HETATM    5  C3  UNL     1     -27.388  21.556 156.016  1.00  0.00     0.182 C 
HETATM    6  N3  UNL     1     -27.135  22.780 156.796  1.00  0.00    -0.324 N 
HETATM    7  C11 UNL     1     -28.102  23.751 156.363  1.00  0.00     0.320 C 
HETATM    8  N9  UNL     1     -28.362  23.444 155.001  1.00  0.00    -0.313 N 
HETATM    9  O1  UNL     1     -28.597  24.662 157.046  1.00  0.00    -0.247 OA
ATOM     10  H9  UNL     1     -28.773  24.085 154.322  1.00  0.00     0.166 HD
BRANCH   6  11
HETATM   11  C2  UNL     1     -26.099  22.885 157.783  1.00  0.00     0.200 C 
BRANCH  11  12
HETATM   12  C1  UNL     1     -25.129  23.913 157.346  1.00  0.00     0.104 C 
HETATM   13  N1  UNL     1     -24.854  24.047 156.107  1.00  0.00    -0.390 N 
ATOM     14  H12 UNL     1     -24.185  24.756 155.806  1.00  0.00     0.157 HD
ATOM     15  H11 UNL     1     -25.301  23.445 155.415  1.00  0.00     0.157 HD
HETATM   16  N2  UNL     1     -24.508  24.748 158.307  1.00  0.00    -0.086 NA
ENDBRANCH  11  12
ENDBRANCH   6  11
ENDBRANCH   1   4
BRANCH   1  17
HETATM   17  C5  UNL     1     -27.102  23.161 152.820  1.00  0.00     0.254 C 
BRANCH  17  18
HETATM   18  C6  UNL     1     -25.731  23.589 152.339  1.00  0.00     0.148 C 
BRANCH  18  19
HETATM   19  N5  UNL     1     -25.296  22.702 151.305  1.00  0.00    -0.378 N 
ATOM     20  H5  UNL     1     -25.870  22.582 150.470  1.00  0.00     0.160 HD
BRANCH  19  21
HETATM   21  C7  UNL     1     -24.078  21.985 151.425  1.00  0.00     0.080 A 
HETATM   22  N6  UNL     1     -23.934  20.849 150.786  1.00  0.00    -0.321 N 
HETATM   23  C8  UNL     1     -22.790  20.060 150.827  1.00  0.00     0.189 A 
ATOM     24  H6  UNL     1     -24.717  20.520 150.220  1.00  0.00     0.169 HD
HETATM   25  N7  UNL     1     -22.635  18.830 150.129  1.00  0.00    -0.064 NA
HETATM   26  N8  UNL     1     -21.788  20.449 151.528  1.00  0.00    -0.364 N 
HETATM   27  C9  UNL     1     -21.749  21.650 152.286  1.00  0.00     0.130 A 
ATOM     28  H8  UNL     1     -20.961  19.854 151.541  1.00  0.00     0.162 HD
HETATM   29  C10 UNL     1     -22.970  22.500 152.254  1.00  0.00     0.096 A 
ENDBRANCH  19  21
ENDBRANCH  18  19
ENDBRANCH  17  18
ENDBRANCH   1  17
TORSDOF 7
ENDMDL
