MODEL 1
REMARK VINA RESULT: -7.056346433      0.000      0.000
REMARK  12 active torsions:
REMARK  status: ('A' for Active; 'I' for Inactive)
REMARK    1  A    between atoms: C3_3  and  C4_4 
REMARK    2  A    between atoms: C4_4  and  C5_5 
REMARK    3  A    between atoms: C5_5  and  C6_6 
REMARK    4  A    between atoms: C11_19  and  C12_20 
REMARK    5  A    between atoms: C12_20  and  C13_21 
REMARK    6  A    between atoms: C13_21  and  C14_22 
REMARK    7  A    between atoms: C14_22  and  N4_23 
REMARK    8  A    between atoms: C16_28  and  O3_29 
REMARK    9  A    between atoms: N7_31  and  C17_32 
REMARK   10  A    between atoms: C17_32  and  C18_33 
REMARK   11  A    between atoms: C17_32  and  C21_36 
REMARK   12  A    between atoms: C18_33  and  C19_34 
ROOT
HETATM    1  C1  UNL     1      32.647  10.837  24.242  1.00  0.00     0.012 C 
HETATM    2  C2  UNL     1      32.031  11.782  24.661  1.00  0.00    -0.117 C 
HETATM    3  C3  UNL     1      31.274  12.967  25.208  1.00  0.00     0.093 C 
ENDROOT
BRANCH   3   4
HETATM    4  C4  UNL     1      30.627  12.585  26.492  1.00  0.00     0.016 C 
BRANCH   4   5
HETATM    5  C5  UNL     1      30.882  13.359  27.719  1.00  0.00     0.048 C 
BRANCH   5   6
HETATM    6  C6  UNL     1      30.474  12.685  28.978  1.00  0.00     0.191 C 
HETATM    7  N1  UNL     1      30.152  13.648  29.995  1.00  0.00    -0.322 N 
HETATM    8  C7  UNL     1      29.330  13.500  31.131  1.00  0.00     0.317 C 
ATOM      9  H1  UNL     1      30.578  14.568  29.878  1.00  0.00     0.166 HD
HETATM   10  O1  UNL     1      29.799  14.143  32.155  1.00  0.00    -0.247 OA
HETATM   11  N2  UNL     1      28.147  12.822  31.365  1.00  0.00    -0.343 N 
HETATM   12  C8  UNL     1      27.629  11.631  30.748  1.00  0.00     0.133 C 
ATOM     13  H2  UNL     1      27.551  13.230  32.085  1.00  0.00     0.164 HD
HETATM   14  C9  UNL     1      28.439  10.373  31.066  1.00  0.00     0.122 C 
HETATM   15  C10 UNL     1      28.338   9.539  29.842  1.00  0.00     0.219 C 
HETATM   16  O2  UNL     1      27.378   8.722  29.789  1.00  0.00    -0.274 OA
HETATM   17  N3  UNL     1      29.220   9.595  28.740  1.00  0.00    -0.349 N 
HETATM   18  C11 UNL     1      30.640   9.441  28.716  1.00  0.00     0.159 C 
ATOM     19  H3  UNL     1      28.782   9.769  27.836  1.00  0.00     0.163 HD
HETATM   20  C16 UNL     1      31.414  10.396  29.543  1.00  0.00     0.139 C 
HETATM   21  N7  UNL     1      31.556  11.777  29.468  1.00  0.00    -0.329 N 
BRANCH  18  22
HETATM   22  C12 UNL     1      31.153   9.356  27.297  1.00  0.00     0.035 C 
BRANCH  22  23
HETATM   23  C13 UNL     1      30.907   8.104  26.570  1.00  0.00     0.022 C 
BRANCH  23  24
HETATM   24  C14 UNL     1      30.997   6.809  27.257  1.00  0.00     0.122 C 
BRANCH  24  25
HETATM   25  N4  UNL     1      32.252   6.152  27.283  1.00  0.00    -0.367 N 
HETATM   26  C15 UNL     1      32.383   4.965  27.693  1.00  0.00     0.196 C 
HETATM   27  N5  UNL     1      31.253   4.245  28.147  1.00  0.00    -0.067 NA
HETATM   28  N6  UNL     1      33.644   4.329  27.712  1.00  0.00    -0.067 NA
ATOM     29  H4  UNL     1      33.078   6.655  26.959  1.00  0.00     0.161 HD
ENDBRANCH  24  25
ENDBRANCH  23  24
ENDBRANCH  22  23
ENDBRANCH  18  22
BRANCH  20  30
HETATM   30  O3  UNL     1      32.075   9.820  30.512  1.00  0.00    -0.348 OA
ATOM     31  H3  UNL     1      31.948  10.241  31.355  1.00  0.00     0.219 HD
ENDBRANCH  20  30
BRANCH  21  32
HETATM   32  C17 UNL     1      32.752  12.545  29.862  1.00  0.00     0.180 C 
BRANCH  32  33
HETATM   33  C18 UNL     1      33.065  12.409  31.324  1.00  0.00     0.061 C 
BRANCH  33  34
HETATM   34  C19 UNL     1      33.122  13.751  31.970  1.00  0.00    -0.034 C 
HETATM   35  C20 UNL     1      33.194  14.875  31.246  1.00  0.00     0.007 C 
ENDBRANCH  33  34
ENDBRANCH  32  33
BRANCH  32  36
HETATM   36  C21 UNL     1      33.962  12.129  29.125  1.00  0.00     0.254 C 
HETATM   37  N8  UNL     1      34.050  11.997  27.707  1.00  0.00    -0.060 NA
HETATM   38  O4  UNL     1      35.005  11.860  29.754  1.00  0.00    -0.275 OA
ENDBRANCH  32  36
ENDBRANCH  21  32
ENDBRANCH   5   6
ENDBRANCH   4   5
ENDBRANCH   3   4
TORSDOF 12
ENDMDL
MODEL 2
REMARK VINA RESULT: -6.601441056      1.451      1.599
REMARK  12 active torsions:
REMARK  status: ('A' for Active; 'I' for Inactive)
REMARK    1  A    between atoms: C3_3  and  C4_4 
REMARK    2  A    between atoms: C4_4  and  C5_5 
REMARK    3  A    between atoms: C5_5  and  C6_6 
REMARK    4  A    between atoms: C11_19  and  C12_20 
REMARK    5  A    between atoms: C12_20  and  C13_21 
REMARK    6  A    between atoms: C13_21  and  C14_22 
REMARK    7  A    between atoms: C14_22  and  N4_23 
REMARK    8  A    between atoms: C16_28  and  O3_29 
REMARK    9  A    between atoms: N7_31  and  C17_32 
REMARK   10  A    between atoms: C17_32  and  C18_33 
REMARK   11  A    between atoms: C17_32  and  C21_36 
REMARK   12  A    between atoms: C18_33  and  C19_34 
ROOT
HETATM    1  C1  UNL     1      32.440  10.579  23.191  1.00  0.00     0.012 C 
HETATM    2  C2  UNL     1      32.423  10.548  24.393  1.00  0.00    -0.117 C 
HETATM    3  C3  UNL     1      32.377  10.500  25.902  1.00  0.00     0.093 C 
ENDROOT
BRANCH   3   4
HETATM    4  C4  UNL     1      31.286  11.388  26.387  1.00  0.00     0.016 C 
BRANCH   4   5
HETATM    5  C5  UNL     1      31.543  12.380  27.445  1.00  0.00     0.048 C 
BRANCH   5   6
HETATM    6  C6  UNL     1      30.515  12.429  28.517  1.00  0.00     0.191 C 
HETATM    7  N1  UNL     1      30.098  13.781  28.766  1.00  0.00    -0.322 N 
HETATM    8  C7  UNL     1      28.894  14.249  29.332  1.00  0.00     0.317 C 
ATOM      9  H1  UNL     1      30.767  14.503  28.497  1.00  0.00     0.166 HD
HETATM   10  O1  UNL     1      29.086  15.285  30.089  1.00  0.00    -0.247 OA
HETATM   11  N2  UNL     1      27.578  13.835  29.240  1.00  0.00    -0.343 N 
HETATM   12  C8  UNL     1      27.038  12.523  29.005  1.00  0.00     0.133 C 
ATOM     13  H2  UNL     1      26.884  14.574  29.358  1.00  0.00     0.164 HD
HETATM   14  C9  UNL     1      27.292  11.541  30.149  1.00  0.00     0.122 C 
HETATM   15  C10 UNL     1      27.450  10.222  29.486  1.00  0.00     0.219 C 
HETATM   16  O2  UNL     1      26.404   9.534  29.332  1.00  0.00    -0.274 OA
HETATM   17  N3  UNL     1      28.668   9.686  29.013  1.00  0.00    -0.349 N 
HETATM   18  C11 UNL     1      29.890   9.466  29.721  1.00  0.00     0.159 C 
ATOM     19  H3  UNL     1      28.678   9.419  28.029  1.00  0.00     0.163 HD
HETATM   20  C16 UNL     1      30.510  10.662  30.338  1.00  0.00     0.139 C 
HETATM   21  N7  UNL     1      31.037  11.821  29.779  1.00  0.00    -0.329 N 
BRANCH  18  22
HETATM   22  C12 UNL     1      30.867   8.673  28.885  1.00  0.00     0.035 C 
BRANCH  22  23
HETATM   23  C13 UNL     1      30.305   7.785  27.860  1.00  0.00     0.022 C 
BRANCH  23  24
HETATM   24  C14 UNL     1      31.184   7.067  26.927  1.00  0.00     0.122 C 
BRANCH  24  25
HETATM   25  N4  UNL     1      32.057   6.083  27.454  1.00  0.00    -0.367 N 
HETATM   26  C15 UNL     1      31.658   4.928  27.772  1.00  0.00     0.196 C 
HETATM   27  N5  UNL     1      30.297   4.581  27.605  1.00  0.00    -0.067 NA
HETATM   28  N6  UNL     1      32.545   3.962  28.297  1.00  0.00    -0.067 NA
ATOM     29  H4  UNL     1      33.042   6.316  27.581  1.00  0.00     0.161 HD
ENDBRANCH  24  25
ENDBRANCH  23  24
ENDBRANCH  22  23
ENDBRANCH  18  22
BRANCH  20  30
HETATM   30  O3  UNL     1      30.564  10.599  31.643  1.00  0.00    -0.348 OA
ATOM     31  H3  UNL     1      30.904  11.391  32.043  1.00  0.00     0.219 HD
ENDBRANCH  20  30
BRANCH  21  32
HETATM   32  C17 UNL     1      32.146  12.620  30.332  1.00  0.00     0.180 C 
BRANCH  32  33
HETATM   33  C18 UNL     1      31.815  13.215  31.669  1.00  0.00     0.061 C 
BRANCH  33  34
HETATM   34  C19 UNL     1      32.310  14.619  31.749  1.00  0.00    -0.034 C 
HETATM   35  C20 UNL     1      32.650  15.306  30.651  1.00  0.00     0.007 C 
ENDBRANCH  33  34
ENDBRANCH  32  33
BRANCH  32  36
HETATM   36  C21 UNL     1      33.381  11.829  30.510  1.00  0.00     0.254 C 
HETATM   37  N8  UNL     1      33.646  10.965  31.614  1.00  0.00    -0.060 NA
HETATM   38  O4  UNL     1      34.286  11.898  29.654  1.00  0.00    -0.275 OA
ENDBRANCH  32  36
ENDBRANCH  21  32
ENDBRANCH   5   6
ENDBRANCH   4   5
ENDBRANCH   3   4
TORSDOF 12
ENDMDL
MODEL 3
REMARK VINA RESULT: -6.598434024      1.942      2.375
REMARK  12 active torsions:
REMARK  status: ('A' for Active; 'I' for Inactive)
REMARK    1  A    between atoms: C3_3  and  C4_4 
REMARK    2  A    between atoms: C4_4  and  C5_5 
REMARK    3  A    between atoms: C5_5  and  C6_6 
REMARK    4  A    between atoms: C11_19  and  C12_20 
REMARK    5  A    between atoms: C12_20  and  C13_21 
REMARK    6  A    between atoms: C13_21  and  C14_22 
REMARK    7  A    between atoms: C14_22  and  N4_23 
REMARK    8  A    between atoms: C16_28  and  O3_29 
REMARK    9  A    between atoms: N7_31  and  C17_32 
REMARK   10  A    between atoms: C17_32  and  C18_33 
REMARK   11  A    between atoms: C17_32  and  C21_36 
REMARK   12  A    between atoms: C18_33  and  C19_34 
ROOT
HETATM    1  C1  UNL     1      32.594  10.587  22.866  1.00  0.00     0.012 C 
HETATM    2  C2  UNL     1      32.545  10.574  24.067  1.00  0.00    -0.117 C 
HETATM    3  C3  UNL     1      32.458  10.547  25.574  1.00  0.00     0.093 C 
ENDROOT
BRANCH   3   4
HETATM    4  C4  UNL     1      31.349  11.434  26.017  1.00  0.00     0.016 C 
BRANCH   4   5
HETATM    5  C5  UNL     1      31.317  11.966  27.390  1.00  0.00     0.048 C 
BRANCH   5   6
HETATM    6  C6  UNL     1      29.982  11.940  28.039  1.00  0.00     0.191 C 
HETATM    7  N1  UNL     1      29.372  13.241  28.012  1.00  0.00    -0.322 N 
HETATM    8  C7  UNL     1      28.007  13.584  28.091  1.00  0.00     0.317 C 
ATOM      9  H1  UNL     1      30.018  14.026  27.924  1.00  0.00     0.166 HD
HETATM   10  O1  UNL     1      27.820  14.671  28.775  1.00  0.00    -0.247 OA
HETATM   11  N2  UNL     1      26.853  13.007  27.593  1.00  0.00    -0.343 N 
HETATM   12  C8  UNL     1      26.561  11.629  27.303  1.00  0.00     0.133 C 
ATOM     13  H2  UNL     1      26.092  13.660  27.402  1.00  0.00     0.164 HD
HETATM   14  C9  UNL     1      26.496  10.742  28.547  1.00  0.00     0.122 C 
HETATM   15  C10 UNL     1      27.005   9.422  28.096  1.00  0.00     0.219 C 
HETATM   16  O2  UNL     1      26.151   8.604  27.656  1.00  0.00    -0.274 OA
HETATM   17  N3  UNL     1      28.358   9.018  28.115  1.00  0.00    -0.349 N 
HETATM   18  C11 UNL     1      29.272   8.984  29.213  1.00  0.00     0.159 C 
ATOM     19  H3  UNL     1      28.736   8.707  27.220  1.00  0.00     0.163 HD
HETATM   20  C16 UNL     1      29.517  10.275  29.897  1.00  0.00     0.139 C 
HETATM   21  N7  UNL     1      30.088  11.462  29.451  1.00  0.00    -0.329 N 
BRANCH  18  22
HETATM   22  C12 UNL     1      30.552   8.277  28.833  1.00  0.00     0.035 C 
BRANCH  22  23
HETATM   23  C13 UNL     1      30.621   7.693  27.487  1.00  0.00     0.022 C 
BRANCH  23  24
HETATM   24  C14 UNL     1      30.981   6.281  27.302  1.00  0.00     0.122 C 
BRANCH  24  25
HETATM   25  N4  UNL     1      32.356   5.942  27.253  1.00  0.00    -0.367 N 
HETATM   26  C15 UNL     1      32.799   4.854  27.714  1.00  0.00     0.196 C 
HETATM   27  N5  UNL     1      31.912   3.924  28.306  1.00  0.00    -0.067 NA
HETATM   28  N6  UNL     1      34.174   4.536  27.656  1.00  0.00    -0.067 NA
ATOM     29  H4  UNL     1      33.010   6.601  26.829  1.00  0.00     0.161 HD
ENDBRANCH  24  25
ENDBRANCH  23  24
ENDBRANCH  22  23
ENDBRANCH  18  22
BRANCH  20  30
HETATM   30  O3  UNL     1      29.120  10.282  31.142  1.00  0.00    -0.348 OA
ATOM     31  H3  UNL     1      29.342   9.487  31.612  1.00  0.00     0.219 HD
ENDBRANCH  20  30
BRANCH  21  32
HETATM   32  C17 UNL     1      30.851  12.417  30.276  1.00  0.00     0.180 C 
BRANCH  32  33
HETATM   33  C18 UNL     1      30.000  13.085  31.316  1.00  0.00     0.061 C 
BRANCH  33  34
HETATM   34  C19 UNL     1      30.478  14.475  31.563  1.00  0.00    -0.034 C 
HETATM   35  C20 UNL     1      30.835  14.887  32.787  1.00  0.00     0.007 C 
ENDBRANCH  33  34
ENDBRANCH  32  33
BRANCH  32  36
HETATM   36  C21 UNL     1      31.975  11.778  30.990  1.00  0.00     0.254 C 
HETATM   37  N8  UNL     1      33.325  11.749  30.531  1.00  0.00    -0.060 NA
HETATM   38  O4  UNL     1      31.768  11.206  32.080  1.00  0.00    -0.275 OA
ENDBRANCH  32  36
ENDBRANCH  21  32
ENDBRANCH   5   6
ENDBRANCH   4   5
ENDBRANCH   3   4
TORSDOF 12
ENDMDL
MODEL 4
REMARK VINA RESULT: -6.586658386      2.131      4.672
REMARK  12 active torsions:
REMARK  status: ('A' for Active; 'I' for Inactive)
REMARK    1  A    between atoms: C3_3  and  C4_4 
REMARK    2  A    between atoms: C4_4  and  C5_5 
REMARK    3  A    between atoms: C5_5  and  C6_6 
REMARK    4  A    between atoms: C11_19  and  C12_20 
REMARK    5  A    between atoms: C12_20  and  C13_21 
REMARK    6  A    between atoms: C13_21  and  C14_22 
REMARK    7  A    between atoms: C14_22  and  N4_23 
REMARK    8  A    between atoms: C16_28  and  O3_29 
REMARK    9  A    between atoms: N7_31  and  C17_32 
REMARK   10  A    between atoms: C17_32  and  C18_33 
REMARK   11  A    between atoms: C17_32  and  C21_36 
REMARK   12  A    between atoms: C18_33  and  C19_34 
ROOT
HETATM    1  C1  UNL     1      35.049  12.174  29.502  1.00  0.00     0.012 C 
HETATM    2  C2  UNL     1      34.543  11.676  30.473  1.00  0.00    -0.117 C 
HETATM    3  C3  UNL     1      33.904  11.029  31.678  1.00  0.00     0.093 C 
ENDROOT
BRANCH   3   4
HETATM    4  C4  UNL     1      32.516  10.618  31.336  1.00  0.00     0.016 C 
BRANCH   4   5
HETATM    5  C5  UNL     1      31.448  11.624  31.204  1.00  0.00     0.048 C 
BRANCH   5   6
HETATM    6  C6  UNL     1      31.164  12.053  29.810  1.00  0.00     0.191 C 
HETATM    7  N1  UNL     1      31.152  13.487  29.707  1.00  0.00    -0.322 N 
HETATM    8  C7  UNL     1      31.367  14.298  28.574  1.00  0.00     0.317 C 
ATOM      9  H1  UNL     1      30.960  13.987  30.576  1.00  0.00     0.166 HD
HETATM   10  O1  UNL     1      30.600  15.345  28.575  1.00  0.00    -0.247 OA
HETATM   11  N2  UNL     1      32.215  14.203  27.486  1.00  0.00    -0.343 N 
HETATM   12  C8  UNL     1      32.767  13.040  26.845  1.00  0.00     0.133 C 
ATOM     13  H2  UNL     1      32.492  15.095  27.076  1.00  0.00     0.164 HD
HETATM   14  C9  UNL     1      31.722  12.179  26.134  1.00  0.00     0.122 C 
HETATM   15  C10 UNL     1      32.220  10.787  26.277  1.00  0.00     0.219 C 
HETATM   16  O2  UNL     1      32.974  10.356  25.362  1.00  0.00    -0.274 OA
HETATM   17  N3  UNL     1      31.923   9.919  27.351  1.00  0.00    -0.349 N 
HETATM   18  C11 UNL     1      30.649   9.504  27.847  1.00  0.00     0.159 C 
ATOM     19  H3  UNL     1      32.731   9.536  27.841  1.00  0.00     0.163 HD
HETATM   20  C16 UNL     1      29.744  10.584  28.305  1.00  0.00     0.139 C 
HETATM   21  N7  UNL     1      29.856  11.503  29.343  1.00  0.00    -0.329 N 
BRANCH  18  22
HETATM   22  C12 UNL     1      30.797   8.400  28.868  1.00  0.00     0.035 C 
BRANCH  22  23
HETATM   23  C13 UNL     1      29.770   7.351  28.874  1.00  0.00     0.022 C 
BRANCH  23  24
HETATM   24  C14 UNL     1      29.980   6.093  28.145  1.00  0.00     0.122 C 
BRANCH  24  25
HETATM   25  N4  UNL     1      31.299   5.769  27.738  1.00  0.00    -0.367 N 
HETATM   26  C15 UNL     1      31.857   4.685  28.063  1.00  0.00     0.196 C 
HETATM   27  N5  UNL     1      31.163   3.744  28.861  1.00  0.00    -0.067 NA
HETATM   28  N6  UNL     1      33.172   4.381  27.648  1.00  0.00    -0.067 NA
ATOM     29  H4  UNL     1      31.814   6.435  27.162  1.00  0.00     0.161 HD
ENDBRANCH  24  25
ENDBRANCH  23  24
ENDBRANCH  22  23
ENDBRANCH  18  22
BRANCH  20  30
HETATM   30  O3  UNL     1      28.650  10.676  27.596  1.00  0.00    -0.348 OA
ATOM     31  H3  UNL     1      28.596  11.480  27.093  1.00  0.00     0.219 HD
ENDBRANCH  20  30
BRANCH  21  32
HETATM   32  C17 UNL     1      28.735  12.076  30.113  1.00  0.00     0.180 C 
BRANCH  32  33
HETATM   33  C18 UNL     1      27.963  13.097  29.330  1.00  0.00     0.061 C 
BRANCH  33  34
HETATM   34  C19 UNL     1      27.592  14.247  30.202  1.00  0.00    -0.034 C 
HETATM   35  C20 UNL     1      28.224  14.483  31.359  1.00  0.00     0.007 C 
ENDBRANCH  33  34
ENDBRANCH  32  33
BRANCH  32  36
HETATM   36  C21 UNL     1      27.767  11.051  30.552  1.00  0.00     0.254 C 
HETATM   37  N8  UNL     1      26.571  10.704  29.855  1.00  0.00    -0.060 NA
HETATM   38  O4  UNL     1      27.971  10.422  31.610  1.00  0.00    -0.275 OA
ENDBRANCH  32  36
ENDBRANCH  21  32
ENDBRANCH   5   6
ENDBRANCH   4   5
ENDBRANCH   3   4
TORSDOF 12
ENDMDL
MODEL 5
REMARK VINA RESULT: -6.508681243      2.470      5.708
REMARK  12 active torsions:
REMARK  status: ('A' for Active; 'I' for Inactive)
REMARK    1  A    between atoms: C3_3  and  C4_4 
REMARK    2  A    between atoms: C4_4  and  C5_5 
REMARK    3  A    between atoms: C5_5  and  C6_6 
REMARK    4  A    between atoms: C11_19  and  C12_20 
REMARK    5  A    between atoms: C12_20  and  C13_21 
REMARK    6  A    between atoms: C13_21  and  C14_22 
REMARK    7  A    between atoms: C14_22  and  N4_23 
REMARK    8  A    between atoms: C16_28  and  O3_29 
REMARK    9  A    between atoms: N7_31  and  C17_32 
REMARK   10  A    between atoms: C17_32  and  C18_33 
REMARK   11  A    between atoms: C17_32  and  C21_36 
REMARK   12  A    between atoms: C18_33  and  C19_34 
ROOT
HETATM    1  C1  UNL     1      32.184  10.349  25.415  1.00  0.00     0.012 C 
HETATM    2  C2  UNL     1      31.652  11.425  25.503  1.00  0.00    -0.117 C 
HETATM    3  C3  UNL     1      31.000  12.780  25.632  1.00  0.00     0.093 C 
ENDROOT
BRANCH   3   4
HETATM    4  C4  UNL     1      30.388  12.902  26.982  1.00  0.00     0.016 C 
BRANCH   4   5
HETATM    5  C5  UNL     1      28.968  12.574  27.193  1.00  0.00     0.048 C 
BRANCH   5   6
HETATM    6  C6  UNL     1      28.723  11.382  28.044  1.00  0.00     0.191 C 
HETATM    7  N1  UNL     1      27.347  10.974  27.972  1.00  0.00    -0.322 N 
HETATM    8  C7  UNL     1      26.781   9.708  28.227  1.00  0.00     0.317 C 
ATOM      9  H1  UNL     1      26.687  11.703  27.698  1.00  0.00     0.166 HD
HETATM   10  O1  UNL     1      25.625   9.803  28.810  1.00  0.00    -0.247 OA
HETATM   11  N2  UNL     1      27.201   8.414  27.984  1.00  0.00    -0.343 N 
HETATM   12  C8  UNL     1      28.533   7.877  27.896  1.00  0.00     0.133 C 
ATOM     13  H2  UNL     1      26.452   7.735  27.846  1.00  0.00     0.164 HD
HETATM   14  C9  UNL     1      29.292   7.899  29.224  1.00  0.00     0.122 C 
HETATM   15  C10 UNL     1      30.710   8.124  28.844  1.00  0.00     0.219 C 
HETATM   16  O2  UNL     1      31.412   7.096  28.637  1.00  0.00    -0.274 OA
HETATM   17  N3  UNL     1      31.325   9.386  28.694  1.00  0.00    -0.349 N 
HETATM   18  C11 UNL     1      31.416  10.461  29.630  1.00  0.00     0.159 C 
ATOM     19  H3  UNL     1      31.766   9.553  27.790  1.00  0.00     0.163 HD
HETATM   20  C16 UNL     1      30.130  11.007  30.123  1.00  0.00     0.139 C 
HETATM   21  N7  UNL     1      29.093  11.660  29.465  1.00  0.00    -0.329 N 
BRANCH  18  22
HETATM   22  C12 UNL     1      32.351  11.539  29.132  1.00  0.00     0.035 C 
BRANCH  22  23
HETATM   23  C13 UNL     1      33.212  12.190  30.126  1.00  0.00     0.022 C 
BRANCH  23  24
HETATM   24  C14 UNL     1      32.722  13.333  30.908  1.00  0.00     0.122 C 
BRANCH  24  25
HETATM   25  N4  UNL     1      32.307  13.102  32.243  1.00  0.00    -0.367 N 
HETATM   26  C15 UNL     1      32.009  14.043  33.029  1.00  0.00     0.196 C 
HETATM   27  N5  UNL     1      32.084  15.385  32.586  1.00  0.00    -0.067 NA
HETATM   28  N6  UNL     1      31.598  13.790  34.357  1.00  0.00    -0.067 NA
ATOM     29  H4  UNL     1      32.246  12.141  32.580  1.00  0.00     0.161 HD
ENDBRANCH  24  25
ENDBRANCH  23  24
ENDBRANCH  22  23
ENDBRANCH  18  22
BRANCH  20  30
HETATM   30  O3  UNL     1      29.955  10.836  31.406  1.00  0.00    -0.348 OA
ATOM     31  H3  UNL     1      29.316  10.164  31.612  1.00  0.00     0.219 HD
ENDBRANCH  20  30
BRANCH  21  32
HETATM   32  C17 UNL     1      28.209  12.686  30.050  1.00  0.00     0.180 C 
BRANCH  32  33
HETATM   33  C18 UNL     1      27.252  12.114  31.055  1.00  0.00     0.061 C 
BRANCH  33  34
HETATM   34  C19 UNL     1      25.955  12.846  31.011  1.00  0.00    -0.034 C 
HETATM   35  C20 UNL     1      25.410  13.238  29.852  1.00  0.00     0.007 C 
ENDBRANCH  33  34
ENDBRANCH  32  33
BRANCH  32  36
HETATM   36  C21 UNL     1      28.960  13.756  30.737  1.00  0.00     0.254 C 
HETATM   37  N8  UNL     1      29.557  14.879  30.091  1.00  0.00    -0.060 NA
HETATM   38  O4  UNL     1      29.109  13.709  31.975  1.00  0.00    -0.275 OA
ENDBRANCH  32  36
ENDBRANCH  21  32
ENDBRANCH   5   6
ENDBRANCH   4   5
ENDBRANCH   3   4
TORSDOF 12
ENDMDL
