MODEL 1
REMARK VINA RESULT: -6.344558244      0.000      0.000
REMARK  11 active torsions:
REMARK  status: ('A' for Active; 'I' for Inactive)
REMARK    1  A    between atoms: C2_2  and  N1_3 
REMARK    2  A    between atoms: N1_3  and  C3_4 
REMARK    3  A    between atoms: C3_4  and  C4_5 
REMARK    4  A    between atoms: C4_5  and  C5_6 
REMARK    5  A    between atoms: C5_6  and  C6_7 
REMARK    6  A    between atoms: C6_7  and  N2_8 
REMARK    7  A    between atoms: C6_7  and  C7_12 
REMARK    8  A    between atoms: C10_21  and  C11_22 
REMARK    9  A    between atoms: C11_22  and  C12_23 
REMARK   10  A    between atoms: C12_23  and  C13_24 
REMARK   11  A    between atoms: C13_24  and  N5_25 
ROOT
HETATM    1  C7  UNL     1      30.015  10.209  29.028  1.00  0.00     0.287 C 
HETATM    2  N3  UNL     1      30.119  10.890  27.731  1.00  0.00    -0.054 N 
ATOM      3  H31 UNL     1      29.724  10.311  26.989  1.00  0.00     0.278 HD
ATOM      4  H32 UNL     1      31.090  10.926  27.422  1.00  0.00     0.278 HD
HETATM    5  C8  UNL     1      29.531  12.207  27.715  1.00  0.00     0.335 C 
HETATM    6  C9  UNL     1      30.482  13.056  26.952  1.00  0.00     0.244 C 
HETATM    7  O1  UNL     1      30.389  13.039  25.700  1.00  0.00    -0.272 OA
HETATM    8  N4  UNL     1      31.456  13.847  27.588  1.00  0.00    -0.346 N 
ATOM      9  H4  UNL     1      32.413  13.714  27.261  1.00  0.00     0.163 HD
HETATM   10  C10 UNL     1      31.288  14.801  28.619  1.00  0.00     0.176 C 
HETATM   11  C15 UNL     1      31.018  14.273  29.979  1.00  0.00     0.243 C 
HETATM   12  O2  UNL     1      30.115  14.914  30.649  1.00  0.00    -0.271 OA
HETATM   13  N8  UNL     1      31.604  13.184  30.636  1.00  0.00    -0.339 N 
HETATM   14  C16 UNL     1      32.133  13.116  31.989  1.00  0.00     0.127 C 
HETATM   15  C17 UNL     1      33.422  12.315  31.773  1.00  0.00     0.022 C 
HETATM   16  C18 UNL     1      32.788  11.153  30.985  1.00  0.00     0.035 C 
HETATM   17  C19 UNL     1      31.778  11.849  30.088  1.00  0.00     0.159 C 
HETATM   18  C20 UNL     1      30.448  11.131  30.102  1.00  0.00     0.182 C 
HETATM   19  O3  UNL     1      29.744  11.352  31.052  1.00  0.00    -0.293 OA
ENDROOT
BRANCH   1  20
HETATM   20  C6  UNL     1      28.674   9.596  29.199  1.00  0.00     0.221 C 
BRANCH  20  21
HETATM   21  C5  UNL     1      28.242   8.686  28.092  1.00  0.00     0.037 C 
BRANCH  21  22
HETATM   22  C4  UNL     1      28.678   7.255  28.310  1.00  0.00     0.030 C 
BRANCH  22  23
HETATM   23  C3  UNL     1      29.978   7.027  27.631  1.00  0.00     0.237 C 
BRANCH  23  24
HETATM   24  N1  UNL     1      30.683   5.832  27.959  1.00  0.00    -0.064 N 
HETATM   25  C21 UNL     1      30.227   5.170  29.177  1.00  0.00     0.265 A 
HETATM   26  C22 UNL     1      29.950   4.577  27.866  1.00  0.00     0.265 A 
BRANCH  24  27
HETATM   27  C2  UNL     1      32.079   5.793  27.625  1.00  0.00     0.233 C 
HETATM   28  C1  UNL     1      32.752   4.478  27.892  1.00  0.00     0.035 C 
ENDBRANCH  24  27
ENDBRANCH  23  24
ENDBRANCH  22  23
ENDBRANCH  21  22
ENDBRANCH  20  21
BRANCH  20  29
HETATM   29  N2  UNL     1      28.612   8.756  30.415  1.00  0.00    -0.073 N 
ATOM     30  H23 UNL     1      28.176   7.846  30.270  1.00  0.00     0.274 HD
ATOM     31  H22 UNL     1      29.518   8.401  30.722  1.00  0.00     0.274 HD
ATOM     32  H21 UNL     1      28.138   9.339  31.105  1.00  0.00     0.274 HD
ENDBRANCH  20  29
ENDBRANCH   1  20
BRANCH  10  33
HETATM   33  C11 UNL     1      32.380  15.855  28.689  1.00  0.00     0.036 C 
BRANCH  33  34
HETATM   34  C12 UNL     1      33.644  15.556  27.979  1.00  0.00     0.022 C 
BRANCH  34  35
HETATM   35  C13 UNL     1      34.545  14.513  28.523  1.00  0.00     0.122 C 
BRANCH  35  36
HETATM   36  N5  UNL     1      35.371  14.052  27.376  1.00  0.00    -0.367 N 
HETATM   37  C14 UNL     1      35.151  12.917  26.817  1.00  0.00     0.196 C 
HETATM   38  N6  UNL     1      34.138  12.007  27.207  1.00  0.00    -0.067 NA
HETATM   39  N7  UNL     1      35.989  12.553  25.728  1.00  0.00    -0.067 NA
ATOM     40  H5  UNL     1      36.124  14.646  27.028  1.00  0.00     0.161 HD
ENDBRANCH  35  36
ENDBRANCH  34  35
ENDBRANCH  33  34
ENDBRANCH  10  33
TORSDOF 11
ENDMDL
MODEL 2
REMARK VINA RESULT: -6.317099587      4.984      8.680
REMARK  11 active torsions:
REMARK  status: ('A' for Active; 'I' for Inactive)
REMARK    1  A    between atoms: C2_2  and  N1_3 
REMARK    2  A    between atoms: N1_3  and  C3_4 
REMARK    3  A    between atoms: C3_4  and  C4_5 
REMARK    4  A    between atoms: C4_5  and  C5_6 
REMARK    5  A    between atoms: C5_6  and  C6_7 
REMARK    6  A    between atoms: C6_7  and  N2_8 
REMARK    7  A    between atoms: C6_7  and  C7_12 
REMARK    8  A    between atoms: C10_21  and  C11_22 
REMARK    9  A    between atoms: C11_22  and  C12_23 
REMARK   10  A    between atoms: C12_23  and  C13_24 
REMARK   11  A    between atoms: C13_24  and  N5_25 
ROOT
HETATM    1  C7  UNL     1      24.818  13.515  30.175  1.00  0.00     0.287 C 
HETATM    2  N3  UNL     1      26.212  13.878  30.458  1.00  0.00    -0.054 N 
ATOM      3  H31 UNL     1      26.254  14.687  31.078  1.00  0.00     0.278 HD
ATOM      4  H32 UNL     1      26.656  14.272  29.630  1.00  0.00     0.278 HD
HETATM    5  C8  UNL     1      27.001  12.792  30.989  1.00  0.00     0.335 C 
HETATM    6  C9  UNL     1      28.313  12.881  30.297  1.00  0.00     0.244 C 
HETATM    7  O1  UNL     1      29.159  13.678  30.772  1.00  0.00    -0.272 OA
HETATM    8  N4  UNL     1      28.611  12.117  29.155  1.00  0.00    -0.346 N 
ATOM      9  H4  UNL     1      28.949  12.643  28.349  1.00  0.00     0.163 HD
HETATM   10  C10 UNL     1      28.505  10.717  28.972  1.00  0.00     0.176 C 
HETATM   11  C15 UNL     1      27.137  10.166  28.822  1.00  0.00     0.243 C 
HETATM   12  O2  UNL     1      26.917   9.060  29.458  1.00  0.00    -0.271 OA
HETATM   13  N8  UNL     1      26.055  10.671  28.091  1.00  0.00    -0.339 N 
HETATM   14  C16 UNL     1      25.172   9.971  27.172  1.00  0.00     0.127 C 
HETATM   15  C17 UNL     1      25.045  10.989  26.034  1.00  0.00     0.022 C 
HETATM   16  C18 UNL     1      24.670  12.201  26.910  1.00  0.00     0.035 C 
HETATM   17  C19 UNL     1      25.563  12.039  28.129  1.00  0.00     0.159 C 
HETATM   18  C20 UNL     1      24.786  12.250  29.407  1.00  0.00     0.182 C 
HETATM   19  O3  UNL     1      24.125  11.315  29.779  1.00  0.00    -0.293 OA
ENDROOT
BRANCH   1  20
HETATM   20  C6  UNL     1      24.000  13.546  31.413  1.00  0.00     0.221 C 
BRANCH  20  21
HETATM   21  C5  UNL     1      24.035  14.837  32.170  1.00  0.00     0.037 C 
BRANCH  21  22
HETATM   22  C4  UNL     1      23.772  14.655  33.647  1.00  0.00     0.030 C 
BRANCH  22  23
HETATM   23  C3  UNL     1      25.041  14.305  34.334  1.00  0.00     0.237 C 
BRANCH  23  24
HETATM   24  N1  UNL     1      25.622  15.299  35.173  1.00  0.00    -0.064 N 
HETATM   25  C21 UNL     1      24.742  16.419  35.491  1.00  0.00     0.265 A 
HETATM   26  C22 UNL     1      25.087  15.434  36.520  1.00  0.00     0.265 A 
BRANCH  24  27
HETATM   27  C2  UNL     1      27.027  15.543  35.007  1.00  0.00     0.233 C 
HETATM   28  C1  UNL     1      27.547  15.304  33.619  1.00  0.00     0.035 C 
ENDBRANCH  24  27
ENDBRANCH  23  24
ENDBRANCH  22  23
ENDBRANCH  21  22
ENDBRANCH  20  21
BRANCH  20  29
HETATM   29  N2  UNL     1      22.566  13.326  31.122  1.00  0.00    -0.073 N 
ATOM     30  H23 UNL     1      21.939  13.957  31.621  1.00  0.00     0.274 HD
ATOM     31  H22 UNL     1      22.285  13.605  30.182  1.00  0.00     0.274 HD
ATOM     32  H21 UNL     1      22.412  12.339  31.327  1.00  0.00     0.274 HD
ENDBRANCH  20  29
ENDBRANCH   1  20
BRANCH  10  33
HETATM   33  C11 UNL     1      29.404  10.153  27.885  1.00  0.00     0.036 C 
BRANCH  33  34
HETATM   34  C12 UNL     1      29.444   8.679  27.750  1.00  0.00     0.022 C 
BRANCH  34  35
HETATM   35  C13 UNL     1      30.116   7.879  28.801  1.00  0.00     0.122 C 
BRANCH  35  36
HETATM   36  N5  UNL     1      29.804   6.459  28.491  1.00  0.00    -0.367 N 
HETATM   37  C14 UNL     1      30.720   5.653  28.089  1.00  0.00     0.196 C 
HETATM   38  N6  UNL     1      32.080   6.005  27.903  1.00  0.00    -0.067 NA
HETATM   39  N7  UNL     1      30.335   4.313  27.813  1.00  0.00    -0.067 NA
ATOM     40  H5  UNL     1      28.848   6.119  28.599  1.00  0.00     0.161 HD
ENDBRANCH  35  36
ENDBRANCH  34  35
ENDBRANCH  33  34
ENDBRANCH  10  33
TORSDOF 11
ENDMDL
MODEL 3
REMARK VINA RESULT: -6.282236333      3.550      6.794
REMARK  11 active torsions:
REMARK  status: ('A' for Active; 'I' for Inactive)
REMARK    1  A    between atoms: C2_2  and  N1_3 
REMARK    2  A    between atoms: N1_3  and  C3_4 
REMARK    3  A    between atoms: C3_4  and  C4_5 
REMARK    4  A    between atoms: C4_5  and  C5_6 
REMARK    5  A    between atoms: C5_6  and  C6_7 
REMARK    6  A    between atoms: C6_7  and  N2_8 
REMARK    7  A    between atoms: C6_7  and  C7_12 
REMARK    8  A    between atoms: C10_21  and  C11_22 
REMARK    9  A    between atoms: C11_22  and  C12_23 
REMARK   10  A    between atoms: C12_23  and  C13_24 
REMARK   11  A    between atoms: C13_24  and  N5_25 
ROOT
HETATM    1  C7  UNL     1      28.336  12.756  31.201  1.00  0.00     0.287 C 
HETATM    2  N3  UNL     1      27.704  11.480  30.842  1.00  0.00    -0.054 N 
ATOM      3  H31 UNL     1      26.771  11.414  31.250  1.00  0.00     0.278 HD
ATOM      4  H32 UNL     1      28.158  10.706  31.325  1.00  0.00     0.278 HD
HETATM    5  C8  UNL     1      27.654  11.234  29.421  1.00  0.00     0.335 C 
HETATM    6  C9  UNL     1      28.007   9.800  29.255  1.00  0.00     0.244 C 
HETATM    7  O1  UNL     1      27.082   8.963  29.395  1.00  0.00    -0.272 OA
HETATM    8  N4  UNL     1      29.316   9.380  28.960  1.00  0.00    -0.346 N 
ATOM      9  H4  UNL     1      29.703   8.672  29.584  1.00  0.00     0.163 HD
HETATM   10  C10 UNL     1      30.168   9.806  27.914  1.00  0.00     0.176 C 
HETATM   11  C15 UNL     1      30.773  11.153  28.053  1.00  0.00     0.243 C 
HETATM   12  O2  UNL     1      30.796  11.860  26.969  1.00  0.00    -0.271 OA
HETATM   13  N8  UNL     1      31.323  11.762  29.187  1.00  0.00    -0.339 N 
HETATM   14  C16 UNL     1      32.587  12.466  29.319  1.00  0.00     0.127 C 
HETATM   15  C17 UNL     1      33.093  11.938  30.666  1.00  0.00     0.022 C 
HETATM   16  C18 UNL     1      31.808  12.220  31.469  1.00  0.00     0.035 C 
HETATM   17  C19 UNL     1      30.701  11.841  30.500  1.00  0.00     0.159 C 
HETATM   18  C20 UNL     1      29.616  12.893  30.470  1.00  0.00     0.182 C 
HETATM   19  O3  UNL     1      29.850  13.869  29.806  1.00  0.00    -0.293 OA
ENDROOT
BRANCH   1  20
HETATM   20  C6  UNL     1      27.379  13.882  31.055  1.00  0.00     0.221 C 
BRANCH  20  21
HETATM   21  C5  UNL     1      25.977  13.588  31.489  1.00  0.00     0.037 C 
BRANCH  21  22
HETATM   22  C4  UNL     1      24.973  13.763  30.372  1.00  0.00     0.030 C 
BRANCH  22  23
HETATM   23  C3  UNL     1      23.716  13.056  30.725  1.00  0.00     0.237 C 
BRANCH  23  24
HETATM   24  N1  UNL     1      23.185  12.153  29.759  1.00  0.00    -0.064 N 
HETATM   25  C21 UNL     1      21.905  11.555  30.122  1.00  0.00     0.265 A 
HETATM   26  C22 UNL     1      21.976  12.559  29.057  1.00  0.00     0.265 A 
BRANCH  24  27
HETATM   27  C2  UNL     1      24.134  11.372  29.016  1.00  0.00     0.233 C 
HETATM   28  C1  UNL     1      23.661   9.996  28.644  1.00  0.00     0.035 C 
ENDBRANCH  24  27
ENDBRANCH  23  24
ENDBRANCH  22  23
ENDBRANCH  21  22
ENDBRANCH  20  21
BRANCH  20  29
HETATM   29  N2  UNL     1      27.784  15.047  31.871  1.00  0.00    -0.073 N 
ATOM     30  H23 UNL     1      27.008  15.640  32.163  1.00  0.00     0.274 HD
ATOM     31  H22 UNL     1      28.103  14.808  32.810  1.00  0.00     0.274 HD
ATOM     32  H21 UNL     1      28.483  15.527  31.303  1.00  0.00     0.274 HD
ENDBRANCH  20  29
ENDBRANCH   1  20
BRANCH  10  33
HETATM   33  C11 UNL     1      31.242   8.803  27.526  1.00  0.00     0.036 C 
BRANCH  33  34
HETATM   34  C12 UNL     1      30.791   7.581  26.820  1.00  0.00     0.022 C 
BRANCH  34  35
HETATM   35  C13 UNL     1      30.922   6.270  27.497  1.00  0.00     0.122 C 
BRANCH  35  36
HETATM   36  N5  UNL     1      32.359   5.904  27.399  1.00  0.00    -0.367 N 
HETATM   37  C14 UNL     1      32.777   4.756  27.796  1.00  0.00     0.196 C 
HETATM   38  N6  UNL     1      31.954   3.744  28.349  1.00  0.00    -0.067 NA
HETATM   39  N7  UNL     1      34.167   4.488  27.668  1.00  0.00    -0.067 NA
ATOM     40  H5  UNL     1      33.023   6.574  27.011  1.00  0.00     0.161 HD
ENDBRANCH  35  36
ENDBRANCH  34  35
ENDBRANCH  33  34
ENDBRANCH  10  33
TORSDOF 11
ENDMDL
MODEL 4
REMARK VINA RESULT: -6.223320533      4.014      7.933
REMARK  11 active torsions:
REMARK  status: ('A' for Active; 'I' for Inactive)
REMARK    1  A    between atoms: C2_2  and  N1_3 
REMARK    2  A    between atoms: N1_3  and  C3_4 
REMARK    3  A    between atoms: C3_4  and  C4_5 
REMARK    4  A    between atoms: C4_5  and  C5_6 
REMARK    5  A    between atoms: C5_6  and  C6_7 
REMARK    6  A    between atoms: C6_7  and  N2_8 
REMARK    7  A    between atoms: C6_7  and  C7_12 
REMARK    8  A    between atoms: C10_21  and  C11_22 
REMARK    9  A    between atoms: C11_22  and  C12_23 
REMARK   10  A    between atoms: C12_23  and  C13_24 
REMARK   11  A    between atoms: C13_24  and  N5_25 
ROOT
HETATM    1  C7  UNL     1      28.751  13.190  31.045  1.00  0.00     0.287 C 
HETATM    2  N3  UNL     1      27.836  12.080  30.750  1.00  0.00    -0.054 N 
ATOM      3  H31 UNL     1      26.881  12.320  31.020  1.00  0.00     0.278 HD
ATOM      4  H32 UNL     1      28.002  11.300  31.384  1.00  0.00     0.278 HD
HETATM    5  C8  UNL     1      27.879  11.639  29.377  1.00  0.00     0.335 C 
HETATM    6  C9  UNL     1      27.839  10.154  29.438  1.00  0.00     0.244 C 
HETATM    7  O1  UNL     1      26.709   9.615  29.537  1.00  0.00    -0.272 OA
HETATM    8  N4  UNL     1      29.006   9.371  29.392  1.00  0.00    -0.346 N 
ATOM      9  H4  UNL     1      29.111   8.693  30.147  1.00  0.00     0.163 HD
HETATM   10  C10 UNL     1      30.054   9.396  28.441  1.00  0.00     0.176 C 
HETATM   11  C15 UNL     1      30.987  10.547  28.508  1.00  0.00     0.243 C 
HETATM   12  O2  UNL     1      31.324  11.048  27.363  1.00  0.00    -0.271 OA
HETATM   13  N8  UNL     1      31.553  11.162  29.631  1.00  0.00    -0.339 N 
HETATM   14  C16 UNL     1      32.940  11.529  29.864  1.00  0.00     0.127 C 
HETATM   15  C17 UNL     1      33.127  11.104  31.325  1.00  0.00     0.022 C 
HETATM   16  C18 UNL     1      31.888  11.827  31.889  1.00  0.00     0.035 C 
HETATM   17  C19 UNL     1      30.835  11.600  30.817  1.00  0.00     0.159 C 
HETATM   18  C20 UNL     1      30.092  12.879  30.502  1.00  0.00     0.182 C 
HETATM   19  O3  UNL     1      30.658  13.646  29.769  1.00  0.00    -0.293 OA
ENDROOT
BRANCH   1  20
HETATM   20  C6  UNL     1      28.164  14.488  30.626  1.00  0.00     0.221 C 
BRANCH  20  21
HETATM   21  C5  UNL     1      26.843  14.821  31.245  1.00  0.00     0.037 C 
BRANCH  21  22
HETATM   22  C4  UNL     1      26.913  14.915  32.752  1.00  0.00     0.030 C 
BRANCH  22  23
HETATM   23  C3  UNL     1      25.914  15.904  33.230  1.00  0.00     0.237 C 
BRANCH  23  24
HETATM   24  N1  UNL     1      24.966  15.456  34.196  1.00  0.00    -0.064 N 
HETATM   25  C21 UNL     1      23.795  14.789  33.636  1.00  0.00     0.265 A 
HETATM   26  C22 UNL     1      24.809  14.018  34.361  1.00  0.00     0.265 A 
BRANCH  24  27
HETATM   27  C2  UNL     1      24.812  16.264  35.372  1.00  0.00     0.233 C 
HETATM   28  C1  UNL     1      25.071  15.548  36.665  1.00  0.00     0.035 C 
ENDBRANCH  24  27
ENDBRANCH  23  24
ENDBRANCH  22  23
ENDBRANCH  21  22
ENDBRANCH  20  21
BRANCH  20  29
HETATM   29  N2  UNL     1      29.041  15.622  30.988  1.00  0.00    -0.073 N 
ATOM     30  H23 UNL     1      28.776  16.507  30.555  1.00  0.00     0.274 HD
ATOM     31  H22 UNL     1      28.939  15.934  31.954  1.00  0.00     0.274 HD
ATOM     32  H21 UNL     1      29.981  15.307  30.748  1.00  0.00     0.274 HD
ENDBRANCH  20  29
ENDBRANCH   1  20
BRANCH  10  33
HETATM   33  C11 UNL     1      30.845   8.103  28.340  1.00  0.00     0.036 C 
BRANCH  33  34
HETATM   34  C12 UNL     1      30.143   6.858  28.725  1.00  0.00     0.022 C 
BRANCH  34  35
HETATM   35  C13 UNL     1      30.320   5.646  27.890  1.00  0.00     0.122 C 
BRANCH  35  36
HETATM   36  N5  UNL     1      31.763   5.604  27.537  1.00  0.00    -0.367 N 
HETATM   37  C14 UNL     1      32.504   4.619  27.898  1.00  0.00     0.196 C 
HETATM   38  N6  UNL     1      32.054   3.502  28.644  1.00  0.00    -0.067 NA
HETATM   39  N7  UNL     1      33.874   4.660  27.520  1.00  0.00    -0.067 NA
ATOM     40  H5  UNL     1      32.171   6.369  26.999  1.00  0.00     0.161 HD
ENDBRANCH  35  36
ENDBRANCH  34  35
ENDBRANCH  33  34
ENDBRANCH  10  33
TORSDOF 11
ENDMDL
MODEL 5
REMARK VINA RESULT: -6.205383602      3.704      6.728
REMARK  11 active torsions:
REMARK  status: ('A' for Active; 'I' for Inactive)
REMARK    1  A    between atoms: C2_2  and  N1_3 
REMARK    2  A    between atoms: N1_3  and  C3_4 
REMARK    3  A    between atoms: C3_4  and  C4_5 
REMARK    4  A    between atoms: C4_5  and  C5_6 
REMARK    5  A    between atoms: C5_6  and  C6_7 
REMARK    6  A    between atoms: C6_7  and  N2_8 
REMARK    7  A    between atoms: C6_7  and  C7_12 
REMARK    8  A    between atoms: C10_21  and  C11_22 
REMARK    9  A    between atoms: C11_22  and  C12_23 
REMARK   10  A    between atoms: C12_23  and  C13_24 
REMARK   11  A    between atoms: C13_24  and  N5_25 
ROOT
HETATM    1  C7  UNL     1      26.626  10.783  28.011  1.00  0.00     0.287 C 
HETATM    2  N3  UNL     1      27.275  12.100  28.047  1.00  0.00    -0.054 N 
ATOM      3  H31 UNL     1      26.645  12.820  27.693  1.00  0.00     0.278 HD
ATOM      4  H32 UNL     1      28.012  12.156  27.345  1.00  0.00     0.278 HD
HETATM    5  C8  UNL     1      27.782  12.464  29.347  1.00  0.00     0.335 C 
HETATM    6  C9  UNL     1      29.110  13.083  29.095  1.00  0.00     0.244 C 
HETATM    7  O1  UNL     1      29.126  14.301  28.788  1.00  0.00    -0.272 OA
HETATM    8  N4  UNL     1      30.306  12.350  29.186  1.00  0.00    -0.346 N 
ATOM      9  H4  UNL     1      30.917  12.401  28.370  1.00  0.00     0.163 HD
HETATM   10  C10 UNL     1      30.778  11.553  30.256  1.00  0.00     0.176 C 
HETATM   11  C15 UNL     1      30.115  10.241  30.452  1.00  0.00     0.243 C 
HETATM   12  O2  UNL     1      29.873   9.927  31.685  1.00  0.00    -0.271 OA
HETATM   13  N8  UNL     1      29.718   9.299  29.496  1.00  0.00    -0.339 N 
HETATM   14  C16 UNL     1      29.943   7.863  29.486  1.00  0.00     0.127 C 
HETATM   15  C17 UNL     1      30.313   7.622  28.017  1.00  0.00     0.022 C 
HETATM   16  C18 UNL     1      29.107   8.357  27.400  1.00  0.00     0.035 C 
HETATM   17  C19 UNL     1      28.946   9.575  28.294  1.00  0.00     0.159 C 
HETATM   18  C20 UNL     1      27.499   9.787  28.674  1.00  0.00     0.182 C 
HETATM   19  O3  UNL     1      27.083   9.092  29.563  1.00  0.00    -0.293 OA
ENDROOT
BRANCH   1  20
HETATM   20  C6  UNL     1      25.232  10.864  28.515  1.00  0.00     0.221 C 
BRANCH  20  21
HETATM   21  C5  UNL     1      24.356  11.854  27.813  1.00  0.00     0.037 C 
BRANCH  21  22
HETATM   22  C4  UNL     1      23.960  13.013  28.699  1.00  0.00     0.030 C 
BRANCH  22  23
HETATM   23  C3  UNL     1      24.094  12.613  30.123  1.00  0.00     0.237 C 
BRANCH  23  24
HETATM   24  N1  UNL     1      24.223  13.658  31.083  1.00  0.00    -0.064 N 
HETATM   25  C21 UNL     1      23.920  14.992  30.576  1.00  0.00     0.265 A 
HETATM   26  C22 UNL     1      23.003  14.330  31.507  1.00  0.00     0.265 A 
BRANCH  24  27
HETATM   27  C2  UNL     1      25.254  13.505  32.069  1.00  0.00     0.233 C 
HETATM   28  C1  UNL     1      24.830  13.812  33.476  1.00  0.00     0.035 C 
ENDBRANCH  24  27
ENDBRANCH  23  24
ENDBRANCH  22  23
ENDBRANCH  21  22
ENDBRANCH  20  21
BRANCH  20  29
HETATM   29  N2  UNL     1      24.526   9.573  28.368  1.00  0.00    -0.073 N 
ATOM     30  H23 UNL     1      23.531   9.616  28.588  1.00  0.00     0.274 HD
ATOM     31  H22 UNL     1      24.415   9.267  27.401  1.00  0.00     0.274 HD
ATOM     32  H21 UNL     1      25.053   8.924  28.952  1.00  0.00     0.274 HD
ENDBRANCH  20  29
ENDBRANCH   1  20
BRANCH  10  33
HETATM   33  C11 UNL     1      32.286  11.371  30.291  1.00  0.00     0.036 C 
BRANCH  33  34
HETATM   34  C12 UNL     1      32.959  11.614  31.588  1.00  0.00     0.022 C 
BRANCH  34  35
HETATM   35  C13 UNL     1      33.370  12.994  31.937  1.00  0.00     0.122 C 
BRANCH  35  36
HETATM   36  N5  UNL     1      32.527  13.387  33.096  1.00  0.00    -0.367 N 
HETATM   37  C14 UNL     1      31.515  14.164  32.944  1.00  0.00     0.196 C 
HETATM   38  N6  UNL     1      31.098  14.714  31.708  1.00  0.00    -0.067 NA
HETATM   39  N7  UNL     1      30.765  14.491  34.107  1.00  0.00    -0.067 NA
ATOM     40  H5  UNL     1      32.756  13.036  34.026  1.00  0.00     0.161 HD
ENDBRANCH  35  36
ENDBRANCH  34  35
ENDBRANCH  33  34
ENDBRANCH  10  33
TORSDOF 11
ENDMDL
