MODEL 1
REMARK VINA RESULT: -5.640132307      0.000      0.000
REMARK  4 active torsions:
REMARK  status: ('A' for Active; 'I' for Inactive)
REMARK    1  A    between atoms: C2_2  and  N1_3 
REMARK    2  A    between atoms: C2_2  and  C3_7 
REMARK    3  A    between atoms: C2_2  and  C4_10 
REMARK       I    between atoms: C4_10  and  N3_12 
REMARK    4  A    between atoms: N3_12  and  N4_14 
ROOT
HETATM    1  C1  UNL     1      -2.599  10.381   8.857  1.00  0.00     0.067 C 
HETATM    2  C2  UNL     1      -1.140  10.276   9.287  1.00  0.00     0.277 C 
ENDROOT
BRANCH   2   3
HETATM    3  N1  UNL     1      -0.916  10.974  10.538  1.00  0.00    -0.053 N 
ATOM      4  H13 UNL     1      -1.770  11.036  11.092  1.00  0.00     0.276 HD
ATOM      5  H12 UNL     1      -0.353  10.420  11.183  1.00  0.00     0.276 HD
ATOM      6  H11 UNL     1      -0.506  11.893  10.375  1.00  0.00     0.276 HD
ENDBRANCH   2   3
BRANCH   2   7
HETATM    7  C3  UNL     1      -0.299  10.916   8.251  1.00  0.00     0.276 C 
HETATM    8  N2  UNL     1       0.901  11.542   8.606  1.00  0.00    -0.059 NA
HETATM    9  O1  UNL     1      -0.650  10.909   7.046  1.00  0.00    -0.274 OA
ENDBRANCH   2   7
BRANCH   2  10
HETATM   10  C4  UNL     1      -0.748   8.857   9.488  1.00  0.00     0.280 C 
HETATM   11  O2  UNL     1      -1.266   8.226  10.438  1.00  0.00    -0.268 OA
HETATM   12  N3  UNL     1       0.179   8.193   8.660  1.00  0.00    -0.274 N 
ATOM     13  H3  UNL     1       0.618   8.682   7.878  1.00  0.00     0.189 HD
BRANCH  12  14
HETATM   14  N4  UNL     1       0.489   6.863   8.921  1.00  0.00    -0.343 N 
ATOM     15  H42 UNL     1       0.152   6.135   8.290  1.00  0.00     0.176 HD
ATOM     16  H41 UNL     1       1.051   6.637   9.742  1.00  0.00     0.176 HD
ENDBRANCH  12  14
ENDBRANCH   2  10
TORSDOF 4
ENDMDL
MODEL 2
REMARK VINA RESULT: -5.509795889      1.428      1.428
REMARK  4 active torsions:
REMARK  status: ('A' for Active; 'I' for Inactive)
REMARK    1  A    between atoms: C2_2  and  N1_3 
REMARK    2  A    between atoms: C2_2  and  C3_7 
REMARK    3  A    between atoms: C2_2  and  C4_10 
REMARK       I    between atoms: C4_10  and  N3_12 
REMARK    4  A    between atoms: N3_12  and  N4_14 
ROOT
HETATM    1  C1  UNL     1      -2.234   9.717   8.938  1.00  0.00     0.067 C 
HETATM    2  C2  UNL     1      -0.850  10.184   9.373  1.00  0.00     0.277 C 
ENDROOT
BRANCH   2   3
HETATM    3  N1  UNL     1      -0.938  11.090  10.502  1.00  0.00    -0.053 N 
ATOM      4  H13 UNL     1      -0.480  11.980  10.306  1.00  0.00     0.276 HD
ATOM      5  H12 UNL     1      -1.889  11.432  10.636  1.00  0.00     0.276 HD
ATOM      6  H11 UNL     1      -0.571  10.656  11.348  1.00  0.00     0.276 HD
ENDBRANCH   2   3
BRANCH   2   7
HETATM    7  C3  UNL     1      -0.228  10.916   8.248  1.00  0.00     0.276 C 
HETATM    8  N2  UNL     1       0.913  11.698   8.461  1.00  0.00    -0.059 NA
HETATM    9  O1  UNL     1      -0.714  10.849   7.092  1.00  0.00    -0.274 OA
ENDBRANCH   2   7
BRANCH   2  10
HETATM   10  C4  UNL     1      -0.008   9.032   9.788  1.00  0.00     0.280 C 
HETATM   11  O2  UNL     1       0.395   8.241   8.903  1.00  0.00    -0.268 OA
HETATM   12  N3  UNL     1       0.355   8.790  11.128  1.00  0.00    -0.274 N 
ATOM     13  H3  UNL     1       0.041   9.417  11.870  1.00  0.00     0.189 HD
BRANCH  12  14
HETATM   14  N4  UNL     1       1.146   7.686  11.426  1.00  0.00    -0.343 N 
ATOM     15  H42 UNL     1       1.733   7.278  10.698  1.00  0.00     0.176 HD
ATOM     16  H41 UNL     1       1.126   7.303  12.371  1.00  0.00     0.176 HD
ENDBRANCH  12  14
ENDBRANCH   2  10
TORSDOF 4
ENDMDL
MODEL 3
REMARK VINA RESULT: -5.432874589      2.051      2.148
REMARK  4 active torsions:
REMARK  status: ('A' for Active; 'I' for Inactive)
REMARK    1  A    between atoms: C2_2  and  N1_3 
REMARK    2  A    between atoms: C2_2  and  C3_7 
REMARK    3  A    between atoms: C2_2  and  C4_10 
REMARK       I    between atoms: C4_10  and  N3_12 
REMARK    4  A    between atoms: N3_12  and  N4_14 
ROOT
HETATM    1  C1  UNL     1      -3.233   9.725   8.366  1.00  0.00     0.067 C 
HETATM    2  C2  UNL     1      -1.978  10.199   9.089  1.00  0.00     0.277 C 
ENDROOT
BRANCH   2   3
HETATM    3  N1  UNL     1      -2.070  11.607   9.423  1.00  0.00    -0.053 N 
ATOM      4  H13 UNL     1      -1.532  11.832  10.260  1.00  0.00     0.276 HD
ATOM      5  H12 UNL     1      -1.565  12.187   8.753  1.00  0.00     0.276 HD
ATOM      6  H11 UNL     1      -3.044  11.897   9.513  1.00  0.00     0.276 HD
ENDBRANCH   2   3
BRANCH   2   7
HETATM    7  C3  UNL     1      -0.821  10.020   8.184  1.00  0.00     0.276 C 
HETATM    8  N2  UNL     1      -0.670  10.843   7.063  1.00  0.00    -0.059 NA
HETATM    9  O1  UNL     1       0.037   9.131   8.408  1.00  0.00    -0.274 OA
ENDBRANCH   2   7
BRANCH   2  10
HETATM   10  C4  UNL     1      -1.782   9.449  10.357  1.00  0.00     0.280 C 
HETATM   11  O2  UNL     1      -2.703   8.696  10.750  1.00  0.00    -0.268 OA
HETATM   12  N3  UNL     1      -0.610   9.549  11.134  1.00  0.00    -0.274 N 
ATOM     13  H3  UNL     1       0.156  10.155  10.838  1.00  0.00     0.189 HD
BRANCH  12  14
HETATM   14  N4  UNL     1      -0.512   8.811  12.308  1.00  0.00    -0.343 N 
ATOM     15  H42 UNL     1      -1.104   7.990  12.436  1.00  0.00     0.176 HD
ATOM     16  H41 UNL     1       0.152   9.105  13.024  1.00  0.00     0.176 HD
ENDBRANCH  12  14
ENDBRANCH   2  10
TORSDOF 4
ENDMDL
MODEL 4
REMARK VINA RESULT: -5.354826491      1.671      3.841
REMARK  4 active torsions:
REMARK  status: ('A' for Active; 'I' for Inactive)
REMARK    1  A    between atoms: C2_2  and  N1_3 
REMARK    2  A    between atoms: C2_2  and  C3_7 
REMARK    3  A    between atoms: C2_2  and  C4_10 
REMARK       I    between atoms: C4_10  and  N3_12 
REMARK    4  A    between atoms: N3_12  and  N4_14 
ROOT
HETATM    1  C1  UNL     1      -2.562   9.018   9.743  1.00  0.00     0.067 C 
HETATM    2  C2  UNL     1      -1.063   8.834   9.954  1.00  0.00     0.277 C 
ENDROOT
BRANCH   2   3
HETATM    3  N1  UNL     1      -0.546   7.777   9.108  1.00  0.00    -0.053 N 
ATOM      4  H13 UNL     1      -0.650   8.002   8.118  1.00  0.00     0.276 HD
ATOM      5  H12 UNL     1       0.472   7.725   9.149  1.00  0.00     0.276 HD
ATOM      6  H11 UNL     1      -0.978   6.882   9.337  1.00  0.00     0.276 HD
ENDBRANCH   2   3
BRANCH   2   7
HETATM    7  C3  UNL     1      -0.833   8.444  11.363  1.00  0.00     0.276 C 
HETATM    8  N2  UNL     1       0.143   7.493  11.680  1.00  0.00    -0.059 NA
HETATM    9  O1  UNL     1      -1.509   8.956  12.289  1.00  0.00    -0.274 OA
ENDBRANCH   2   7
BRANCH   2  10
HETATM   10  C4  UNL     1      -0.324  10.079   9.620  1.00  0.00     0.280 C 
HETATM   11  O2  UNL     1       0.363  10.099   8.572  1.00  0.00    -0.268 OA
HETATM   12  N3  UNL     1      -0.362  11.233  10.428  1.00  0.00    -0.274 N 
ATOM     13  H3  UNL     1      -0.913  11.246  11.286  1.00  0.00     0.189 HD
BRANCH  12  14
HETATM   14  N4  UNL     1       0.362  12.355  10.038  1.00  0.00    -0.343 N 
ATOM     15  H42 UNL     1       0.139  12.815   9.155  1.00  0.00     0.176 HD
ATOM     16  H41 UNL     1       1.105  12.700  10.645  1.00  0.00     0.176 HD
ENDBRANCH  12  14
ENDBRANCH   2  10
TORSDOF 4
ENDMDL
MODEL 5
REMARK VINA RESULT: -5.223388884      2.017      2.088
REMARK  4 active torsions:
REMARK  status: ('A' for Active; 'I' for Inactive)
REMARK    1  A    between atoms: C2_2  and  N1_3 
REMARK    2  A    between atoms: C2_2  and  C3_7 
REMARK    3  A    between atoms: C2_2  and  C4_10 
REMARK       I    between atoms: C4_10  and  N3_12 
REMARK    4  A    between atoms: N3_12  and  N4_14 
ROOT
HETATM    1  C1  UNL     1      -0.978  10.336   7.416  1.00  0.00     0.067 C 
HETATM    2  C2  UNL     1      -0.730  10.838   8.835  1.00  0.00     0.277 C 
ENDROOT
BRANCH   2   3
HETATM    3  N1  UNL     1      -1.880  11.567   9.336  1.00  0.00    -0.053 N 
ATOM      4  H13 UNL     1      -1.695  11.977  10.251  1.00  0.00     0.276 HD
ATOM      5  H12 UNL     1      -2.039  12.425   8.810  1.00  0.00     0.276 HD
ATOM      6  H11 UNL     1      -2.709  10.974   9.350  1.00  0.00     0.276 HD
ENDBRANCH   2   3
BRANCH   2   7
HETATM    7  C3  UNL     1       0.422  11.766   8.808  1.00  0.00     0.276 C 
HETATM    8  N2  UNL     1       0.795  12.458   9.966  1.00  0.00    -0.059 NA
HETATM    9  O1  UNL     1       1.076  11.946   7.752  1.00  0.00    -0.274 OA
ENDBRANCH   2   7
BRANCH   2  10
HETATM   10  C4  UNL     1      -0.479   9.704   9.761  1.00  0.00     0.280 C 
HETATM   11  O2  UNL     1      -0.038   8.633   9.284  1.00  0.00    -0.268 OA
HETATM   12  N3  UNL     1      -0.715   9.781  11.149  1.00  0.00    -0.274 N 
ATOM     13  H3  UNL     1      -1.075  10.640  11.565  1.00  0.00     0.189 HD
BRANCH  12  14
HETATM   14  N4  UNL     1      -0.452   8.669  11.942  1.00  0.00    -0.343 N 
ATOM     15  H42 UNL     1       0.506   8.331  12.030  1.00  0.00     0.176 HD
ATOM     16  H41 UNL     1      -1.225   8.211  12.425  1.00  0.00     0.176 HD
ENDBRANCH  12  14
ENDBRANCH   2  10
TORSDOF 4
ENDMDL
