MODEL 1
REMARK VINA RESULT: -7.664504242      0.000      0.000
REMARK  6 active torsions:
REMARK  status: ('A' for Active; 'I' for Inactive)
REMARK    1  A    between atoms: N1_1  and  C1_4 
REMARK    2  A    between atoms: C4_14  and  S1_15 
REMARK    3  A    between atoms: S1_15  and  C5_16 
REMARK    4  A    between atoms: C5_16  and  C6_17 
REMARK    5  A    between atoms: C7_22  and  C8_23 
REMARK       I    between atoms: C8_23  and  N7_25 
REMARK    6  A    between atoms: N7_25  and  N8_26 
ROOT
HETATM    1  C1  UNL     1      33.521  -6.365  12.182  1.00  0.00     0.694 A 
HETATM    2  N2  UNL     1      33.875  -7.289  13.092  1.00  0.00    -0.152 N 
ATOM      3  H2  UNL     1      33.401  -8.190  13.148  1.00  0.00     0.188 HD
HETATM    4  C2  UNL     1      34.888  -6.973  13.929  1.00  0.00     0.307 A 
HETATM    5  O1  UNL     1      35.253  -7.796  14.793  1.00  0.00    -0.263 OA
HETATM    6  C3  UNL     1      35.513  -5.738  13.827  1.00  0.00     0.214 A 
HETATM    7  N3  UNL     1      36.532  -5.154  14.512  1.00  0.00    -0.277 N 
ATOM      8  H3  UNL     1      37.048  -5.574  15.285  1.00  0.00     0.189 HD
HETATM    9  N4  UNL     1      36.740  -3.950  14.006  1.00  0.00    -0.277 N 
ATOM     10  H4  UNL     1      37.447  -3.291  14.329  1.00  0.00     0.189 HD
HETATM   11  C4  UNL     1      35.890  -3.731  13.016  1.00  0.00     0.183 A 
HETATM   12  N10 UNL     1      35.136  -4.837  12.909  1.00  0.00    -0.195 N 
HETATM   13  N11 UNL     1      34.134  -5.170  12.092  1.00  0.00    -0.122 N 
ATOM     14  H11 UNL     1      33.826  -4.504  11.384  1.00  0.00     0.206 HD
ENDROOT
BRANCH  11  15
HETATM   15  S1  UNL     1      35.739  -2.290  12.010  1.00  0.00    -0.083 SA
BRANCH  15  16
HETATM   16  C5  UNL     1      37.285  -1.511  11.603  1.00  0.00     0.160 C 
BRANCH  16  17
HETATM   17  C6  UNL     1      37.443  -0.258  12.393  1.00  0.00     0.107 A 
HETATM   18  N5  UNL     1      38.260   0.036  13.398  1.00  0.00    -0.286 N 
HETATM   19  N6  UNL     1      38.083   1.312  13.777  1.00  0.00    -0.279 N 
ATOM     20  H5  UNL     1      38.926  -0.612  13.820  1.00  0.00     0.188 HD
HETATM   21  C7  UNL     1      37.136   1.806  12.987  1.00  0.00     0.207 A 
ATOM     22  H6  UNL     1      38.576   1.803  14.523  1.00  0.00     0.189 HD
HETATM   23  N9  UNL     1      36.734   0.878  12.145  1.00  0.00    -0.324 N 
ATOM     24  H9  UNL     1      36.015   0.990  11.429  1.00  0.00     0.169 HD
BRANCH  21  25
HETATM   25  C8  UNL     1      36.638   3.199  13.026  1.00  0.00     0.380 C 
HETATM   26  O2  UNL     1      35.473   3.291  13.546  1.00  0.00    -0.246 OA
HETATM   27  N7  UNL     1      37.386   4.207  12.541  1.00  0.00    -0.285 NA
BRANCH  27  28
HETATM   28  N8  UNL     1      38.103   5.175  12.077  1.00  0.00    -0.276 N 
ATOM     29  H82 UNL     1      37.552   4.423  12.493  1.00  0.00     0.191 HD
ATOM     30  H81 UNL     1      38.669   5.939  11.710  1.00  0.00     0.191 HD
ENDBRANCH  27  28
ENDBRANCH  21  25
ENDBRANCH  16  17
ENDBRANCH  15  16
ENDBRANCH  11  15
BRANCH   1  31
HETATM   31  N1  UNL     1      32.561  -6.647  11.371  1.00  0.00    -0.233 N 
ATOM     32  H12 UNL     1      32.140  -7.577  11.395  1.00  0.00     0.174 HD
ATOM     33  H11 UNL     1      32.246  -5.924  10.725  1.00  0.00     0.174 HD
ENDBRANCH   1  31
TORSDOF 6
ENDMDL
MODEL 2
REMARK VINA RESULT: -7.520606639      2.190      8.332
REMARK  6 active torsions:
REMARK  status: ('A' for Active; 'I' for Inactive)
REMARK    1  A    between atoms: N1_1  and  C1_4 
REMARK    2  A    between atoms: C4_14  and  S1_15 
REMARK    3  A    between atoms: S1_15  and  C5_16 
REMARK    4  A    between atoms: C5_16  and  C6_17 
REMARK    5  A    between atoms: C7_22  and  C8_23 
REMARK       I    between atoms: C8_23  and  N7_25 
REMARK    6  A    between atoms: N7_25  and  N8_26 
ROOT
HETATM    1  C1  UNL     1      39.971  -0.081  11.151  1.00  0.00     0.694 A 
HETATM    2  N2  UNL     1      40.496   0.973  11.800  1.00  0.00    -0.152 N 
ATOM      3  H2  UNL     1      41.486   1.203  11.726  1.00  0.00     0.188 HD
HETATM    4  C2  UNL     1      39.654   1.715  12.553  1.00  0.00     0.307 A 
HETATM    5  O1  UNL     1      40.094   2.703  13.176  1.00  0.00    -0.263 OA
HETATM    6  C3  UNL     1      38.311   1.375  12.632  1.00  0.00     0.214 A 
HETATM    7  N3  UNL     1      37.254   1.918  13.292  1.00  0.00    -0.277 N 
ATOM      8  H3  UNL     1      37.286   2.742  13.892  1.00  0.00     0.189 HD
HETATM    9  N4  UNL     1      36.179   1.196  13.024  1.00  0.00    -0.277 N 
ATOM     10  H4  UNL     1      35.243   1.378  13.387  1.00  0.00     0.189 HD
HETATM   11  C4  UNL     1      36.501   0.202  12.214  1.00  0.00     0.183 A 
HETATM   12  N10 UNL     1      37.818   0.317  11.974  1.00  0.00    -0.195 N 
HETATM   13  N11 UNL     1      38.666  -0.402  11.235  1.00  0.00    -0.122 N 
ATOM     14  H11 UNL     1      38.318  -1.213  10.723  1.00  0.00     0.206 HD
ENDROOT
BRANCH  11  15
HETATM   15  S1  UNL     1      35.447  -1.049  11.553  1.00  0.00    -0.083 SA
BRANCH  15  16
HETATM   16  C5  UNL     1      36.255  -2.602  11.240  1.00  0.00     0.160 C 
BRANCH  16  17
HETATM   17  C6  UNL     1      35.642  -3.668  12.080  1.00  0.00     0.107 A 
HETATM   18  N5  UNL     1      35.760  -3.925  13.379  1.00  0.00    -0.286 N 
HETATM   19  N6  UNL     1      34.984  -4.968  13.714  1.00  0.00    -0.279 N 
ATOM     20  H5  UNL     1      36.354  -3.405  14.026  1.00  0.00     0.188 HD
HETATM   21  C7  UNL     1      34.381  -5.356  12.596  1.00  0.00     0.207 A 
ATOM     22  H6  UNL     1      34.880  -5.381  14.641  1.00  0.00     0.189 HD
HETATM   23  N9  UNL     1      34.761  -4.589  11.597  1.00  0.00    -0.324 N 
ATOM     24  H9  UNL     1      34.451  -4.669  10.629  1.00  0.00     0.169 HD
BRANCH  21  25
HETATM   25  C8  UNL     1      33.400  -6.461  12.499  1.00  0.00     0.380 C 
HETATM   26  O2  UNL     1      32.485  -6.232  11.636  1.00  0.00    -0.246 OA
HETATM   27  N7  UNL     1      33.522  -7.554  13.273  1.00  0.00    -0.285 NA
BRANCH  27  28
HETATM   28  N8  UNL     1      33.639  -8.604  14.015  1.00  0.00    -0.276 N 
ATOM     29  H82 UNL     1      33.550  -7.806  13.386  1.00  0.00     0.191 HD
ATOM     30  H81 UNL     1      33.732  -9.433  14.602  1.00  0.00     0.191 HD
ENDBRANCH  27  28
ENDBRANCH  21  25
ENDBRANCH  16  17
ENDBRANCH  15  16
ENDBRANCH  11  15
BRANCH   1  31
HETATM   31  N1  UNL     1      40.754  -0.800  10.424  1.00  0.00    -0.233 N 
ATOM     32  H12 UNL     1      41.687  -0.454  10.199  1.00  0.00     0.174 HD
ATOM     33  H11 UNL     1      40.413  -1.703  10.094  1.00  0.00     0.174 HD
ENDBRANCH   1  31
TORSDOF 6
ENDMDL
MODEL 3
REMARK VINA RESULT: -7.411277539      1.089      1.281
REMARK  6 active torsions:
REMARK  status: ('A' for Active; 'I' for Inactive)
REMARK    1  A    between atoms: N1_1  and  C1_4 
REMARK    2  A    between atoms: C4_14  and  S1_15 
REMARK    3  A    between atoms: S1_15  and  C5_16 
REMARK    4  A    between atoms: C5_16  and  C6_17 
REMARK    5  A    between atoms: C7_22  and  C8_23 
REMARK       I    between atoms: C8_23  and  N7_25 
REMARK    6  A    between atoms: N7_25  and  N8_26 
ROOT
HETATM    1  C1  UNL     1      33.554  -6.316  12.154  1.00  0.00     0.694 A 
HETATM    2  N2  UNL     1      33.835  -7.177  13.147  1.00  0.00    -0.152 N 
ATOM      3  H2  UNL     1      33.287  -8.026  13.286  1.00  0.00     0.188 HD
HETATM    4  C2  UNL     1      34.874  -6.870  13.955  1.00  0.00     0.307 A 
HETATM    5  O1  UNL     1      35.173  -7.637  14.893  1.00  0.00    -0.263 OA
HETATM    6  C3  UNL     1      35.600  -5.706  13.740  1.00  0.00     0.214 A 
HETATM    7  N3  UNL     1      36.666  -5.149  14.370  1.00  0.00    -0.277 N 
ATOM      8  H3  UNL     1      37.149  -5.536  15.181  1.00  0.00     0.189 HD
HETATM    9  N4  UNL     1      36.972  -4.019  13.755  1.00  0.00    -0.277 N 
ATOM     10  H4  UNL     1      37.734  -3.393  14.018  1.00  0.00     0.189 HD
HETATM   11  C4  UNL     1      36.139  -3.822  12.747  1.00  0.00     0.183 A 
HETATM   12  N10 UNL     1      35.295  -4.867  12.741  1.00  0.00    -0.195 N 
HETATM   13  N11 UNL     1      34.265  -5.189  11.955  1.00  0.00    -0.122 N 
ATOM     14  H11 UNL     1      34.010  -4.569  11.186  1.00  0.00     0.206 HD
ENDROOT
BRANCH  11  15
HETATM   15  S1  UNL     1      36.105  -2.474  11.609  1.00  0.00    -0.083 SA
BRANCH  15  16
HETATM   16  C5  UNL     1      37.458  -1.334  11.778  1.00  0.00     0.160 C 
BRANCH  16  17
HETATM   17  C6  UNL     1      36.954  -0.020  12.266  1.00  0.00     0.107 A 
HETATM   18  N5  UNL     1      35.827   0.298  12.893  1.00  0.00    -0.286 N 
HETATM   19  N6  UNL     1      35.815   1.609  13.183  1.00  0.00    -0.279 N 
ATOM     20  H5  UNL     1      35.078  -0.358  13.120  1.00  0.00     0.188 HD
HETATM   21  C7  UNL     1      36.961   2.101  12.724  1.00  0.00     0.207 A 
ATOM     22  H6  UNL     1      35.076   2.124  13.661  1.00  0.00     0.189 HD
HETATM   23  N9  UNL     1      37.664   1.139  12.166  1.00  0.00    -0.324 N 
ATOM     24  H9  UNL     1      38.582   1.242  11.733  1.00  0.00     0.169 HD
BRANCH  21  25
HETATM   25  C8  UNL     1      37.393   3.510  12.854  1.00  0.00     0.380 C 
HETATM   26  O2  UNL     1      38.581   3.703  12.417  1.00  0.00    -0.246 OA
HETATM   27  N7  UNL     1      36.573   4.432  13.389  1.00  0.00    -0.285 NA
BRANCH  27  28
HETATM   28  N8  UNL     1      35.786   5.317  13.903  1.00  0.00    -0.276 N 
ATOM     29  H82 UNL     1      36.450   4.645  13.516  1.00  0.00     0.191 HD
ATOM     30  H81 UNL     1      35.163   6.015  14.307  1.00  0.00     0.191 HD
ENDBRANCH  27  28
ENDBRANCH  21  25
ENDBRANCH  16  17
ENDBRANCH  15  16
ENDBRANCH  11  15
BRANCH   1  31
HETATM   31  N1  UNL     1      32.571  -6.591  11.370  1.00  0.00    -0.233 N 
ATOM     32  H12 UNL     1      31.948  -7.367  11.599  1.00  0.00     0.174 HD
ATOM     33  H11 UNL     1      32.443  -6.017  10.536  1.00  0.00     0.174 HD
ENDBRANCH   1  31
TORSDOF 6
ENDMDL
MODEL 4
REMARK VINA RESULT: -7.381319059      1.158      1.382
REMARK  6 active torsions:
REMARK  status: ('A' for Active; 'I' for Inactive)
REMARK    1  A    between atoms: N1_1  and  C1_4 
REMARK    2  A    between atoms: C4_14  and  S1_15 
REMARK    3  A    between atoms: S1_15  and  C5_16 
REMARK    4  A    between atoms: C5_16  and  C6_17 
REMARK    5  A    between atoms: C7_22  and  C8_23 
REMARK       I    between atoms: C8_23  and  N7_25 
REMARK    6  A    between atoms: N7_25  and  N8_26 
ROOT
HETATM    1  C1  UNL     1      33.573  -6.383  12.157  1.00  0.00     0.694 A 
HETATM    2  N2  UNL     1      33.898  -7.255  13.127  1.00  0.00    -0.152 N 
ATOM      3  H2  UNL     1      33.395  -8.135  13.242  1.00  0.00     0.188 HD
HETATM    4  C2  UNL     1      34.921  -6.917  13.944  1.00  0.00     0.307 A 
HETATM    5  O1  UNL     1      35.259  -7.693  14.861  1.00  0.00    -0.263 OA
HETATM    6  C3  UNL     1      35.585  -5.712  13.761  1.00  0.00     0.214 A 
HETATM    7  N3  UNL     1      36.622  -5.118  14.408  1.00  0.00    -0.277 N 
ATOM      8  H3  UNL     1      37.124  -5.501  15.208  1.00  0.00     0.189 HD
HETATM    9  N4  UNL     1      36.868  -3.957  13.823  1.00  0.00    -0.277 N 
ATOM     10  H4  UNL     1      37.597  -3.301  14.104  1.00  0.00     0.189 HD
HETATM   11  C4  UNL     1      36.026  -3.777  12.820  1.00  0.00     0.183 A 
HETATM   12  N10 UNL     1      35.236  -4.863  12.785  1.00  0.00    -0.195 N 
HETATM   13  N11 UNL     1      34.224  -5.217  11.989  1.00  0.00    -0.122 N 
ATOM     14  H11 UNL     1      33.938  -4.589  11.238  1.00  0.00     0.206 HD
ENDROOT
BRANCH  11  15
HETATM   15  S1  UNL     1      35.921  -2.401  11.719  1.00  0.00    -0.083 SA
BRANCH  15  16
HETATM   16  C5  UNL     1      37.344  -1.336  11.736  1.00  0.00     0.160 C 
BRANCH  16  17
HETATM   17  C6  UNL     1      36.966   0.003  12.269  1.00  0.00     0.107 A 
HETATM   18  N5  UNL     1      35.817   0.446  12.766  1.00  0.00    -0.286 N 
HETATM   19  N6  UNL     1      35.950   1.720  13.169  1.00  0.00    -0.279 N 
ATOM     20  H5  UNL     1      34.959  -0.102  12.833  1.00  0.00     0.188 HD
HETATM   21  C7  UNL     1      37.208   2.061  12.910  1.00  0.00     0.207 A 
ATOM     22  H6  UNL     1      35.230   2.308  13.588  1.00  0.00     0.189 HD
HETATM   23  N9  UNL     1      37.841   1.044  12.367  1.00  0.00    -0.324 N 
ATOM     24  H9  UNL     1      38.817   1.035  12.071  1.00  0.00     0.169 HD
BRANCH  21  25
HETATM   25  C8  UNL     1      37.813   3.376  13.223  1.00  0.00     0.380 C 
HETATM   26  O2  UNL     1      37.656   4.226  12.279  1.00  0.00    -0.246 OA
HETATM   27  N7  UNL     1      38.448   3.577  14.391  1.00  0.00    -0.285 NA
BRANCH  27  28
HETATM   28  N8  UNL     1      39.056   3.771  15.512  1.00  0.00    -0.276 N 
ATOM     29  H82 UNL     1      38.539   3.654  14.641  1.00  0.00     0.191 HD
ATOM     30  H81 UNL     1      39.538   3.924  16.398  1.00  0.00     0.191 HD
ENDBRANCH  27  28
ENDBRANCH  21  25
ENDBRANCH  16  17
ENDBRANCH  15  16
ENDBRANCH  11  15
BRANCH   1  31
HETATM   31  N1  UNL     1      32.604  -6.688  11.365  1.00  0.00    -0.233 N 
ATOM     32  H12 UNL     1      31.903  -7.364  11.667  1.00  0.00     0.174 HD
ATOM     33  H11 UNL     1      32.568  -6.235  10.452  1.00  0.00     0.174 HD
ENDBRANCH   1  31
TORSDOF 6
ENDMDL
MODEL 5
REMARK VINA RESULT: -7.271264894      2.598      7.725
REMARK  6 active torsions:
REMARK  status: ('A' for Active; 'I' for Inactive)
REMARK    1  A    between atoms: N1_1  and  C1_4 
REMARK    2  A    between atoms: C4_14  and  S1_15 
REMARK    3  A    between atoms: S1_15  and  C5_16 
REMARK    4  A    between atoms: C5_16  and  C6_17 
REMARK    5  A    between atoms: C7_22  and  C8_23 
REMARK       I    between atoms: C8_23  and  N7_25 
REMARK    6  A    between atoms: N7_25  and  N8_26 
ROOT
HETATM    1  C1  UNL     1      38.036  -1.716  16.080  1.00  0.00     0.694 A 
HETATM    2  N2  UNL     1      39.192  -1.099  16.381  1.00  0.00    -0.152 N 
ATOM      3  H2  UNL     1      39.659  -1.251  17.274  1.00  0.00     0.188 HD
HETATM    4  C2  UNL     1      39.708  -0.268  15.448  1.00  0.00     0.307 A 
HETATM    5  O1  UNL     1      40.778   0.329  15.680  1.00  0.00    -0.263 OA
HETATM    6  C3  UNL     1      39.047  -0.083  14.241  1.00  0.00     0.214 A 
HETATM    7  N3  UNL     1      39.316   0.669  13.142  1.00  0.00    -0.277 N 
ATOM      8  H3  UNL     1      40.127   1.276  13.019  1.00  0.00     0.189 HD
HETATM    9  N4  UNL     1      38.349   0.481  12.260  1.00  0.00    -0.277 N 
ATOM     10  H4  UNL     1      38.297   0.923  11.342  1.00  0.00     0.189 HD
HETATM   11  C4  UNL     1      37.460  -0.366  12.749  1.00  0.00     0.183 A 
HETATM   12  N10 UNL     1      37.895  -0.712  13.972  1.00  0.00    -0.195 N 
HETATM   13  N11 UNL     1      37.403  -1.528  14.907  1.00  0.00    -0.122 N 
ATOM     14  H11 UNL     1      36.527  -2.021  14.729  1.00  0.00     0.206 HD
ENDROOT
BRANCH  11  15
HETATM   15  S1  UNL     1      35.981  -0.954  11.986  1.00  0.00    -0.083 SA
BRANCH  15  16
HETATM   16  C5  UNL     1      36.150  -2.521  11.164  1.00  0.00     0.160 C 
BRANCH  16  17
HETATM   17  C6  UNL     1      35.578  -3.602  12.014  1.00  0.00     0.107 A 
HETATM   18  N5  UNL     1      35.740  -3.868  13.306  1.00  0.00    -0.286 N 
HETATM   19  N6  UNL     1      34.989  -4.924  13.657  1.00  0.00    -0.279 N 
ATOM     20  H5  UNL     1      36.347  -3.345  13.939  1.00  0.00     0.188 HD
HETATM   21  C7  UNL     1      34.355  -5.311  12.555  1.00  0.00     0.207 A 
ATOM     22  H6  UNL     1      34.919  -5.345  14.583  1.00  0.00     0.189 HD
HETATM   23  N9  UNL     1      34.695  -4.530  11.552  1.00  0.00    -0.324 N 
ATOM     24  H9  UNL     1      34.355  -4.607  10.593  1.00  0.00     0.169 HD
BRANCH  21  25
HETATM   25  C8  UNL     1      33.387  -6.428  12.480  1.00  0.00     0.380 C 
HETATM   26  O2  UNL     1      32.466  -6.223  11.616  1.00  0.00    -0.246 OA
HETATM   27  N7  UNL     1      33.523  -7.506  13.272  1.00  0.00    -0.285 NA
BRANCH  27  28
HETATM   28  N8  UNL     1      33.653  -8.542  14.031  1.00  0.00    -0.276 N 
ATOM     29  H82 UNL     1      33.576  -7.750  13.392  1.00  0.00     0.191 HD
ATOM     30  H81 UNL     1      33.756  -9.360  14.631  1.00  0.00     0.191 HD
ENDBRANCH  27  28
ENDBRANCH  21  25
ENDBRANCH  16  17
ENDBRANCH  15  16
ENDBRANCH  11  15
BRANCH   1  31
HETATM   31  N1  UNL     1      37.528  -2.515  16.953  1.00  0.00    -0.233 N 
ATOM     32  H12 UNL     1      36.762  -2.191  17.545  1.00  0.00     0.174 HD
ATOM     33  H11 UNL     1      37.911  -3.458  17.024  1.00  0.00     0.174 HD
ENDBRANCH   1  31
TORSDOF 6
ENDMDL
