MODEL 1
REMARK VINA RESULT: -6.561193222      0.000      0.000
REMARK  6 active torsions:
REMARK  status: ('A' for Active; 'I' for Inactive)
REMARK    1  A    between atoms: N1_2  and  C2_4 
REMARK    2  A    between atoms: C3_7  and  N3_8 
REMARK    3  A    between atoms: C8_16  and  N5_17 
REMARK    4  A    between atoms: N5_17  and  C9_19 
REMARK    5  A    between atoms: C9_19  and  N6_20 
REMARK    6  A    between atoms: C9_19  and  C10_24 
ROOT
HETATM    1  C2  UNL     1      35.499  -5.879   9.293  1.00  0.00     0.706 A 
HETATM    2  N2  UNL     1      35.928  -4.764   9.912  1.00  0.00    -0.021 N 
ATOM      3  H2  UNL     1      36.528  -4.118   9.399  1.00  0.00     0.203 HD
HETATM    4  C3  UNL     1      35.593  -4.470  11.179  1.00  0.00     0.709 A 
HETATM    5  N4  UNL     1      34.800  -5.350  11.813  1.00  0.00    -0.021 N 
ATOM      6  H4  UNL     1      34.522  -5.163  12.777  1.00  0.00     0.203 HD
HETATM    7  C8  UNL     1      34.359  -6.475  11.210  1.00  0.00     0.709 A 
HETATM    8  N9  UNL     1      34.706  -6.756   9.932  1.00  0.00    -0.021 N 
ATOM      9  H9  UNL     1      34.377  -7.604   9.469  1.00  0.00     0.203 HD
ENDROOT
BRANCH   7  10
HETATM   10  N5  UNL     1      33.593  -7.317  11.835  1.00  0.00    -0.194 N 
ATOM     11  H5  UNL     1      32.764  -7.001  12.339  1.00  0.00     0.180 HD
BRANCH  10  12
HETATM   12  C9  UNL     1      33.954  -8.722  11.795  1.00  0.00     0.317 C 
BRANCH  12  13
HETATM   13  N6  UNL     1      32.831  -9.426  11.223  1.00  0.00    -0.056 N 
ATOM     14  H63 UNL     1      31.933  -8.990  11.433  1.00  0.00     0.276 HD
ATOM     15  H62 UNL     1      32.780  -9.345  10.208  1.00  0.00     0.276 HD
ATOM     16  H61 UNL     1      32.893 -10.392  11.545  1.00  0.00     0.276 HD
ENDBRANCH  12  13
BRANCH  12  17
HETATM   17  C10 UNL     1      34.166  -9.160  13.224  1.00  0.00     0.146 C 
HETATM   18  C11 UNL     1      35.607  -9.317  13.581  1.00  0.00     0.044 C 
HETATM   19  C12 UNL     1      35.566  -9.092  15.100  1.00  0.00     0.132 C 
HETATM   20  N7  UNL     1      34.164  -8.778  15.393  1.00  0.00    -0.148 NA
HETATM   21  N8  UNL     1      33.713  -8.174  14.187  1.00  0.00    -0.140 NA
ENDBRANCH  12  17
ENDBRANCH  10  12
ENDBRANCH   7  10
BRANCH   4  22
HETATM   22  N3  UNL     1      36.072  -3.273  11.795  1.00  0.00    -0.213 N 
HETATM   23  C4  UNL     1      35.517  -2.007  11.422  1.00  0.00     0.167 C 
HETATM   24  C5  UNL     1      36.553  -0.908  11.351  1.00  0.00     0.188 C 
HETATM   25  O1  UNL     1      37.544  -1.047  12.312  1.00  0.00    -0.388 OA
HETATM   26  C6  UNL     1      37.200  -1.873  13.356  1.00  0.00     0.188 C 
HETATM   27  C7  UNL     1      37.119  -3.300  12.799  1.00  0.00     0.167 C 
ENDBRANCH   4  22
BRANCH   1  28
HETATM   28  N1  UNL     1      35.881  -6.144   7.951  1.00  0.00    -0.229 N 
HETATM   29  C1  UNL     1      36.343  -7.441   7.528  1.00  0.00     0.165 C 
ATOM     30  H1  UNL     1      35.827  -5.391   7.265  1.00  0.00     0.177 HD
ENDBRANCH   1  28
TORSDOF 6
ENDMDL
MODEL 2
REMARK VINA RESULT: -6.412753822      2.611      6.499
REMARK  6 active torsions:
REMARK  status: ('A' for Active; 'I' for Inactive)
REMARK    1  A    between atoms: N1_2  and  C2_4 
REMARK    2  A    between atoms: C3_7  and  N3_8 
REMARK    3  A    between atoms: C8_16  and  N5_17 
REMARK    4  A    between atoms: N5_17  and  C9_19 
REMARK    5  A    between atoms: C9_19  and  N6_20 
REMARK    6  A    between atoms: C9_19  and  C10_24 
ROOT
HETATM    1  C2  UNL     1      35.557  -6.080   9.332  1.00  0.00     0.706 A 
HETATM    2  N2  UNL     1      35.201  -7.170  10.034  1.00  0.00    -0.021 N 
ATOM      3  H2  UNL     1      35.182  -8.074   9.562  1.00  0.00     0.203 HD
HETATM    4  C3  UNL     1      34.868  -7.112  11.335  1.00  0.00     0.709 A 
HETATM    5  N4  UNL     1      34.909  -5.900  11.915  1.00  0.00    -0.021 N 
ATOM      6  H4  UNL     1      34.665  -5.814  12.901  1.00  0.00     0.203 HD
HETATM    7  C8  UNL     1      35.264  -4.793  11.228  1.00  0.00     0.709 A 
HETATM    8  N9  UNL     1      35.596  -4.870   9.917  1.00  0.00    -0.021 N 
ATOM      9  H9  UNL     1      35.865  -4.038   9.392  1.00  0.00     0.203 HD
ENDROOT
BRANCH   7  10
HETATM   10  N5  UNL     1      35.298  -3.629  11.801  1.00  0.00    -0.194 N 
ATOM     11  H5  UNL     1      34.549  -2.951  11.659  1.00  0.00     0.180 HD
BRANCH  10  12
HETATM   12  C9  UNL     1      36.435  -3.323  12.648  1.00  0.00     0.317 C 
BRANCH  12  13
HETATM   13  N6  UNL     1      35.911  -3.014  13.957  1.00  0.00    -0.056 N 
ATOM     14  H63 UNL     1      35.614  -3.841  14.476  1.00  0.00     0.276 HD
ATOM     15  H62 UNL     1      36.627  -2.701  14.613  1.00  0.00     0.276 HD
ATOM     16  H61 UNL     1      35.164  -2.334  13.824  1.00  0.00     0.276 HD
ENDBRANCH  12  13
BRANCH  12  17
HETATM   17  C10 UNL     1      37.103  -2.104  12.058  1.00  0.00     0.146 C 
HETATM   18  C11 UNL     1      36.245  -0.883  12.108  1.00  0.00     0.044 C 
HETATM   19  C12 UNL     1      37.304   0.229  12.109  1.00  0.00     0.132 C 
HETATM   20  N7  UNL     1      38.589  -0.479  12.129  1.00  0.00    -0.148 NA
HETATM   21  N8  UNL     1      38.276  -1.689  12.806  1.00  0.00    -0.140 NA
ENDBRANCH  12  17
ENDBRANCH  10  12
ENDBRANCH   7  10
BRANCH   4  22
HETATM   22  N3  UNL     1      34.496  -8.298  12.040  1.00  0.00    -0.213 N 
HETATM   23  C4  UNL     1      34.460  -9.554  11.354  1.00  0.00     0.167 C 
HETATM   24  C5  UNL     1      33.302 -10.426  11.783  1.00  0.00     0.188 C 
HETATM   25  O1  UNL     1      33.004 -10.291  13.132  1.00  0.00    -0.388 OA
HETATM   26  C6  UNL     1      34.019  -9.736  13.876  1.00  0.00     0.188 C 
HETATM   27  C7  UNL     1      34.148  -8.269  13.447  1.00  0.00     0.167 C 
ENDBRANCH   4  22
BRANCH   1  28
HETATM   28  N1  UNL     1      35.900  -6.194   7.959  1.00  0.00    -0.229 N 
HETATM   29  C1  UNL     1      36.397  -7.423   7.394  1.00  0.00     0.165 C 
ATOM     30  H1  UNL     1      35.791  -5.381   7.353  1.00  0.00     0.177 HD
ENDBRANCH   1  28
TORSDOF 6
ENDMDL
MODEL 3
REMARK VINA RESULT: -6.366573461      2.432      6.302
REMARK  6 active torsions:
REMARK  status: ('A' for Active; 'I' for Inactive)
REMARK    1  A    between atoms: N1_2  and  C2_4 
REMARK    2  A    between atoms: C3_7  and  N3_8 
REMARK    3  A    between atoms: C8_16  and  N5_17 
REMARK    4  A    between atoms: N5_17  and  C9_19 
REMARK    5  A    between atoms: C9_19  and  N6_20 
REMARK    6  A    between atoms: C9_19  and  C10_24 
ROOT
HETATM    1  C2  UNL     1      34.048  -8.474  13.189  1.00  0.00     0.706 A 
HETATM    2  N2  UNL     1      34.459  -8.619  11.916  1.00  0.00    -0.021 N 
ATOM      3  H2  UNL     1      34.251  -9.491  11.429  1.00  0.00     0.203 HD
HETATM    4  C3  UNL     1      35.133  -7.658  11.262  1.00  0.00     0.709 A 
HETATM    5  N4  UNL     1      35.383  -6.527  11.944  1.00  0.00    -0.021 N 
ATOM      6  H4  UNL     1      35.891  -5.773  11.483  1.00  0.00     0.203 HD
HETATM    7  C8  UNL     1      34.979  -6.361  13.222  1.00  0.00     0.709 A 
HETATM    8  N9  UNL     1      34.300  -7.340  13.865  1.00  0.00    -0.021 N 
ATOM      9  H9  UNL     1      33.992  -7.222  14.830  1.00  0.00     0.203 HD
ENDROOT
BRANCH   7  10
HETATM   10  N5  UNL     1      35.228  -5.263  13.868  1.00  0.00    -0.194 N 
ATOM     11  H5  UNL     1      34.661  -4.983  14.668  1.00  0.00     0.180 HD
BRANCH  10  12
HETATM   12  C9  UNL     1      36.338  -4.446  13.415  1.00  0.00     0.317 C 
BRANCH  12  13
HETATM   13  N6  UNL     1      37.080  -4.059  14.592  1.00  0.00    -0.056 N 
ATOM     14  H63 UNL     1      37.531  -3.148  14.501  1.00  0.00     0.276 HD
ATOM     15  H62 UNL     1      36.483  -3.829  15.386  1.00  0.00     0.276 HD
ATOM     16  H61 UNL     1      37.737  -4.813  14.789  1.00  0.00     0.276 HD
ENDBRANCH  12  13
BRANCH  12  17
HETATM   17  C10 UNL     1      35.743  -3.226  12.755  1.00  0.00     0.146 C 
HETATM   18  C11 UNL     1      36.725  -2.115  12.582  1.00  0.00     0.044 C 
HETATM   19  C12 UNL     1      36.124  -1.367  11.383  1.00  0.00     0.132 C 
HETATM   20  N7  UNL     1      34.953  -2.161  10.996  1.00  0.00    -0.148 NA
HETATM   21  N8  UNL     1      35.316  -3.477  11.391  1.00  0.00    -0.140 NA
ENDBRANCH  12  17
ENDBRANCH  10  12
ENDBRANCH   7  10
BRANCH   4  22
HETATM   22  N3  UNL     1      35.550  -7.858   9.911  1.00  0.00    -0.213 N 
HETATM   23  C4  UNL     1      35.535  -9.174   9.347  1.00  0.00     0.167 C 
HETATM   24  C5  UNL     1      36.717  -9.440   8.443  1.00  0.00     0.188 C 
HETATM   25  O1  UNL     1      37.107  -8.316   7.730  1.00  0.00    -0.388 OA
HETATM   26  C6  UNL     1      36.148  -7.333   7.667  1.00  0.00     0.188 C 
HETATM   27  C7  UNL     1      35.994  -6.756   9.080  1.00  0.00     0.167 C 
ENDBRANCH   4  22
BRANCH   1  28
HETATM   28  N1  UNL     1      33.337  -9.520  13.835  1.00  0.00    -0.229 N 
HETATM   29  C1  UNL     1      33.909 -10.829  14.027  1.00  0.00     0.165 C 
ATOM     30  H1  UNL     1      32.393  -9.340  14.174  1.00  0.00     0.177 HD
ENDBRANCH   1  28
TORSDOF 6
ENDMDL
MODEL 4
REMARK VINA RESULT: -6.279453699      3.821      6.688
REMARK  6 active torsions:
REMARK  status: ('A' for Active; 'I' for Inactive)
REMARK    1  A    between atoms: N1_2  and  C2_4 
REMARK    2  A    between atoms: C3_7  and  N3_8 
REMARK    3  A    between atoms: C8_16  and  N5_17 
REMARK    4  A    between atoms: N5_17  and  C9_19 
REMARK    5  A    between atoms: C9_19  and  N6_20 
REMARK    6  A    between atoms: C9_19  and  C10_24 
ROOT
HETATM    1  C2  UNL     1      37.461   0.387  13.105  1.00  0.00     0.706 A 
HETATM    2  N2  UNL     1      38.688   0.587  12.593  1.00  0.00    -0.021 N 
ATOM      3  H2  UNL     1      38.987   1.541  12.390  1.00  0.00     0.203 HD
HETATM    4  C3  UNL     1      39.537  -0.424  12.338  1.00  0.00     0.709 A 
HETATM    5  N4  UNL     1      39.100  -1.663  12.622  1.00  0.00    -0.021 N 
ATOM      6  H4  UNL     1      39.714  -2.458  12.444  1.00  0.00     0.203 HD
HETATM    7  C8  UNL     1      37.872  -1.886  13.136  1.00  0.00     0.709 A 
HETATM    8  N9  UNL     1      37.030  -0.855  13.386  1.00  0.00    -0.021 N 
ATOM      9  H9  UNL     1      36.100  -1.015  13.775  1.00  0.00     0.203 HD
ENDROOT
BRANCH   7  10
HETATM   10  N5  UNL     1      37.463  -3.088  13.404  1.00  0.00    -0.194 N 
ATOM     11  H5  UNL     1      38.061  -3.748  13.902  1.00  0.00     0.180 HD
BRANCH  10  12
HETATM   12  C9  UNL     1      36.129  -3.464  12.974  1.00  0.00     0.317 C 
BRANCH  12  13
HETATM   13  N6  UNL     1      35.589  -4.332  13.994  1.00  0.00    -0.056 N 
ATOM     14  H63 UNL     1      35.616  -5.318  13.737  1.00  0.00     0.276 HD
ATOM     15  H62 UNL     1      36.182  -4.397  14.821  1.00  0.00     0.276 HD
ATOM     16  H61 UNL     1      34.649  -3.996  14.200  1.00  0.00     0.276 HD
ENDBRANCH  12  13
BRANCH  12  17
HETATM   17  C10 UNL     1      36.285  -4.223  11.678  1.00  0.00     0.146 C 
HETATM   18  C11 UNL     1      35.965  -5.675  11.808  1.00  0.00     0.044 C 
HETATM   19  C12 UNL     1      35.554  -6.022  10.370  1.00  0.00     0.132 C 
HETATM   20  N7  UNL     1      35.623  -4.749   9.645  1.00  0.00    -0.148 NA
HETATM   21  N8  UNL     1      35.349  -3.789  10.658  1.00  0.00    -0.140 NA
ENDBRANCH  12  17
ENDBRANCH  10  12
ENDBRANCH   7  10
BRANCH   4  22
HETATM   22  N3  UNL     1      40.831  -0.162  11.794  1.00  0.00    -0.213 N 
HETATM   23  C4  UNL     1      41.582   0.968  12.250  1.00  0.00     0.167 C 
HETATM   24  C5  UNL     1      42.341   1.658  11.140  1.00  0.00     0.188 C 
HETATM   25  O1  UNL     1      42.816   0.769  10.186  1.00  0.00    -0.388 OA
HETATM   26  C6  UNL     1      42.864  -0.537  10.613  1.00  0.00     0.188 C 
HETATM   27  C7  UNL     1      41.416  -1.016  10.778  1.00  0.00     0.167 C 
ENDBRANCH   4  22
BRANCH   1  28
HETATM   28  N1  UNL     1      36.602   1.490  13.356  1.00  0.00    -0.229 N 
HETATM   29  C1  UNL     1      37.082   2.848  13.359  1.00  0.00     0.165 C 
ATOM     30  H1  UNL     1      35.615   1.315  13.540  1.00  0.00     0.177 HD
ENDBRANCH   1  28
TORSDOF 6
ENDMDL
MODEL 5
REMARK VINA RESULT: -6.202172431      2.880      5.336
REMARK  6 active torsions:
REMARK  status: ('A' for Active; 'I' for Inactive)
REMARK    1  A    between atoms: N1_2  and  C2_4 
REMARK    2  A    between atoms: C3_7  and  N3_8 
REMARK    3  A    between atoms: C8_16  and  N5_17 
REMARK    4  A    between atoms: N5_17  and  C9_19 
REMARK    5  A    between atoms: C9_19  and  N6_20 
REMARK    6  A    between atoms: C9_19  and  C10_24 
ROOT
HETATM    1  C2  UNL     1      37.598  -2.819  15.014  1.00  0.00     0.706 A 
HETATM    2  N2  UNL     1      37.888  -1.545  14.696  1.00  0.00    -0.021 N 
ATOM      3  H2  UNL     1      38.540  -1.027  15.287  1.00  0.00     0.203 HD
HETATM    4  C3  UNL     1      37.351  -0.928  13.630  1.00  0.00     0.709 A 
HETATM    5  N4  UNL     1      36.499  -1.650  12.882  1.00  0.00    -0.021 N 
ATOM      6  H4  UNL     1      36.071  -1.219  12.063  1.00  0.00     0.203 HD
HETATM    7  C8  UNL     1      36.195  -2.931  13.184  1.00  0.00     0.709 A 
HETATM    8  N9  UNL     1      36.746  -3.536  14.262  1.00  0.00    -0.021 N 
ATOM      9  H9  UNL     1      36.521  -4.504  14.497  1.00  0.00     0.203 HD
ENDROOT
BRANCH   7  10
HETATM   10  N5  UNL     1      35.370  -3.616  12.452  1.00  0.00    -0.194 N 
ATOM     11  H5  UNL     1      34.374  -3.396  12.436  1.00  0.00     0.180 HD
BRANCH  10  12
HETATM   12  C9  UNL     1      35.910  -4.704  11.659  1.00  0.00     0.317 C 
BRANCH  12  13
HETATM   13  N6  UNL     1      35.713  -4.350  10.273  1.00  0.00    -0.056 N 
ATOM     14  H63 UNL     1      35.923  -5.113   9.629  1.00  0.00     0.276 HD
ATOM     15  H62 UNL     1      34.731  -4.236  10.023  1.00  0.00     0.276 HD
ATOM     16  H61 UNL     1      36.271  -3.514  10.100  1.00  0.00     0.276 HD
ENDBRANCH  12  13
BRANCH  12  17
HETATM   17  C10 UNL     1      35.102  -5.934  11.997  1.00  0.00     0.146 C 
HETATM   18  C11 UNL     1      35.648  -6.691  13.162  1.00  0.00     0.044 C 
HETATM   19  C12 UNL     1      34.387  -7.398  13.679  1.00  0.00     0.132 C 
HETATM   20  N7  UNL     1      33.307  -6.914  12.813  1.00  0.00    -0.148 NA
HETATM   21  N8  UNL     1      33.755  -5.619  12.436  1.00  0.00    -0.140 NA
ENDBRANCH  12  17
ENDBRANCH  10  12
ENDBRANCH   7  10
BRANCH   4  22
HETATM   22  N3  UNL     1      37.689   0.427  13.332  1.00  0.00    -0.213 N 
HETATM   23  C4  UNL     1      39.048   0.778  13.047  1.00  0.00     0.167 C 
HETATM   24  C5  UNL     1      39.447   2.112  13.636  1.00  0.00     0.188 C 
HETATM   25  O1  UNL     1      38.409   3.032  13.623  1.00  0.00    -0.388 OA
HETATM   26  C6  UNL     1      37.392   2.717  12.753  1.00  0.00     0.188 C 
HETATM   27  C7  UNL     1      36.686   1.474  13.309  1.00  0.00     0.167 C 
ENDBRANCH   4  22
BRANCH   1  28
HETATM   28  N1  UNL     1      38.194  -3.425  16.153  1.00  0.00    -0.229 N 
HETATM   29  C1  UNL     1      38.632  -2.655  17.289  1.00  0.00     0.165 C 
ATOM     30  H1  UNL     1      38.314  -4.438  16.166  1.00  0.00     0.177 HD
ENDBRANCH   1  28
TORSDOF 6
ENDMDL
