MODEL 1
REMARK VINA RESULT: -4.030358660      0.000      0.000
REMARK  1 active torsions:
REMARK  status: ('A' for Active; 'I' for Inactive)
REMARK    1  A    between atoms: C4_6  and  O2_7 
ROOT
HETATM    1  C1  UNL     1      12.964   0.372  13.362  1.00  0.00     0.043 C 
HETATM    2  C2  UNL     1      11.525  -0.042  13.569  1.00  0.00     0.157 C 
HETATM    3  O1  UNL     1      10.657   0.400  12.642  1.00  0.00    -0.373 OA
HETATM    4  C3  UNL     1      10.412   1.735  12.729  1.00  0.00     0.244 C 
HETATM    5  S1  UNL     1      10.246   1.941  14.550  1.00  0.00    -0.109 SA
HETATM    6  C4  UNL     1      11.063   0.341  14.956  1.00  0.00     0.210 C 
ENDROOT
BRANCH   6   7
HETATM    7  O2  UNL     1      10.131  -0.560  15.426  1.00  0.00    -0.383 OA
ATOM      8  H2  UNL     1       9.906  -0.369  16.329  1.00  0.00     0.211 HD
ENDBRANCH   6   7
TORSDOF 1
ENDMDL
MODEL 2
REMARK VINA RESULT: -3.589057895      1.690      2.007
REMARK  1 active torsions:
REMARK  status: ('A' for Active; 'I' for Inactive)
REMARK    1  A    between atoms: C4_6  and  O2_7 
ROOT
HETATM    1  C1  UNL     1      11.513   0.395  13.759  1.00  0.00     0.043 C 
HETATM    2  C2  UNL     1      10.672   0.566  15.003  1.00  0.00     0.157 C 
HETATM    3  O1  UNL     1       9.416   1.001  14.797  1.00  0.00    -0.373 OA
HETATM    4  C3  UNL     1       9.354   2.309  14.430  1.00  0.00     0.244 C 
HETATM    5  S1  UNL     1      10.580   3.052  15.583  1.00  0.00    -0.109 SA
HETATM    6  C4  UNL     1      11.383   1.449  16.001  1.00  0.00     0.210 C 
ENDROOT
BRANCH   6   7
HETATM    7  O2  UNL     1      11.065   1.082  17.291  1.00  0.00    -0.383 OA
ATOM      8  H2  UNL     1      11.852   0.957  17.809  1.00  0.00     0.211 HD
ENDBRANCH   6   7
TORSDOF 1
ENDMDL
MODEL 3
REMARK VINA RESULT: -3.540573259      8.575      9.253
REMARK  1 active torsions:
REMARK  status: ('A' for Active; 'I' for Inactive)
REMARK    1  A    between atoms: C4_6  and  O2_7 
ROOT
HETATM    1  C1  UNL     1      15.850   1.407  19.213  1.00  0.00     0.043 C 
HETATM    2  C2  UNL     1      17.252   0.944  18.884  1.00  0.00     0.157 C 
HETATM    3  O1  UNL     1      17.450  -0.384  18.946  1.00  0.00    -0.373 OA
HETATM    4  C3  UNL     1      17.460  -0.867  20.217  1.00  0.00     0.244 C 
HETATM    5  S1  UNL     1      18.464   0.417  21.070  1.00  0.00    -0.109 SA
HETATM    6  C4  UNL     1      18.261   1.674  19.740  1.00  0.00     0.210 C 
ENDROOT
BRANCH   6   7
HETATM    7  O2  UNL     1      19.448   1.840  19.060  1.00  0.00    -0.383 OA
ATOM      8  H2  UNL     1      19.949   1.032  19.056  1.00  0.00     0.211 HD
ENDBRANCH   6   7
TORSDOF 1
ENDMDL
MODEL 4
REMARK VINA RESULT: -3.490323008      8.326      8.819
REMARK  1 active torsions:
REMARK  status: ('A' for Active; 'I' for Inactive)
REMARK    1  A    between atoms: C4_6  and  O2_7 
ROOT
HETATM    1  C1  UNL     1      16.910   3.780  20.523  1.00  0.00     0.043 C 
HETATM    2  C2  UNL     1      17.622   3.197  19.324  1.00  0.00     0.157 C 
HETATM    3  O1  UNL     1      16.878   3.079  18.211  1.00  0.00    -0.373 OA
HETATM    4  C3  UNL     1      15.947   2.091  18.289  1.00  0.00     0.244 C 
HETATM    5  S1  UNL     1      16.928   0.750  19.080  1.00  0.00    -0.109 SA
HETATM    6  C4  UNL     1      18.257   1.873  19.682  1.00  0.00     0.210 C 
ENDROOT
BRANCH   6   7
HETATM    7  O2  UNL     1      19.411   1.673  18.955  1.00  0.00    -0.383 OA
ATOM      8  H2  UNL     1      19.649   0.754  18.949  1.00  0.00     0.211 HD
ENDBRANCH   6   7
TORSDOF 1
ENDMDL
MODEL 5
REMARK VINA RESULT: -3.423363526      1.689      2.594
REMARK  1 active torsions:
REMARK  status: ('A' for Active; 'I' for Inactive)
REMARK    1  A    between atoms: C4_6  and  O2_7 
ROOT
HETATM    1  C1  UNL     1      11.241   1.526  16.287  1.00  0.00     0.043 C 
HETATM    2  C2  UNL     1      10.205   0.874  15.399  1.00  0.00     0.157 C 
HETATM    3  O1  UNL     1      10.583  -0.282  14.825  1.00  0.00    -0.373 OA
HETATM    4  C3  UNL     1      11.501  -0.116  13.835  1.00  0.00     0.244 C 
HETATM    5  S1  UNL     1      10.811   1.350  12.963  1.00  0.00    -0.109 SA
HETATM    6  C4  UNL     1       9.716   1.851  14.356  1.00  0.00     0.210 C 
ENDROOT
BRANCH   6   7
HETATM    7  O2  UNL     1       8.399   1.603  14.035  1.00  0.00    -0.383 OA
ATOM      8  H2  UNL     1       7.818   2.140  14.562  1.00  0.00     0.211 HD
ENDBRANCH   6   7
TORSDOF 1
ENDMDL
