MODEL 1
REMARK VINA RESULT: -5.827238894      0.000      0.000
REMARK  5 active torsions:
REMARK  status: ('A' for Active; 'I' for Inactive)
REMARK    1  A    between atoms: C2_2  and  N1_3 
REMARK    2  A    between atoms: N1_3  and  C3_4 
REMARK    3  A    between atoms: N1_3  and  C6_10 
REMARK    4  A    between atoms: C3_4  and  C4_5 
REMARK    5  A    between atoms: C4_5  and  N2_6 
ROOT
HETATM    1  N1  UNL     1      66.528  34.043  71.896  1.00  0.00    -0.382 N 
ENDROOT
BRANCH   1   2
HETATM    2  C2  UNL     1      67.402  34.721  72.769  1.00  0.00     0.118 C 
HETATM    3  C1  UNL     1      67.796  36.111  72.233  1.00  0.00     0.026 C 
ENDBRANCH   1   2
BRANCH   1   4
HETATM    4  C3  UNL     1      67.171  33.325  70.915  1.00  0.00     0.086 C 
BRANCH   4   5
HETATM    5  C4  UNL     1      68.413  32.563  71.323  1.00  0.00     0.276 C 
BRANCH   5   6
HETATM    6  N2  UNL     1      68.087  31.383  72.105  1.00  0.00    -0.075 N 
HETATM    7  C5  UNL     1      69.142  30.412  71.904  1.00  0.00     0.267 C 
ATOM      8  H22 UNL     1      67.926  31.593  73.090  1.00  0.00     0.277 HD
ATOM      9  H21 UNL     1      67.161  31.010  71.893  1.00  0.00     0.277 HD
ENDBRANCH   5   6
ENDBRANCH   4   5
ENDBRANCH   1   4
BRANCH   1  10
HETATM   10  C6  UNL     1      65.180  34.333  71.899  1.00  0.00     0.036 C 
HETATM   11  C7  UNL     1      64.652  35.099  70.712  1.00  0.00     0.036 C 
HETATM   12  C8  UNL     1      63.453  35.884  71.248  1.00  0.00    -0.011 C 
HETATM   13  C9  UNL     1      62.486  34.887  71.782  1.00  0.00     0.010 C 
HETATM   14  C13 UNL     1      64.078  36.401  72.552  1.00  0.00     0.012 C 
HETATM   15  C10 UNL     1      63.313  34.199  72.848  1.00  0.00    -0.005 C 
HETATM   16  C11 UNL     1      64.228  33.182  72.144  1.00  0.00     0.036 C 
HETATM   17  C12 UNL     1      64.551  35.034  73.060  1.00  0.00     0.018 C 
ENDBRANCH   1  10
TORSDOF 5
ENDMDL
MODEL 2
REMARK VINA RESULT: -5.584654556      1.348      3.116
REMARK  5 active torsions:
REMARK  status: ('A' for Active; 'I' for Inactive)
REMARK    1  A    between atoms: C2_2  and  N1_3 
REMARK    2  A    between atoms: N1_3  and  C3_4 
REMARK    3  A    between atoms: N1_3  and  C6_10 
REMARK    4  A    between atoms: C3_4  and  C4_5 
REMARK    5  A    between atoms: C4_5  and  N2_6 
ROOT
HETATM    1  N1  UNL     1      66.741  34.672  71.967  1.00  0.00    -0.382 N 
ENDROOT
BRANCH   1   2
HETATM    2  C2  UNL     1      67.293  33.664  71.152  1.00  0.00     0.118 C 
HETATM    3  C1  UNL     1      67.739  32.435  71.969  1.00  0.00     0.026 C 
ENDBRANCH   1   2
BRANCH   1   4
HETATM    4  C3  UNL     1      67.604  35.146  72.926  1.00  0.00     0.086 C 
BRANCH   4   5
HETATM    5  C4  UNL     1      68.724  36.047  72.456  1.00  0.00     0.276 C 
BRANCH   5   6
HETATM    6  N2  UNL     1      68.216  37.251  71.819  1.00  0.00    -0.075 N 
HETATM    7  C5  UNL     1      68.024  38.251  72.847  1.00  0.00     0.267 C 
ATOM      8  H22 UNL     1      68.811  37.576  71.057  1.00  0.00     0.277 HD
ATOM      9  H21 UNL     1      67.373  37.081  71.270  1.00  0.00     0.277 HD
ENDBRANCH   5   6
ENDBRANCH   4   5
ENDBRANCH   1   4
BRANCH   1  10
HETATM   10  C6  UNL     1      65.384  34.917  71.944  1.00  0.00     0.036 C 
HETATM   11  C7  UNL     1      64.687  34.730  70.619  1.00  0.00     0.036 C 
HETATM   12  C8  UNL     1      63.500  35.695  70.654  1.00  0.00    -0.011 C 
HETATM   13  C9  UNL     1      62.661  35.308  71.821  1.00  0.00     0.010 C 
HETATM   14  C13 UNL     1      64.221  36.928  71.219  1.00  0.00     0.012 C 
HETATM   15  C10 UNL     1      63.637  35.470  72.967  1.00  0.00    -0.005 C 
HETATM   16  C11 UNL     1      64.539  34.225  72.991  1.00  0.00     0.036 C 
HETATM   17  C12 UNL     1      64.833  36.219  72.433  1.00  0.00     0.018 C 
ENDBRANCH   1  10
TORSDOF 5
ENDMDL
MODEL 3
REMARK VINA RESULT: -5.584389973      0.662      1.686
REMARK  5 active torsions:
REMARK  status: ('A' for Active; 'I' for Inactive)
REMARK    1  A    between atoms: C2_2  and  N1_3 
REMARK    2  A    between atoms: N1_3  and  C3_4 
REMARK    3  A    between atoms: N1_3  and  C6_10 
REMARK    4  A    between atoms: C3_4  and  C4_5 
REMARK    5  A    between atoms: C4_5  and  N2_6 
ROOT
HETATM    1  N1  UNL     1      66.640  34.212  71.994  1.00  0.00    -0.382 N 
ENDROOT
BRANCH   1   2
HETATM    2  C2  UNL     1      67.507  34.875  72.885  1.00  0.00     0.118 C 
HETATM    3  C1  UNL     1      67.900  36.277  72.378  1.00  0.00     0.026 C 
ENDBRANCH   1   2
BRANCH   1   4
HETATM    4  C3  UNL     1      67.290  33.519  71.000  1.00  0.00     0.086 C 
BRANCH   4   5
HETATM    5  C4  UNL     1      68.466  32.664  71.415  1.00  0.00     0.276 C 
BRANCH   5   6
HETATM    6  N2  UNL     1      68.040  31.469  72.125  1.00  0.00    -0.075 N 
HETATM    7  C5  UNL     1      69.071  30.466  71.967  1.00  0.00     0.267 C 
ATOM      8  H22 UNL     1      67.812  31.651  73.102  1.00  0.00     0.277 HD
ATOM      9  H21 UNL     1      67.120  31.141  71.830  1.00  0.00     0.277 HD
ENDBRANCH   5   6
ENDBRANCH   4   5
ENDBRANCH   1   4
BRANCH   1  10
HETATM   10  C6  UNL     1      65.291  34.495  71.998  1.00  0.00     0.036 C 
HETATM   11  C7  UNL     1      64.654  34.726  73.346  1.00  0.00     0.036 C 
HETATM   12  C8  UNL     1      63.196  34.296  73.175  1.00  0.00    -0.011 C 
HETATM   13  C9  UNL     1      62.617  35.145  72.099  1.00  0.00     0.010 C 
HETATM   14  C13 UNL     1      63.428  32.985  72.410  1.00  0.00     0.012 C 
HETATM   15  C10 UNL     1      63.513  34.806  70.926  1.00  0.00    -0.005 C 
HETATM   16  C11 UNL     1      64.816  35.607  71.088  1.00  0.00     0.036 C 
HETATM   17  C12 UNL     1      64.316  33.590  71.316  1.00  0.00     0.018 C 
ENDBRANCH   1  10
TORSDOF 5
ENDMDL
MODEL 4
REMARK VINA RESULT: -5.553164749      2.454      7.017
REMARK  5 active torsions:
REMARK  status: ('A' for Active; 'I' for Inactive)
REMARK    1  A    between atoms: C2_2  and  N1_3 
REMARK    2  A    between atoms: N1_3  and  C3_4 
REMARK    3  A    between atoms: N1_3  and  C6_10 
REMARK    4  A    between atoms: C3_4  and  C4_5 
REMARK    5  A    between atoms: C4_5  and  N2_6 
ROOT
HETATM    1  N1  UNL     1      69.943  32.434  71.130  1.00  0.00    -0.382 N 
ENDROOT
BRANCH   1   2
HETATM    2  C2  UNL     1      70.461  33.735  71.285  1.00  0.00     0.118 C 
HETATM    3  C1  UNL     1      71.117  34.257  69.991  1.00  0.00     0.026 C 
ENDBRANCH   1   2
BRANCH   1   4
HETATM    4  C3  UNL     1      68.613  32.404  70.785  1.00  0.00     0.086 C 
BRANCH   4   5
HETATM    5  C4  UNL     1      67.673  33.267  71.598  1.00  0.00     0.276 C 
BRANCH   5   6
HETATM    6  N2  UNL     1      66.529  32.511  72.080  1.00  0.00    -0.075 N 
HETATM    7  C5  UNL     1      65.377  33.387  72.062  1.00  0.00     0.267 C 
ATOM      8  H22 UNL     1      66.377  31.648  71.558  1.00  0.00     0.277 HD
ATOM      9  H21 UNL     1      66.690  32.088  72.994  1.00  0.00     0.277 HD
ENDBRANCH   5   6
ENDBRANCH   4   5
ENDBRANCH   1   4
BRANCH   1  10
HETATM   10  C6  UNL     1      70.664  31.343  71.568  1.00  0.00     0.036 C 
HETATM   11  C7  UNL     1      71.788  31.622  72.535  1.00  0.00     0.036 C 
HETATM   12  C8  UNL     1      72.805  30.504  72.293  1.00  0.00    -0.011 C 
HETATM   13  C9  UNL     1      72.107  29.217  72.558  1.00  0.00     0.010 C 
HETATM   14  C13 UNL     1      72.804  30.518  70.757  1.00  0.00     0.012 C 
HETATM   15  C10 UNL     1      70.979  29.268  71.550  1.00  0.00    -0.005 C 
HETATM   16  C11 UNL     1      69.879  30.176  72.126  1.00  0.00     0.036 C 
HETATM   17  C12 UNL     1      71.285  30.394  70.594  1.00  0.00     0.018 C 
ENDBRANCH   1  10
TORSDOF 5
ENDMDL
MODEL 5
REMARK VINA RESULT: -5.533800386      1.145      2.186
REMARK  5 active torsions:
REMARK  status: ('A' for Active; 'I' for Inactive)
REMARK    1  A    between atoms: C2_2  and  N1_3 
REMARK    2  A    between atoms: N1_3  and  C3_4 
REMARK    3  A    between atoms: N1_3  and  C6_10 
REMARK    4  A    between atoms: C3_4  and  C4_5 
REMARK    5  A    between atoms: C4_5  and  N2_6 
ROOT
HETATM    1  N1  UNL     1      66.473  35.880  72.219  1.00  0.00    -0.382 N 
ENDROOT
BRANCH   1   2
HETATM    2  C2  UNL     1      67.272  37.008  71.943  1.00  0.00     0.118 C 
HETATM    3  C1  UNL     1      68.365  37.220  73.010  1.00  0.00     0.026 C 
ENDBRANCH   1   2
BRANCH   1   4
HETATM    4  C3  UNL     1      67.179  34.806  72.708  1.00  0.00     0.086 C 
BRANCH   4   5
HETATM    5  C4  UNL     1      67.828  33.892  71.692  1.00  0.00     0.276 C 
BRANCH   5   6
HETATM    6  N2  UNL     1      67.602  32.491  72.007  1.00  0.00    -0.075 N 
HETATM    7  C5  UNL     1      68.761  31.744  71.569  1.00  0.00     0.267 C 
ATOM      8  H22 UNL     1      67.381  32.337  72.991  1.00  0.00     0.277 HD
ATOM      9  H21 UNL     1      66.730  32.133  71.616  1.00  0.00     0.277 HD
ENDBRANCH   5   6
ENDBRANCH   4   5
ENDBRANCH   1   4
BRANCH   1  10
HETATM   10  C6  UNL     1      65.174  35.821  71.760  1.00  0.00     0.036 C 
HETATM   11  C7  UNL     1      64.088  35.819  72.808  1.00  0.00     0.036 C 
HETATM   12  C8  UNL     1      62.926  35.052  72.174  1.00  0.00    -0.011 C 
HETATM   13  C9  UNL     1      62.547  35.786  70.935  1.00  0.00     0.010 C 
HETATM   14  C13 UNL     1      63.719  33.879  71.578  1.00  0.00     0.012 C 
HETATM   15  C10 UNL     1      63.837  35.737  70.144  1.00  0.00    -0.005 C 
HETATM   16  C11 UNL     1      64.768  36.826  70.704  1.00  0.00     0.036 C 
HETATM   17  C12 UNL     1      64.741  34.739  70.824  1.00  0.00     0.018 C 
ENDBRANCH   1  10
TORSDOF 5
ENDMDL
