MODEL 1
REMARK VINA RESULT: -7.866997917      0.000      0.000
REMARK  2 active torsions:
REMARK  status: ('A' for Active; 'I' for Inactive)
REMARK    1  A    between atoms: N3_9  and  C5_10 
REMARK    2  A    between atoms: C5_10  and  C6_11 
ROOT
HETATM    1  N1  UNL     1      22.204   2.371  -8.285  1.00  0.00    -0.191 NA
HETATM    2  C1  UNL     1      23.276   2.233  -8.723  1.00  0.00     0.106 C 
HETATM    3  C2  UNL     1      24.586   2.055  -9.264  1.00  0.00     0.128 A 
HETATM    4  C3  UNL     1      24.742   1.342 -10.421  1.00  0.00     0.121 A 
HETATM    5  N2  UNL     1      25.996   1.206 -10.886  1.00  0.00    -0.317 N 
ATOM      6  H2  UNL     1      26.148   0.680 -11.747  1.00  0.00     0.170 HD
HETATM    7  C4  UNL     1      27.064   1.741 -10.250  1.00  0.00     0.329 A 
HETATM    8  O1  UNL     1      28.184   1.543 -10.780  1.00  0.00    -0.246 OA
HETATM    9  N3  UNL     1      26.929   2.449  -9.103  1.00  0.00    -0.261 N 
HETATM   10  C12 UNL     1      25.681   2.602  -8.612  1.00  0.00     0.274 A 
HETATM   11  O2  UNL     1      25.437   3.249  -7.535  1.00  0.00    -0.266 OA
ENDROOT
BRANCH   9  12
HETATM   12  C5  UNL     1      28.034   3.020  -8.405  1.00  0.00     0.175 C 
BRANCH  12  13
HETATM   13  C6  UNL     1      28.495   2.298  -7.204  1.00  0.00    -0.040 A 
HETATM   14  C7  UNL     1      29.263   2.971  -6.280  1.00  0.00     0.009 A 
HETATM   15  C8  UNL     1      29.747   2.389  -5.118  1.00  0.00     0.001 A 
HETATM   16  C9  UNL     1      29.448   1.075  -4.874  1.00  0.00     0.000 A 
HETATM   17  C10 UNL     1      28.678   0.371  -5.785  1.00  0.00     0.001 A 
HETATM   18  C11 UNL     1      28.200   0.978  -6.948  1.00  0.00     0.009 A 
ENDBRANCH  12  13
ENDBRANCH   9  12
TORSDOF 2
ENDMDL
MODEL 2
REMARK VINA RESULT: -7.681198801      1.473      2.111
REMARK  2 active torsions:
REMARK  status: ('A' for Active; 'I' for Inactive)
REMARK    1  A    between atoms: N3_9  and  C5_10 
REMARK    2  A    between atoms: C5_10  and  C6_11 
ROOT
HETATM    1  N1  UNL     1      22.052   2.385  -8.246  1.00  0.00    -0.191 NA
HETATM    2  C1  UNL     1      23.122   2.775  -8.491  1.00  0.00     0.106 C 
HETATM    3  C2  UNL     1      24.431   3.261  -8.797  1.00  0.00     0.128 A 
HETATM    4  C3  UNL     1      24.583   4.550  -9.231  1.00  0.00     0.121 A 
HETATM    5  N2  UNL     1      25.835   4.954  -9.505  1.00  0.00    -0.317 N 
ATOM      6  H2  UNL     1      25.984   5.909  -9.830  1.00  0.00     0.170 HD
HETATM    7  C4  UNL     1      26.905   4.138  -9.364  1.00  0.00     0.329 A 
HETATM    8  O1  UNL     1      28.023   4.630  -9.653  1.00  0.00    -0.246 OA
HETATM    9  N3  UNL     1      26.774   2.859  -8.936  1.00  0.00    -0.261 N 
HETATM   10  C12 UNL     1      25.528   2.425  -8.654  1.00  0.00     0.274 A 
HETATM   11  O2  UNL     1      25.287   1.236  -8.246  1.00  0.00    -0.266 OA
ENDROOT
BRANCH   9  12
HETATM   12  C5  UNL     1      27.880   1.971  -8.783  1.00  0.00     0.175 C 
BRANCH  12  13
HETATM   13  C6  UNL     1      28.466   1.879  -7.433  1.00  0.00    -0.040 A 
HETATM   14  C7  UNL     1      28.317   0.708  -6.724  1.00  0.00     0.009 A 
HETATM   15  C8  UNL     1      28.827   0.515  -5.449  1.00  0.00     0.001 A 
HETATM   16  C9  UNL     1      29.516   1.542  -4.859  1.00  0.00     0.000 A 
HETATM   17  C10 UNL     1      29.682   2.733  -5.547  1.00  0.00     0.001 A 
HETATM   18  C11 UNL     1      29.160   2.905  -6.831  1.00  0.00     0.009 A 
ENDBRANCH  12  13
ENDBRANCH   9  12
TORSDOF 2
ENDMDL
MODEL 3
REMARK VINA RESULT: -7.602672906      1.431      2.374
REMARK  2 active torsions:
REMARK  status: ('A' for Active; 'I' for Inactive)
REMARK    1  A    between atoms: N3_9  and  C5_10 
REMARK    2  A    between atoms: C5_10  and  C6_11 
ROOT
HETATM    1  N1  UNL     1      23.007   0.985 -10.976  1.00  0.00    -0.191 NA
HETATM    2  C1  UNL     1      23.626   1.685 -10.281  1.00  0.00     0.106 C 
HETATM    3  C2  UNL     1      24.379   2.551  -9.429  1.00  0.00     0.128 A 
HETATM    4  C3  UNL     1      23.730   3.530  -8.727  1.00  0.00     0.121 A 
HETATM    5  N2  UNL     1      24.487   4.316  -7.941  1.00  0.00    -0.317 N 
ATOM      6  H2  UNL     1      24.035   5.056  -7.404  1.00  0.00     0.170 HD
HETATM    7  C4  UNL     1      25.827   4.160  -7.839  1.00  0.00     0.329 A 
HETATM    8  O1  UNL     1      26.424   4.957  -7.075  1.00  0.00    -0.246 OA
HETATM    9  N3  UNL     1      26.486   3.196  -8.526  1.00  0.00    -0.261 N 
HETATM   10  C12 UNL     1      25.753   2.392  -9.324  1.00  0.00     0.274 A 
HETATM   11  O2  UNL     1      26.271   1.452 -10.021  1.00  0.00    -0.266 OA
ENDROOT
BRANCH   9  12
HETATM   12  C5  UNL     1      27.898   3.009  -8.446  1.00  0.00     0.175 C 
BRANCH  12  13
HETATM   13  C6  UNL     1      28.399   2.300  -7.254  1.00  0.00    -0.040 A 
HETATM   14  C7  UNL     1      29.215   2.977  -6.374  1.00  0.00     0.009 A 
HETATM   15  C8  UNL     1      29.740   2.407  -5.224  1.00  0.00     0.001 A 
HETATM   16  C9  UNL     1      29.434   1.102  -4.944  1.00  0.00     0.000 A 
HETATM   17  C10 UNL     1      28.616   0.395  -5.810  1.00  0.00     0.001 A 
HETATM   18  C11 UNL     1      28.097   0.989  -6.962  1.00  0.00     0.009 A 
ENDBRANCH  12  13
ENDBRANCH   9  12
TORSDOF 2
ENDMDL
MODEL 4
REMARK VINA RESULT: -7.511758030      1.264      1.312
REMARK  2 active torsions:
REMARK  status: ('A' for Active; 'I' for Inactive)
REMARK    1  A    between atoms: N3_9  and  C5_10 
REMARK    2  A    between atoms: C5_10  and  C6_11 
ROOT
HETATM    1  N1  UNL     1      23.047   5.365  -7.924  1.00  0.00    -0.191 NA
HETATM    2  C1  UNL     1      23.760   4.547  -8.350  1.00  0.00     0.106 C 
HETATM    3  C2  UNL     1      24.627   3.539  -8.874  1.00  0.00     0.128 A 
HETATM    4  C3  UNL     1      24.107   2.561  -9.677  1.00  0.00     0.121 A 
HETATM    5  N2  UNL     1      24.966   1.637 -10.142  1.00  0.00    -0.317 N 
ATOM      6  H2  UNL     1      24.612   0.893 -10.743  1.00  0.00     0.170 HD
HETATM    7  C4  UNL     1      26.285   1.660  -9.839  1.00  0.00     0.329 A 
HETATM    8  O1  UNL     1      26.985   0.742 -10.331  1.00  0.00    -0.246 OA
HETATM    9  N3  UNL     1      26.817   2.621  -9.045  1.00  0.00    -0.261 N 
HETATM   10  C12 UNL     1      25.978   3.561  -8.563  1.00  0.00     0.274 A 
HETATM   11  O2  UNL     1      26.371   4.512  -7.802  1.00  0.00    -0.266 OA
ENDROOT
BRANCH   9  12
HETATM   12  C5  UNL     1      28.200   2.669  -8.701  1.00  0.00     0.175 C 
BRANCH  12  13
HETATM   13  C6  UNL     1      28.567   2.121  -7.382  1.00  0.00    -0.040 A 
HETATM   14  C7  UNL     1      29.270   2.917  -6.505  1.00  0.00     0.009 A 
HETATM   15  C8  UNL     1      29.665   2.502  -5.242  1.00  0.00     0.001 A 
HETATM   16  C9  UNL     1      29.340   1.234  -4.841  1.00  0.00     0.000 A 
HETATM   17  C10 UNL     1      28.633   0.408  -5.701  1.00  0.00     0.001 A 
HETATM   18  C11 UNL     1      28.246   0.848  -6.968  1.00  0.00     0.009 A 
ENDBRANCH  12  13
ENDBRANCH   9  12
TORSDOF 2
ENDMDL
MODEL 5
REMARK VINA RESULT: -7.279347561      2.132      2.892
REMARK  2 active torsions:
REMARK  status: ('A' for Active; 'I' for Inactive)
REMARK    1  A    between atoms: N3_9  and  C5_10 
REMARK    2  A    between atoms: C5_10  and  C6_11 
ROOT
HETATM    1  N1  UNL     1      25.966   7.316 -10.019  1.00  0.00    -0.191 NA
HETATM    2  C1  UNL     1      25.852   6.221  -9.637  1.00  0.00     0.106 C 
HETATM    3  C2  UNL     1      25.705   4.881  -9.163  1.00  0.00     0.128 A 
HETATM    4  C3  UNL     1      24.468   4.436  -8.785  1.00  0.00     0.121 A 
HETATM    5  N2  UNL     1      24.387   3.168  -8.347  1.00  0.00    -0.317 N 
ATOM      6  H2  UNL     1      23.479   2.804  -8.057  1.00  0.00     0.170 HD
HETATM    7  C4  UNL     1      25.469   2.358  -8.276  1.00  0.00     0.329 A 
HETATM    8  O1  UNL     1      25.266   1.195  -7.848  1.00  0.00    -0.246 OA
HETATM    9  N3  UNL     1      26.701   2.781  -8.645  1.00  0.00    -0.261 N 
HETATM   10  C12 UNL     1      26.814   4.051  -9.089  1.00  0.00     0.274 A 
HETATM   11  O2  UNL     1      27.929   4.556  -9.460  1.00  0.00    -0.266 OA
ENDROOT
BRANCH   9  12
HETATM   12  C5  UNL     1      27.862   1.955  -8.576  1.00  0.00     0.175 C 
BRANCH  12  13
HETATM   13  C6  UNL     1      28.465   1.781  -7.241  1.00  0.00    -0.040 A 
HETATM   14  C7  UNL     1      29.167   2.829  -6.690  1.00  0.00     0.009 A 
HETATM   15  C8  UNL     1      29.773   2.773  -5.443  1.00  0.00     0.001 A 
HETATM   16  C9  UNL     1      29.668   1.616  -4.719  1.00  0.00     0.000 A 
HETATM   17  C10 UNL     1      28.968   0.544  -5.247  1.00  0.00     0.001 A 
HETATM   18  C11 UNL     1      28.366   0.623  -6.504  1.00  0.00     0.009 A 
ENDBRANCH  12  13
ENDBRANCH   9  12
TORSDOF 2
ENDMDL
