MODEL 1
REMARK VINA RESULT: -7.441724478      0.000      0.000
REMARK  12 active torsions:
REMARK  status: ('A' for Active; 'I' for Inactive)
REMARK    1  A    between atoms: C2_2  and  C3_3 
REMARK    2  A    between atoms: C3_3  and  N1_4 
REMARK    3  A    between atoms: N1_4  and  C4_5 
REMARK    4  A    between atoms: N1_4  and  C6_9 
REMARK    5  A    between atoms: C4_5  and  C5_6 
REMARK    6  A    between atoms: C5_6  and  O1_7 
REMARK    7  A    between atoms: C6_9  and  C7_10 
REMARK    8  A    between atoms: C7_10  and  C8_11 
REMARK    9  A    between atoms: C8_11  and  C9_12 
REMARK   10  A    between atoms: C9_12  and  C10_13 
REMARK   11  A    between atoms: C10_13  and  N2_14 
REMARK   12  A    between atoms: C12_20  and  N5_21 
ROOT
HETATM    1  N2  UNL     1      -9.445  46.173  55.999  1.00  0.00    -0.287 N 
HETATM    2  N3  UNL     1      -8.306  45.547  55.878  1.00  0.00    -0.282 N 
ATOM      3  H3  UNL     1      -7.393  45.979  56.023  1.00  0.00     0.189 HD
HETATM    4  C11 UNL     1      -8.490  44.264  55.541  1.00  0.00     0.150 A 
HETATM    5  N4  UNL     1      -7.657  43.244  55.279  1.00  0.00    -0.175 N 
ATOM      6  H4  UNL     1      -6.650  43.391  55.357  1.00  0.00     0.186 HD
HETATM    7  C12 UNL     1      -8.118  42.036  54.916  1.00  0.00     0.677 A 
HETATM    8  N6  UNL     1      -9.440  41.846  54.811  1.00  0.00    -0.195 N 
ATOM      9  H6  UNL     1      -9.783  40.927  54.533  1.00  0.00     0.184 HD
HETATM   10  C13 UNL     1     -10.348  42.836  55.062  1.00  0.00     0.039 A 
HETATM   11  C14 UNL     1     -11.791  42.573  54.811  1.00  0.00     0.070 C 
HETATM   12  C15 UNL     1      -9.855  44.065  55.440  1.00  0.00     0.063 A 
HETATM   13  C16 UNL     1     -10.460  45.271  55.736  1.00  0.00     0.093 A 
HETATM   14  C17 UNL     1     -11.852  45.581  55.988  1.00  0.00     0.061 A 
HETATM   15  C18 UNL     1     -12.585  44.871  56.901  1.00  0.00     0.032 A 
HETATM   16  C19 UNL     1     -13.866  45.263  57.267  1.00  0.00     0.004 A 
HETATM   17  C20 UNL     1     -14.425  46.390  56.708  1.00  0.00     0.017 A 
HETATM   18  C21 UNL     1     -13.652  47.075  55.796  1.00  0.00     0.088 A 
HETATM   19  N7  UNL     1     -12.431  46.674  55.467  1.00  0.00    -0.364 N 
ATOM     20  H7  UNL     1     -11.908  47.222  54.785  1.00  0.00     0.165 HD
ENDROOT
BRANCH   1  21
HETATM   21  C10 UNL     1      -9.590  47.559  56.306  1.00  0.00     0.149 C 
BRANCH  21  22
HETATM   22  C9  UNL     1      -8.249  48.179  56.515  1.00  0.00     0.022 C 
BRANCH  22  23
HETATM   23  C8  UNL     1      -8.147  48.886  57.889  1.00  0.00     0.003 C 
BRANCH  23  24
HETATM   24  C7  UNL     1      -7.960  50.321  57.602  1.00  0.00     0.030 C 
BRANCH  24  25
HETATM   25  C6  UNL     1      -6.849  50.794  56.768  1.00  0.00     0.272 C 
BRANCH  25  26
HETATM   26  N1  UNL     1      -7.108  51.787  55.753  1.00  0.00     0.090 N 
BRANCH  26  27
HETATM   27  C3  UNL     1      -6.255  52.917  55.942  1.00  0.00     0.272 C 
BRANCH  27  28
HETATM   28  C2  UNL     1      -5.069  52.809  56.810  1.00  0.00     0.026 C 
HETATM   29  C1  UNL     1      -3.758  52.712  56.061  1.00  0.00     0.007 C 
ENDBRANCH  27  28
ENDBRANCH  26  27
BRANCH  26  30
HETATM   30  C4  UNL     1      -7.063  51.212  54.463  1.00  0.00     0.298 C 
BRANCH  30  31
HETATM   31  C5  UNL     1      -8.302  50.725  53.819  1.00  0.00     0.194 C 
BRANCH  31  32
HETATM   32  O1  UNL     1      -8.657  51.634  52.772  1.00  0.00    -0.399 OA
ATOM     33  H1  UNL     1      -8.923  51.129  52.013  1.00  0.00     0.209 HD
ENDBRANCH  31  32
ENDBRANCH  30  31
ENDBRANCH  26  30
ENDBRANCH  25  26
ENDBRANCH  24  25
ENDBRANCH  23  24
ENDBRANCH  22  23
ENDBRANCH  21  22
ENDBRANCH   1  21
BRANCH   7  34
HETATM   34  N5  UNL     1      -7.275  41.068  54.669  1.00  0.00    -0.234 N 
ATOM     35  H52 UNL     1      -6.269  41.236  54.657  1.00  0.00     0.174 HD
ATOM     36  H51 UNL     1      -7.624  40.127  54.485  1.00  0.00     0.174 HD
ENDBRANCH   7  34
TORSDOF 12
ENDMDL
MODEL 2
REMARK VINA RESULT: -7.353993532      1.398      1.801
REMARK  12 active torsions:
REMARK  status: ('A' for Active; 'I' for Inactive)
REMARK    1  A    between atoms: C2_2  and  C3_3 
REMARK    2  A    between atoms: C3_3  and  N1_4 
REMARK    3  A    between atoms: N1_4  and  C4_5 
REMARK    4  A    between atoms: N1_4  and  C6_9 
REMARK    5  A    between atoms: C4_5  and  C5_6 
REMARK    6  A    between atoms: C5_6  and  O1_7 
REMARK    7  A    between atoms: C6_9  and  C7_10 
REMARK    8  A    between atoms: C7_10  and  C8_11 
REMARK    9  A    between atoms: C8_11  and  C9_12 
REMARK   10  A    between atoms: C9_12  and  C10_13 
REMARK   11  A    between atoms: C10_13  and  N2_14 
REMARK   12  A    between atoms: C12_20  and  N5_21 
ROOT
HETATM    1  N2  UNL     1      -8.406  47.205  55.878  1.00  0.00    -0.287 N 
HETATM    2  N3  UNL     1      -7.151  47.085  55.539  1.00  0.00    -0.282 N 
ATOM      3  H3  UNL     1      -6.488  47.860  55.499  1.00  0.00     0.189 HD
HETATM    4  C11 UNL     1      -6.845  45.813  55.251  1.00  0.00     0.150 A 
HETATM    5  N4  UNL     1      -5.726  45.199  54.837  1.00  0.00    -0.175 N 
ATOM      6  H4  UNL     1      -4.873  45.746  54.715  1.00  0.00     0.186 HD
HETATM    7  C12 UNL     1      -5.702  43.880  54.578  1.00  0.00     0.677 A 
HETATM    8  N6  UNL     1      -6.824  43.164  54.736  1.00  0.00    -0.195 N 
ATOM      9  H6  UNL     1      -6.800  42.165  54.536  1.00  0.00     0.184 HD
HETATM   10  C13 UNL     1      -7.999  43.721  55.156  1.00  0.00     0.039 A 
HETATM   11  C14 UNL     1      -9.225  42.877  55.195  1.00  0.00     0.070 C 
HETATM   12  C15 UNL     1      -8.000  45.071  55.422  1.00  0.00     0.063 A 
HETATM   13  C16 UNL     1      -8.987  45.951  55.825  1.00  0.00     0.093 A 
HETATM   14  C17 UNL     1     -10.313  45.693  56.344  1.00  0.00     0.061 A 
HETATM   15  C18 UNL     1     -10.513  44.828  57.387  1.00  0.00     0.032 A 
HETATM   16  C19 UNL     1     -11.755  44.699  57.996  1.00  0.00     0.004 A 
HETATM   17  C20 UNL     1     -12.819  45.451  57.551  1.00  0.00     0.017 A 
HETATM   18  C21 UNL     1     -12.573  46.309  56.501  1.00  0.00     0.088 A 
HETATM   19  N7  UNL     1     -11.375  46.408  55.941  1.00  0.00    -0.364 N 
ATOM     20  H7  UNL     1     -11.254  47.060  55.167  1.00  0.00     0.165 HD
ENDROOT
BRANCH   1  21
HETATM   21  C10 UNL     1      -9.054  48.435  56.200  1.00  0.00     0.149 C 
BRANCH  21  22
HETATM   22  C9  UNL     1      -9.112  48.610  57.680  1.00  0.00     0.022 C 
BRANCH  22  23
HETATM   23  C8  UNL     1      -7.806  49.226  58.241  1.00  0.00     0.003 C 
BRANCH  23  24
HETATM   24  C7  UNL     1      -7.735  50.600  57.706  1.00  0.00     0.030 C 
BRANCH  24  25
HETATM   25  C6  UNL     1      -6.666  51.006  56.786  1.00  0.00     0.272 C 
BRANCH  25  26
HETATM   26  N1  UNL     1      -6.953  51.987  55.768  1.00  0.00     0.090 N 
BRANCH  26  27
HETATM   27  C3  UNL     1      -6.105  53.125  55.929  1.00  0.00     0.272 C 
BRANCH  27  28
HETATM   28  C2  UNL     1      -4.969  53.072  56.866  1.00  0.00     0.026 C 
HETATM   29  C1  UNL     1      -3.614  53.008  56.196  1.00  0.00     0.007 C 
ENDBRANCH  27  28
ENDBRANCH  26  27
BRANCH  26  30
HETATM   30  C4  UNL     1      -6.930  51.401  54.482  1.00  0.00     0.298 C 
BRANCH  30  31
HETATM   31  C5  UNL     1      -8.161  50.819  53.905  1.00  0.00     0.194 C 
BRANCH  31  32
HETATM   32  O1  UNL     1      -8.556  51.616  52.784  1.00  0.00    -0.399 OA
ATOM     33  H1  UNL     1      -9.396  51.300  52.471  1.00  0.00     0.209 HD
ENDBRANCH  31  32
ENDBRANCH  30  31
ENDBRANCH  26  30
ENDBRANCH  25  26
ENDBRANCH  24  25
ENDBRANCH  23  24
ENDBRANCH  22  23
ENDBRANCH  21  22
ENDBRANCH   1  21
BRANCH   7  34
HETATM   34  N5  UNL     1      -4.593  43.319  54.175  1.00  0.00    -0.234 N 
ATOM     35  H52 UNL     1      -3.797  43.881  53.875  1.00  0.00     0.174 HD
ATOM     36  H51 UNL     1      -4.518  42.301  54.161  1.00  0.00     0.174 HD
ENDBRANCH   7  34
TORSDOF 12
ENDMDL
MODEL 3
REMARK VINA RESULT: -7.200167778      1.295      2.127
REMARK  12 active torsions:
REMARK  status: ('A' for Active; 'I' for Inactive)
REMARK    1  A    between atoms: C2_2  and  C3_3 
REMARK    2  A    between atoms: C3_3  and  N1_4 
REMARK    3  A    between atoms: N1_4  and  C4_5 
REMARK    4  A    between atoms: N1_4  and  C6_9 
REMARK    5  A    between atoms: C4_5  and  C5_6 
REMARK    6  A    between atoms: C5_6  and  O1_7 
REMARK    7  A    between atoms: C6_9  and  C7_10 
REMARK    8  A    between atoms: C7_10  and  C8_11 
REMARK    9  A    between atoms: C8_11  and  C9_12 
REMARK   10  A    between atoms: C9_12  and  C10_13 
REMARK   11  A    between atoms: C10_13  and  N2_14 
REMARK   12  A    between atoms: C12_20  and  N5_21 
ROOT
HETATM    1  N2  UNL     1      -9.158  45.989  55.851  1.00  0.00    -0.287 N 
HETATM    2  N3  UNL     1      -8.046  45.322  55.705  1.00  0.00    -0.282 N 
ATOM      3  H3  UNL     1      -7.115  45.728  55.796  1.00  0.00     0.189 HD
HETATM    4  C11 UNL     1      -8.285  44.036  55.418  1.00  0.00     0.150 A 
HETATM    5  N4  UNL     1      -7.497  42.981  55.157  1.00  0.00    -0.175 N 
ATOM      6  H4  UNL     1      -6.483  43.096  55.188  1.00  0.00     0.186 HD
HETATM    7  C12 UNL     1      -8.011  41.777  54.854  1.00  0.00     0.677 A 
HETATM    8  N6  UNL     1      -9.342  41.628  54.811  1.00  0.00    -0.195 N 
ATOM      9  H6  UNL     1      -9.726  40.712  54.579  1.00  0.00     0.184 HD
HETATM   10  C13 UNL     1     -10.206  42.655  55.066  1.00  0.00     0.039 A 
HETATM   11  C14 UNL     1     -11.667  42.433  54.884  1.00  0.00     0.070 C 
HETATM   12  C15 UNL     1      -9.659  43.878  55.381  1.00  0.00     0.063 A 
HETATM   13  C16 UNL     1     -10.213  45.113  55.662  1.00  0.00     0.093 A 
HETATM   14  C17 UNL     1     -11.581  45.477  55.961  1.00  0.00     0.061 A 
HETATM   15  C18 UNL     1     -12.297  44.821  56.927  1.00  0.00     0.032 A 
HETATM   16  C19 UNL     1     -13.548  45.267  57.333  1.00  0.00     0.004 A 
HETATM   17  C20 UNL     1     -14.095  46.394  56.760  1.00  0.00     0.017 A 
HETATM   18  C21 UNL     1     -13.340  47.023  55.793  1.00  0.00     0.088 A 
HETATM   19  N7  UNL     1     -12.148  46.571  55.428  1.00  0.00    -0.364 N 
ATOM     20  H7  UNL     1     -11.637  47.079  54.707  1.00  0.00     0.165 HD
ENDROOT
BRANCH   1  21
HETATM   21  C10 UNL     1      -9.246  47.388  56.117  1.00  0.00     0.149 C 
BRANCH  21  22
HETATM   22  C9  UNL     1      -7.990  48.069  55.688  1.00  0.00     0.022 C 
BRANCH  22  23
HETATM   23  C8  UNL     1      -8.238  49.546  55.296  1.00  0.00     0.003 C 
BRANCH  23  24
HETATM   24  C7  UNL     1      -6.905  50.164  55.148  1.00  0.00     0.030 C 
BRANCH  24  25
HETATM   25  C6  UNL     1      -6.548  51.391  55.870  1.00  0.00     0.272 C 
BRANCH  25  26
HETATM   26  N1  UNL     1      -7.166  51.657  57.147  1.00  0.00     0.090 N 
BRANCH  26  27
HETATM   27  C3  UNL     1      -6.476  50.955  58.182  1.00  0.00     0.272 C 
BRANCH  27  28
HETATM   28  C2  UNL     1      -7.140  49.847  58.891  1.00  0.00     0.026 C 
HETATM   29  C1  UNL     1      -8.644  49.979  58.982  1.00  0.00     0.007 C 
ENDBRANCH  27  28
ENDBRANCH  26  27
BRANCH  26  30
HETATM   30  C4  UNL     1      -7.308  53.047  57.358  1.00  0.00     0.298 C 
BRANCH  30  31
HETATM   31  C5  UNL     1      -7.271  53.983  56.213  1.00  0.00     0.194 C 
BRANCH  31  32
HETATM   32  O1  UNL     1      -8.614  54.216  55.775  1.00  0.00    -0.399 OA
ATOM     33  H1  UNL     1      -9.117  54.546  56.510  1.00  0.00     0.209 HD
ENDBRANCH  31  32
ENDBRANCH  30  31
ENDBRANCH  26  30
ENDBRANCH  25  26
ENDBRANCH  24  25
ENDBRANCH  23  24
ENDBRANCH  22  23
ENDBRANCH  21  22
ENDBRANCH   1  21
BRANCH   7  34
HETATM   34  N5  UNL     1      -7.211  40.775  54.605  1.00  0.00    -0.234 N 
ATOM     35  H52 UNL     1      -6.371  40.898  54.039  1.00  0.00     0.174 HD
ATOM     36  H51 UNL     1      -7.424  39.851  54.982  1.00  0.00     0.174 HD
ENDBRANCH   7  34
TORSDOF 12
ENDMDL
MODEL 4
REMARK VINA RESULT: -7.153678385      2.064      2.960
REMARK  12 active torsions:
REMARK  status: ('A' for Active; 'I' for Inactive)
REMARK    1  A    between atoms: C2_2  and  C3_3 
REMARK    2  A    between atoms: C3_3  and  N1_4 
REMARK    3  A    between atoms: N1_4  and  C4_5 
REMARK    4  A    between atoms: N1_4  and  C6_9 
REMARK    5  A    between atoms: C4_5  and  C5_6 
REMARK    6  A    between atoms: C5_6  and  O1_7 
REMARK    7  A    between atoms: C6_9  and  C7_10 
REMARK    8  A    between atoms: C7_10  and  C8_11 
REMARK    9  A    between atoms: C8_11  and  C9_12 
REMARK   10  A    between atoms: C9_12  and  C10_13 
REMARK   11  A    between atoms: C10_13  and  N2_14 
REMARK   12  A    between atoms: C12_20  and  N5_21 
ROOT
HETATM    1  N2  UNL     1      -8.105  47.134  55.780  1.00  0.00    -0.287 N 
HETATM    2  N3  UNL     1      -6.854  47.010  55.429  1.00  0.00    -0.282 N 
ATOM      3  H3  UNL     1      -6.192  47.784  55.375  1.00  0.00     0.189 HD
HETATM    4  C11 UNL     1      -6.552  45.735  55.150  1.00  0.00     0.150 A 
HETATM    5  N4  UNL     1      -5.437  45.116  54.730  1.00  0.00    -0.175 N 
ATOM      6  H4  UNL     1      -4.585  45.662  54.594  1.00  0.00     0.186 HD
HETATM    7  C12 UNL     1      -5.418  43.796  54.483  1.00  0.00     0.677 A 
HETATM    8  N6  UNL     1      -6.538  43.082  54.659  1.00  0.00    -0.195 N 
ATOM      9  H6  UNL     1      -6.516  42.080  54.468  1.00  0.00     0.184 HD
HETATM   10  C13 UNL     1      -7.709  43.643  55.085  1.00  0.00     0.039 A 
HETATM   11  C14 UNL     1      -8.934  42.800  55.145  1.00  0.00     0.070 C 
HETATM   12  C15 UNL     1      -7.706  44.996  55.340  1.00  0.00     0.063 A 
HETATM   13  C16 UNL     1      -8.688  45.880  55.744  1.00  0.00     0.093 A 
HETATM   14  C17 UNL     1     -10.009  45.627  56.279  1.00  0.00     0.061 A 
HETATM   15  C18 UNL     1     -10.199  44.773  57.332  1.00  0.00     0.032 A 
HETATM   16  C19 UNL     1     -11.434  44.650  57.955  1.00  0.00     0.004 A 
HETATM   17  C20 UNL     1     -12.503  45.399  57.514  1.00  0.00     0.017 A 
HETATM   18  C21 UNL     1     -12.266  46.247  56.454  1.00  0.00     0.088 A 
HETATM   19  N7  UNL     1     -11.074  46.340  55.881  1.00  0.00    -0.364 N 
ATOM     20  H7  UNL     1     -10.961  46.985  55.099  1.00  0.00     0.165 HD
ENDROOT
BRANCH   1  21
HETATM   21  C10 UNL     1      -8.749  48.368  56.097  1.00  0.00     0.149 C 
BRANCH  21  22
HETATM   22  C9  UNL     1      -7.788  49.499  55.946  1.00  0.00     0.022 C 
BRANCH  22  23
HETATM   23  C8  UNL     1      -8.014  50.277  54.626  1.00  0.00     0.003 C 
BRANCH  23  24
HETATM   24  C7  UNL     1      -7.023  51.371  54.617  1.00  0.00     0.030 C 
BRANCH  24  25
HETATM   25  C6  UNL     1      -7.029  52.414  55.650  1.00  0.00     0.272 C 
BRANCH  25  26
HETATM   26  N1  UNL     1      -5.772  52.865  56.197  1.00  0.00     0.090 N 
BRANCH  26  27
HETATM   27  C3  UNL     1      -5.821  52.843  57.624  1.00  0.00     0.272 C 
BRANCH  27  28
HETATM   28  C2  UNL     1      -5.765  51.559  58.344  1.00  0.00     0.026 C 
HETATM   29  C1  UNL     1      -6.987  51.266  59.187  1.00  0.00     0.007 C 
ENDBRANCH  27  28
ENDBRANCH  26  27
BRANCH  26  30
HETATM   30  C4  UNL     1      -4.690  52.158  55.624  1.00  0.00     0.298 C 
BRANCH  30  31
HETATM   31  C5  UNL     1      -3.303  52.631  55.820  1.00  0.00     0.194 C 
BRANCH  31  32
HETATM   32  O1  UNL     1      -2.523  52.227  54.689  1.00  0.00    -0.399 OA
ATOM     33  H1  UNL     1      -1.619  52.474  54.844  1.00  0.00     0.209 HD
ENDBRANCH  31  32
ENDBRANCH  30  31
ENDBRANCH  26  30
ENDBRANCH  25  26
ENDBRANCH  24  25
ENDBRANCH  23  24
ENDBRANCH  22  23
ENDBRANCH  21  22
ENDBRANCH   1  21
BRANCH   7  34
HETATM   34  N5  UNL     1      -4.313  43.229  54.074  1.00  0.00    -0.234 N 
ATOM     35  H52 UNL     1      -3.417  43.445  54.511  1.00  0.00     0.174 HD
ATOM     36  H51 UNL     1      -4.343  42.558  53.306  1.00  0.00     0.174 HD
ENDBRANCH   7  34
TORSDOF 12
ENDMDL
MODEL 5
REMARK VINA RESULT: -7.146863590      2.604      7.555
REMARK  12 active torsions:
REMARK  status: ('A' for Active; 'I' for Inactive)
REMARK    1  A    between atoms: C2_2  and  C3_3 
REMARK    2  A    between atoms: C3_3  and  N1_4 
REMARK    3  A    between atoms: N1_4  and  C4_5 
REMARK    4  A    between atoms: N1_4  and  C6_9 
REMARK    5  A    between atoms: C4_5  and  C5_6 
REMARK    6  A    between atoms: C5_6  and  O1_7 
REMARK    7  A    between atoms: C6_9  and  C7_10 
REMARK    8  A    between atoms: C7_10  and  C8_11 
REMARK    9  A    between atoms: C8_11  and  C9_12 
REMARK   10  A    between atoms: C9_12  and  C10_13 
REMARK   11  A    between atoms: C10_13  and  N2_14 
REMARK   12  A    between atoms: C12_20  and  N5_21 
ROOT
HETATM    1  N2  UNL     1      -7.606  46.910  56.704  1.00  0.00    -0.287 N 
HETATM    2  N3  UNL     1      -7.837  46.006  57.616  1.00  0.00    -0.282 N 
ATOM      3  H3  UNL     1      -7.516  45.039  57.562  1.00  0.00     0.189 HD
HETATM    4  C11 UNL     1      -8.550  46.511  58.631  1.00  0.00     0.150 A 
HETATM    5  N4  UNL     1      -9.051  45.990  59.763  1.00  0.00    -0.175 N 
ATOM      6  H4  UNL     1      -8.872  45.010  59.982  1.00  0.00     0.186 HD
HETATM    7  C12 UNL     1      -9.782  46.730  60.613  1.00  0.00     0.677 A 
HETATM    8  N6  UNL     1     -10.018  48.017  60.321  1.00  0.00    -0.195 N 
ATOM      9  H6  UNL     1     -10.576  48.572  60.970  1.00  0.00     0.184 HD
HETATM   10  C13 UNL     1      -9.540  48.615  59.190  1.00  0.00     0.039 A 
HETATM   11  C14 UNL     1      -9.944  50.015  58.887  1.00  0.00     0.070 C 
HETATM   12  C15 UNL     1      -8.787  47.841  58.336  1.00  0.00     0.063 A 
HETATM   13  C16 UNL     1      -8.184  48.097  57.119  1.00  0.00     0.093 A 
HETATM   14  C17 UNL     1      -7.936  49.353  56.445  1.00  0.00     0.061 A 
HETATM   15  C18 UNL     1      -7.320  50.395  57.086  1.00  0.00     0.032 A 
HETATM   16  C19 UNL     1      -6.932  51.541  56.404  1.00  0.00     0.004 A 
HETATM   17  C20 UNL     1      -7.165  51.646  55.050  1.00  0.00     0.017 A 
HETATM   18  C21 UNL     1      -7.786  50.574  54.445  1.00  0.00     0.088 A 
HETATM   19  N7  UNL     1      -8.144  49.494  55.127  1.00  0.00    -0.364 N 
ATOM     20  H7  UNL     1      -8.601  48.734  54.624  1.00  0.00     0.165 HD
ENDROOT
BRANCH   1  21
HETATM   21  C10 UNL     1      -6.912  46.680  55.478  1.00  0.00     0.149 C 
BRANCH  21  22
HETATM   22  C9  UNL     1      -6.036  45.479  55.605  1.00  0.00     0.022 C 
BRANCH  22  23
HETATM   23  C8  UNL     1      -6.193  44.520  54.399  1.00  0.00     0.003 C 
BRANCH  23  24
HETATM   24  C7  UNL     1      -6.724  43.255  54.943  1.00  0.00     0.030 C 
BRANCH  24  25
HETATM   25  C6  UNL     1      -7.983  42.682  54.453  1.00  0.00     0.272 C 
BRANCH  25  26
HETATM   26  N1  UNL     1      -9.163  43.513  54.415  1.00  0.00     0.090 N 
BRANCH  26  27
HETATM   27  C3  UNL     1     -10.191  42.871  53.660  1.00  0.00     0.272 C 
BRANCH  27  28
HETATM   28  C2  UNL     1     -10.413  41.421  53.798  1.00  0.00     0.026 C 
HETATM   29  C1  UNL     1     -11.160  41.023  55.051  1.00  0.00     0.007 C 
ENDBRANCH  27  28
ENDBRANCH  26  27
BRANCH  26  30
HETATM   30  C4  UNL     1      -9.538  43.913  55.717  1.00  0.00     0.298 C 
BRANCH  30  31
HETATM   31  C5  UNL     1     -10.757  44.724  55.926  1.00  0.00     0.194 C 
BRANCH  31  32
HETATM   32  O1  UNL     1     -10.500  46.056  55.469  1.00  0.00    -0.399 OA
ATOM     33  H1  UNL     1     -11.122  46.265  54.782  1.00  0.00     0.209 HD
ENDBRANCH  31  32
ENDBRANCH  30  31
ENDBRANCH  26  30
ENDBRANCH  25  26
ENDBRANCH  24  25
ENDBRANCH  23  24
ENDBRANCH  22  23
ENDBRANCH  21  22
ENDBRANCH   1  21
BRANCH   7  34
HETATM   34  N5  UNL     1     -10.253  46.187  61.704  1.00  0.00    -0.234 N 
ATOM     35  H52 UNL     1     -10.051  46.585  62.621  1.00  0.00     0.174 HD
ATOM     36  H51 UNL     1     -10.835  45.351  61.642  1.00  0.00     0.174 HD
ENDBRANCH   7  34
TORSDOF 12
ENDMDL
