MODEL 1
REMARK VINA RESULT: -4.801113776      0.000      0.000
REMARK  3 active torsions:
REMARK  status: ('A' for Active; 'I' for Inactive)
REMARK    1  A    between atoms: C1_2  and  C2_4 
REMARK    2  A    between atoms: C2_4  and  N2_5 
REMARK    3  A    between atoms: C2_4  and  C3_9 
ROOT
HETATM    1  C3  UNL     1      51.826  54.084  67.314  1.00  0.00     0.094 A 
HETATM    2  C4  UNL     1      51.100  53.095  67.939  1.00  0.00     0.135 A 
HETATM    3  N3  UNL     1      49.893  53.601  68.247  1.00  0.00    -0.198 N 
ATOM      4  H3  UNL     1      49.144  53.092  68.717  1.00  0.00     0.183 HD
HETATM    5  C5  UNL     1      49.826  54.897  67.835  1.00  0.00     0.707 A 
HETATM    6  N4  UNL     1      49.017  55.971  67.792  1.00  0.00    -0.127 N 
ATOM      7  H4  UNL     1      48.064  56.032  68.150  1.00  0.00     0.205 HD
HETATM    8  N5  UNL     1      49.702  56.931  67.194  1.00  0.00    -0.236 N 
ATOM      9  H5  UNL     1      49.361  57.874  67.010  1.00  0.00     0.192 HD
HETATM   10  C6  UNL     1      50.919  56.465  66.869  1.00  0.00     0.360 A 
HETATM   11  O2  UNL     1      51.867  57.076  66.284  1.00  0.00    -0.244 OA
HETATM   12  N6  UNL     1      51.015  55.175  67.268  1.00  0.00    -0.093 N 
ENDROOT
BRANCH   1  13
HETATM   13  C2  UNL     1      53.211  54.019  66.787  1.00  0.00     0.324 C 
BRANCH  13  14
HETATM   14  C1  UNL     1      53.819  52.684  66.973  1.00  0.00     0.267 C 
HETATM   15  N1  UNL     1      54.539  52.340  68.155  1.00  0.00    -0.060 NA
HETATM   16  O1  UNL     1      53.675  51.844  66.028  1.00  0.00    -0.274 OA
ENDBRANCH  13  14
BRANCH  13  17
HETATM   17  N2  UNL     1      54.033  55.007  67.416  1.00  0.00    -0.061 N 
ATOM     18  H23 UNL     1      53.484  55.701  67.924  1.00  0.00     0.275 HD
ATOM     19  H22 UNL     1      54.555  54.628  68.207  1.00  0.00     0.275 HD
ATOM     20  H21 UNL     1      54.645  55.432  66.719  1.00  0.00     0.275 HD
ENDBRANCH  13  17
ENDBRANCH   1  13
TORSDOF 3
ENDMDL
MODEL 2
REMARK VINA RESULT: -4.766668902      2.020      2.452
REMARK  3 active torsions:
REMARK  status: ('A' for Active; 'I' for Inactive)
REMARK    1  A    between atoms: C1_2  and  C2_4 
REMARK    2  A    between atoms: C2_4  and  N2_5 
REMARK    3  A    between atoms: C2_4  and  C3_9 
ROOT
HETATM    1  C3  UNL     1      51.730  54.377  66.855  1.00  0.00     0.094 A 
HETATM    2  C4  UNL     1      51.722  53.085  67.332  1.00  0.00     0.135 A 
HETATM    3  N3  UNL     1      50.649  52.946  68.129  1.00  0.00    -0.198 N 
ATOM      4  H3  UNL     1      50.388  52.092  68.622  1.00  0.00     0.183 HD
HETATM    5  C5  UNL     1      49.964  54.122  68.176  1.00  0.00     0.707 A 
HETATM    6  N4  UNL     1      48.881  54.715  68.712  1.00  0.00    -0.127 N 
ATOM      7  H4  UNL     1      48.201  54.290  69.340  1.00  0.00     0.205 HD
HETATM    8  N5  UNL     1      48.876  55.959  68.262  1.00  0.00    -0.236 N 
ATOM      9  H5  UNL     1      48.177  56.667  68.488  1.00  0.00     0.192 HD
HETATM   10  C6  UNL     1      49.937  56.140  67.458  1.00  0.00     0.360 A 
HETATM   11  O2  UNL     1      50.282  57.191  66.833  1.00  0.00    -0.244 OA
HETATM   12  N6  UNL     1      50.638  54.984  67.392  1.00  0.00    -0.093 N 
ENDROOT
BRANCH   1  13
HETATM   13  C2  UNL     1      52.708  55.018  65.942  1.00  0.00     0.324 C 
BRANCH  13  14
HETATM   14  C1  UNL     1      53.544  56.024  66.633  1.00  0.00     0.267 C 
HETATM   15  N1  UNL     1      53.672  57.359  66.150  1.00  0.00    -0.060 NA
HETATM   16  O1  UNL     1      54.152  55.647  67.685  1.00  0.00    -0.274 OA
ENDBRANCH  13  14
BRANCH  13  17
HETATM   17  N2  UNL     1      52.035  55.637  64.841  1.00  0.00    -0.061 N 
ATOM     18  H23 UNL     1      51.876  56.633  64.995  1.00  0.00     0.275 HD
ATOM     19  H22 UNL     1      52.631  55.711  64.016  1.00  0.00     0.275 HD
ATOM     20  H21 UNL     1      51.169  55.132  64.647  1.00  0.00     0.275 HD
ENDBRANCH  13  17
ENDBRANCH   1  13
TORSDOF 3
ENDMDL
MODEL 3
REMARK VINA RESULT: -4.728959525      1.527      1.700
REMARK  3 active torsions:
REMARK  status: ('A' for Active; 'I' for Inactive)
REMARK    1  A    between atoms: C1_2  and  C2_4 
REMARK    2  A    between atoms: C2_4  and  N2_5 
REMARK    3  A    between atoms: C2_4  and  C3_9 
ROOT
HETATM    1  C3  UNL     1      51.575  53.871  66.896  1.00  0.00     0.094 A 
HETATM    2  C4  UNL     1      51.003  52.991  67.787  1.00  0.00     0.135 A 
HETATM    3  N3  UNL     1      49.984  53.623  68.395  1.00  0.00    -0.198 N 
ATOM      4  H3  UNL     1      49.378  53.214  69.106  1.00  0.00     0.183 HD
HETATM    5  C5  UNL     1      49.888  54.893  67.914  1.00  0.00     0.707 A 
HETATM    6  N4  UNL     1      49.181  56.032  68.024  1.00  0.00    -0.127 N 
ATOM      7  H4  UNL     1      48.387  56.202  68.640  1.00  0.00     0.205 HD
HETATM    8  N5  UNL     1      49.720  56.889  67.173  1.00  0.00    -0.236 N 
ATOM      9  H5  UNL     1      49.406  57.848  67.019  1.00  0.00     0.192 HD
HETATM   10  C6  UNL     1      50.746  56.295  66.542  1.00  0.00     0.360 A 
HETATM   11  O2  UNL     1      51.515  56.782  65.654  1.00  0.00    -0.244 OA
HETATM   12  N6  UNL     1      50.867  55.027  67.001  1.00  0.00    -0.093 N 
ENDROOT
BRANCH   1  13
HETATM   13  C2  UNL     1      52.729  53.649  65.991  1.00  0.00     0.324 C 
BRANCH  13  14
HETATM   14  C1  UNL     1      53.937  54.381  66.430  1.00  0.00     0.267 C 
HETATM   15  N1  UNL     1      54.591  55.331  65.592  1.00  0.00    -0.060 NA
HETATM   16  O1  UNL     1      54.374  54.129  67.598  1.00  0.00    -0.274 OA
ENDBRANCH  13  14
BRANCH  13  17
HETATM   17  N2  UNL     1      52.399  54.039  64.654  1.00  0.00    -0.061 N 
ATOM     18  H23 UNL     1      53.182  53.916  64.010  1.00  0.00     0.275 HD
ATOM     19  H22 UNL     1      51.746  53.390  64.213  1.00  0.00     0.275 HD
ATOM     20  H21 UNL     1      52.048  54.997  64.658  1.00  0.00     0.275 HD
ENDBRANCH  13  17
ENDBRANCH   1  13
TORSDOF 3
ENDMDL
MODEL 4
REMARK VINA RESULT: -4.689927688      2.059      2.598
REMARK  3 active torsions:
REMARK  status: ('A' for Active; 'I' for Inactive)
REMARK    1  A    between atoms: C1_2  and  C2_4 
REMARK    2  A    between atoms: C2_4  and  N2_5 
REMARK    3  A    between atoms: C2_4  and  C3_9 
ROOT
HETATM    1  C3  UNL     1      52.120  54.828  67.265  1.00  0.00     0.094 A 
HETATM    2  C4  UNL     1      52.016  53.458  67.359  1.00  0.00     0.135 A 
HETATM    3  N3  UNL     1      50.811  53.171  67.880  1.00  0.00    -0.198 N 
ATOM      4  H3  UNL     1      50.457  52.232  68.063  1.00  0.00     0.183 HD
HETATM    5  C5  UNL     1      50.136  54.328  68.125  1.00  0.00     0.707 A 
HETATM    6  N4  UNL     1      48.975  54.815  68.599  1.00  0.00    -0.127 N 
ATOM      7  H4  UNL     1      48.185  54.275  68.953  1.00  0.00     0.205 HD
HETATM    8  N5  UNL     1      49.060  56.132  68.515  1.00  0.00    -0.236 N 
ATOM      9  H5  UNL     1      48.335  56.791  68.798  1.00  0.00     0.192 HD
HETATM   10  C6  UNL     1      50.255  56.462  67.997  1.00  0.00     0.360 A 
HETATM   11  O2  UNL     1      50.718  57.622  67.759  1.00  0.00    -0.244 OA
HETATM   12  N6  UNL     1      50.950  55.329  67.743  1.00  0.00    -0.093 N 
ENDROOT
BRANCH   1  13
HETATM   13  C2  UNL     1      53.257  55.634  66.755  1.00  0.00     0.324 C 
BRANCH  13  14
HETATM   14  C1  UNL     1      52.966  56.243  65.439  1.00  0.00     0.267 C 
HETATM   15  N1  UNL     1      52.669  55.453  64.290  1.00  0.00    -0.060 NA
HETATM   16  O1  UNL     1      52.992  57.513  65.369  1.00  0.00    -0.274 OA
ENDBRANCH  13  14
BRANCH  13  17
HETATM   17  N2  UNL     1      54.436  54.830  66.655  1.00  0.00    -0.061 N 
ATOM     18  H23 UNL     1      54.240  53.900  66.282  1.00  0.00     0.275 HD
ATOM     19  H22 UNL     1      55.062  55.153  65.917  1.00  0.00     0.275 HD
ATOM     20  H21 UNL     1      54.898  54.792  67.564  1.00  0.00     0.275 HD
ENDBRANCH  13  17
ENDBRANCH   1  13
TORSDOF 3
ENDMDL
MODEL 5
REMARK VINA RESULT: -4.632960572      1.411      1.483
REMARK  3 active torsions:
REMARK  status: ('A' for Active; 'I' for Inactive)
REMARK    1  A    between atoms: C1_2  and  C2_4 
REMARK    2  A    between atoms: C2_4  and  N2_5 
REMARK    3  A    between atoms: C2_4  and  C3_9 
ROOT
HETATM    1  C3  UNL     1      51.867  54.197  67.319  1.00  0.00     0.094 A 
HETATM    2  C4  UNL     1      51.073  53.168  67.776  1.00  0.00     0.135 A 
HETATM    3  N3  UNL     1      49.958  53.708  68.298  1.00  0.00    -0.198 N 
ATOM      4  H3  UNL     1      49.188  53.183  68.712  1.00  0.00     0.183 HD
HETATM    5  C5  UNL     1      50.016  55.064  68.188  1.00  0.00     0.707 A 
HETATM    6  N4  UNL     1      49.338  56.194  68.457  1.00  0.00    -0.127 N 
ATOM      7  H4  UNL     1      48.426  56.266  68.906  1.00  0.00     0.205 HD
HETATM    8  N5  UNL     1      50.089  57.192  68.023  1.00  0.00    -0.236 N 
ATOM      9  H5  UNL     1      49.850  58.182  68.082  1.00  0.00     0.192 HD
HETATM   10  C6  UNL     1      51.218  56.694  67.493  1.00  0.00     0.360 A 
HETATM   11  O2  UNL     1      52.190  57.326  66.971  1.00  0.00    -0.244 OA
HETATM   12  N6  UNL     1      51.188  55.344  67.588  1.00  0.00    -0.093 N 
ENDROOT
BRANCH   1  13
HETATM   13  C2  UNL     1      53.196  54.116  66.665  1.00  0.00     0.324 C 
BRANCH  13  14
HETATM   14  C1  UNL     1      53.112  53.571  65.292  1.00  0.00     0.267 C 
HETATM   15  N1  UNL     1      53.945  52.501  64.853  1.00  0.00    -0.060 NA
HETATM   16  O1  UNL     1      52.260  54.100  64.509  1.00  0.00    -0.274 OA
ENDBRANCH  13  14
BRANCH  13  17
HETATM   17  N2  UNL     1      54.089  53.311  67.441  1.00  0.00    -0.061 N 
ATOM     18  H23 UNL     1      53.647  52.950  68.287  1.00  0.00     0.275 HD
ATOM     19  H22 UNL     1      54.292  52.418  66.992  1.00  0.00     0.275 HD
ATOM     20  H21 UNL     1      54.935  53.844  67.643  1.00  0.00     0.275 HD
ENDBRANCH  13  17
ENDBRANCH   1  13
TORSDOF 3
ENDMDL
