MODEL 1
REMARK VINA RESULT: -5.136600733      0.000      0.000
REMARK  1 active torsions:
REMARK  status: ('A' for Active; 'I' for Inactive)
REMARK    1  A    between atoms: C1_4  and  C2_6 
REMARK       I    between atoms: N5_12  and  C5_13 
ROOT
HETATM    1  C2  UNL     1      50.409  54.678  67.192  1.00  0.00     0.142 A 
HETATM    2  N3  UNL     1      50.480  53.658  68.093  1.00  0.00    -0.355 N 
ATOM      3  H3  UNL     1      49.819  53.646  68.870  1.00  0.00     0.165 HD
HETATM    4  C3  UNL     1      51.377  52.678  68.001  1.00  0.00     0.134 A 
HETATM    5  C4  UNL     1      52.272  52.686  66.961  1.00  0.00     0.145 A 
HETATM    6  N4  UNL     1      53.250  51.671  66.810  1.00  0.00    -0.080 NA
HETATM    7  N5  UNL     1      52.242  53.670  66.047  1.00  0.00    -0.216 N 
HETATM    8  C5  UNL     1      53.140  53.722  64.960  1.00  0.00     0.343 C 
HETATM    9  N6  UNL     1      53.079  54.763  64.028  1.00  0.00    -0.039 NA
HETATM   10  O1  UNL     1      53.989  52.819  64.850  1.00  0.00    -0.250 OA
HETATM   11  C6  UNL     1      51.311  54.659  66.169  1.00  0.00     0.287 A 
HETATM   12  O2  UNL     1      51.329  55.570  65.271  1.00  0.00    -0.265 OA
ENDROOT
BRANCH   1  13
HETATM   13  C1  UNL     1      49.414  55.720  67.337  1.00  0.00     0.142 C 
HETATM   14  N1  UNL     1      49.601  56.955  67.206  1.00  0.00    -0.386 N 
ATOM     15  H12 UNL     1      48.900  57.689  67.308  1.00  0.00     0.157 HD
ATOM     16  H11 UNL     1      50.538  57.285  66.975  1.00  0.00     0.157 HD
HETATM   17  N2  UNL     1      48.086  55.254  67.665  1.00  0.00    -0.081 NA
ENDBRANCH   1  13
TORSDOF 1
ENDMDL
MODEL 2
REMARK VINA RESULT: -4.759412113      2.204      4.598
REMARK  1 active torsions:
REMARK  status: ('A' for Active; 'I' for Inactive)
REMARK    1  A    between atoms: C1_4  and  C2_6 
REMARK       I    between atoms: N5_12  and  C5_13 
ROOT
HETATM    1  C2  UNL     1      52.572  53.337  67.494  1.00  0.00     0.142 A 
HETATM    2  N3  UNL     1      53.720  54.025  67.241  1.00  0.00    -0.355 N 
ATOM      3  H3  UNL     1      54.604  53.515  67.231  1.00  0.00     0.165 HD
HETATM    4  C3  UNL     1      53.736  55.336  67.004  1.00  0.00     0.134 A 
HETATM    5  C4  UNL     1      52.554  56.031  67.015  1.00  0.00     0.145 A 
HETATM    6  N4  UNL     1      52.506  57.427  66.771  1.00  0.00    -0.080 NA
HETATM    7  N5  UNL     1      51.395  55.398  67.261  1.00  0.00    -0.216 N 
HETATM    8  C5  UNL     1      50.154  56.068  67.283  1.00  0.00     0.343 C 
HETATM    9  N6  UNL     1      48.968  55.374  67.543  1.00  0.00    -0.039 NA
HETATM   10  O1  UNL     1      50.139  57.293  67.066  1.00  0.00    -0.250 OA
HETATM   11  C6  UNL     1      51.412  54.054  67.499  1.00  0.00     0.287 A 
HETATM   12  O2  UNL     1      50.281  53.503  67.727  1.00  0.00    -0.265 OA
ENDROOT
BRANCH   1  13
HETATM   13  C1  UNL     1      52.609  51.910  67.746  1.00  0.00     0.142 C 
HETATM   14  N1  UNL     1      51.880  51.273  68.545  1.00  0.00    -0.386 N 
ATOM     15  H12 UNL     1      51.906  50.269  68.721  1.00  0.00     0.157 HD
ATOM     16  H11 UNL     1      51.184  51.787  69.085  1.00  0.00     0.157 HD
HETATM   17  N2  UNL     1      53.597  51.183  66.981  1.00  0.00    -0.081 NA
ENDBRANCH   1  13
TORSDOF 1
ENDMDL
MODEL 3
REMARK VINA RESULT: -4.694196903      1.774      4.218
REMARK  1 active torsions:
REMARK  status: ('A' for Active; 'I' for Inactive)
REMARK    1  A    between atoms: C1_4  and  C2_6 
REMARK       I    between atoms: N5_12  and  C5_13 
ROOT
HETATM    1  C2  UNL     1      52.260  53.030  67.446  1.00  0.00     0.142 A 
HETATM    2  N3  UNL     1      51.159  52.531  68.075  1.00  0.00    -0.355 N 
ATOM      3  H3  UNL     1      51.190  51.576  68.430  1.00  0.00     0.165 HD
HETATM    4  C3  UNL     1      50.045  53.241  68.244  1.00  0.00     0.134 A 
HETATM    5  C4  UNL     1      49.992  54.527  67.770  1.00  0.00     0.145 A 
HETATM    6  N4  UNL     1      48.834  55.331  67.920  1.00  0.00    -0.080 NA
HETATM    7  N5  UNL     1      51.051  55.064  67.143  1.00  0.00    -0.216 N 
HETATM    8  C5  UNL     1      51.046  56.381  66.637  1.00  0.00     0.343 C 
HETATM    9  N6  UNL     1      52.169  56.905  65.989  1.00  0.00    -0.039 NA
HETATM   10  O1  UNL     1      50.018  57.066  66.782  1.00  0.00    -0.250 OA
HETATM   11  C6  UNL     1      52.178  54.311  66.984  1.00  0.00     0.287 A 
HETATM   12  O2  UNL     1      53.156  54.872  66.380  1.00  0.00    -0.265 OA
ENDROOT
BRANCH   1  13
HETATM   13  C1  UNL     1      53.448  52.217  67.286  1.00  0.00     0.142 C 
HETATM   14  N1  UNL     1      53.933  51.806  66.203  1.00  0.00    -0.386 N 
ATOM     15  H12 UNL     1      54.770  51.234  66.091  1.00  0.00     0.157 HD
ATOM     16  H11 UNL     1      53.462  52.055  65.333  1.00  0.00     0.157 HD
HETATM   17  N2  UNL     1      54.115  51.865  68.519  1.00  0.00    -0.081 NA
ENDBRANCH   1  13
TORSDOF 1
ENDMDL
MODEL 4
REMARK VINA RESULT: -4.564865943      1.542      2.582
REMARK  1 active torsions:
REMARK  status: ('A' for Active; 'I' for Inactive)
REMARK    1  A    between atoms: C1_4  and  C2_6 
REMARK       I    between atoms: N5_12  and  C5_13 
ROOT
HETATM    1  C2  UNL     1      50.647  55.274  66.835  1.00  0.00     0.142 A 
HETATM    2  N3  UNL     1      51.044  55.879  65.681  1.00  0.00    -0.355 N 
ATOM      3  H3  UNL     1      50.611  56.765  65.420  1.00  0.00     0.165 HD
HETATM    4  C3  UNL     1      51.973  55.361  64.880  1.00  0.00     0.134 A 
HETATM    5  C4  UNL     1      52.561  54.169  65.222  1.00  0.00     0.145 A 
HETATM    6  N4  UNL     1      53.556  53.568  64.410  1.00  0.00    -0.080 NA
HETATM    7  N5  UNL     1      52.203  53.534  66.350  1.00  0.00    -0.216 N 
HETATM    8  C5  UNL     1      52.777  52.307  66.744  1.00  0.00     0.343 C 
HETATM    9  N6  UNL     1      52.378  51.675  67.926  1.00  0.00    -0.039 NA
HETATM   10  O1  UNL     1      53.649  51.800  66.015  1.00  0.00    -0.250 OA
HETATM   11  C6  UNL     1      51.248  54.091  67.149  1.00  0.00     0.287 A 
HETATM   12  O2  UNL     1      50.946  53.443  68.210  1.00  0.00    -0.265 OA
ENDROOT
BRANCH   1  13
HETATM   13  C1  UNL     1      49.630  55.880  67.671  1.00  0.00     0.142 C 
HETATM   14  N1  UNL     1      49.794  56.829  68.477  1.00  0.00    -0.386 N 
ATOM     15  H12 UNL     1      49.078  57.256  69.066  1.00  0.00     0.157 HD
ATOM     16  H11 UNL     1      50.726  57.232  68.573  1.00  0.00     0.157 HD
HETATM   17  N2  UNL     1      48.310  55.308  67.536  1.00  0.00    -0.081 NA
ENDBRANCH   1  13
TORSDOF 1
ENDMDL
MODEL 5
REMARK VINA RESULT: -4.546450116      2.606      3.904
REMARK  1 active torsions:
REMARK  status: ('A' for Active; 'I' for Inactive)
REMARK    1  A    between atoms: C1_4  and  C2_6 
REMARK       I    between atoms: N5_12  and  C5_13 
ROOT
HETATM    1  C2  UNL     1      50.405  56.017  67.981  1.00  0.00     0.142 A 
HETATM    2  N3  UNL     1      50.096  57.221  68.539  1.00  0.00    -0.355 N 
ATOM      3  H3  UNL     1      49.190  57.331  68.993  1.00  0.00     0.165 HD
HETATM    4  C3  UNL     1      50.930  58.259  68.514  1.00  0.00     0.134 A 
HETATM    5  C4  UNL     1      52.152  58.122  67.906  1.00  0.00     0.145 A 
HETATM    6  N4  UNL     1      53.081  59.191  67.847  1.00  0.00    -0.080 NA
HETATM    7  N5  UNL     1      52.502  56.954  67.341  1.00  0.00    -0.216 N 
HETATM    8  C5  UNL     1      53.746  56.763  66.703  1.00  0.00     0.343 C 
HETATM    9  N6  UNL     1      54.075  55.533  66.127  1.00  0.00    -0.039 NA
HETATM   10  O1  UNL     1      54.545  57.717  66.666  1.00  0.00    -0.250 OA
HETATM   11  C6  UNL     1      51.626  55.909  67.383  1.00  0.00     0.287 A 
HETATM   12  O2  UNL     1      52.011  54.822  66.830  1.00  0.00    -0.265 OA
ENDROOT
BRANCH   1  13
HETATM   13  C1  UNL     1      49.462  54.918  68.034  1.00  0.00     0.142 C 
HETATM   14  N1  UNL     1      49.709  53.736  68.381  1.00  0.00    -0.386 N 
ATOM     15  H12 UNL     1      49.046  52.963  68.419  1.00  0.00     0.157 HD
ATOM     16  H11 UNL     1      50.663  53.499  68.657  1.00  0.00     0.157 HD
HETATM   17  N2  UNL     1      48.112  55.254  67.643  1.00  0.00    -0.081 NA
ENDBRANCH   1  13
TORSDOF 1
ENDMDL
