MODEL 1
REMARK VINA RESULT: -4.152590585      0.000      0.000
REMARK  5 active torsions:
REMARK  status: ('A' for Active; 'I' for Inactive)
REMARK    1  A    between atoms: C2_2  and  C3_3 
REMARK    2  A    between atoms: C3_3  and  C4_4 
REMARK    3  A    between atoms: N2_8  and  C6_9 
REMARK    4  A    between atoms: C6_9  and  C7_10 
REMARK    5  A    between atoms: C8_11  and  C9_12 
ROOT
HETATM    1  C6  UNL     1      15.289  11.115  20.414  1.00  0.00     0.242 C 
ENDROOT
BRANCH   1   2
HETATM    2  N2  UNL     1      14.273  10.401  21.182  1.00  0.00    -0.292 N 
HETATM    3  N1  UNL     1      13.012  10.787  21.286  1.00  0.00    -0.309 N 
HETATM    4  C5  UNL     1      12.310   9.935  22.055  1.00  0.00     0.115 A 
ATOM      5  H1  UNL     1      12.623  11.619  20.842  1.00  0.00     0.186 HD
HETATM    6  C4  UNL     1      13.188   8.935  22.472  1.00  0.00    -0.024 A 
HETATM    7  C13 UNL     1      14.399   9.271  21.902  1.00  0.00     0.119 A 
BRANCH   6   8
HETATM    8  C3  UNL     1      12.838   7.783  23.343  1.00  0.00     0.041 C 
BRANCH   8   9
HETATM    9  C2  UNL     1      14.029   7.350  24.199  1.00  0.00     0.000 C 
HETATM   10  C1  UNL     1      13.581   6.700  25.472  1.00  0.00     0.005 C 
ENDBRANCH   8   9
ENDBRANCH   6   8
ENDBRANCH   1   2
BRANCH   1  11
HETATM   11  C7  UNL     1      16.335  11.619  21.297  1.00  0.00    -0.079 C 
HETATM   12  C8  UNL     1      17.213  12.041  22.017  1.00  0.00    -0.060 C 
BRANCH  12  13
HETATM   13  C9  UNL     1      18.267  12.541  22.855  1.00  0.00     0.077 A 
HETATM   14  C10 UNL     1      19.103  11.850  23.707  1.00  0.00     0.133 A 
HETATM   15  N3  UNL     1      19.956  12.683  24.313  1.00  0.00    -0.305 N 
HETATM   16  C11 UNL     1      20.991  12.305  25.286  1.00  0.00     0.177 C 
HETATM   17  N4  UNL     1      19.686  13.899  23.867  1.00  0.00    -0.285 N 
HETATM   18  C12 UNL     1      18.673  13.874  22.983  1.00  0.00     0.151 A 
ATOM     19  H4  UNL     1      20.181  14.744  24.155  1.00  0.00     0.188 HD
HETATM   20  N5  UNL     1      18.060  14.925  22.264  1.00  0.00    -0.080 NA
ENDBRANCH  12  13
ENDBRANCH   1  11
TORSDOF 5
ENDMDL
MODEL 2
REMARK VINA RESULT: -4.082730527      0.836      1.656
REMARK  5 active torsions:
REMARK  status: ('A' for Active; 'I' for Inactive)
REMARK    1  A    between atoms: C2_2  and  C3_3 
REMARK    2  A    between atoms: C3_3  and  C4_4 
REMARK    3  A    between atoms: N2_8  and  C6_9 
REMARK    4  A    between atoms: C6_9  and  C7_10 
REMARK    5  A    between atoms: C8_11  and  C9_12 
ROOT
HETATM    1  C6  UNL     1      15.346  10.966  20.312  1.00  0.00     0.242 C 
ENDROOT
BRANCH   1   2
HETATM    2  N2  UNL     1      14.307  10.337  21.122  1.00  0.00    -0.292 N 
HETATM    3  N1  UNL     1      13.081  10.814  21.260  1.00  0.00    -0.309 N 
HETATM    4  C5  UNL     1      12.346  10.024  22.064  1.00  0.00     0.115 A 
ATOM      5  H1  UNL     1      12.739  11.666  20.817  1.00  0.00     0.186 HD
HETATM    6  C4  UNL     1      13.163   8.970  22.468  1.00  0.00    -0.024 A 
HETATM    7  C13 UNL     1      14.376   9.210  21.854  1.00  0.00     0.119 A 
BRANCH   6   8
HETATM    8  C3  UNL     1      12.761   7.856  23.366  1.00  0.00     0.041 C 
BRANCH   8   9
HETATM    9  C2  UNL     1      13.948   7.340  24.179  1.00  0.00     0.000 C 
HETATM   10  C1  UNL     1      13.500   6.712  25.464  1.00  0.00     0.005 C 
ENDBRANCH   8   9
ENDBRANCH   6   8
ENDBRANCH   1   2
BRANCH   1  11
HETATM   11  C7  UNL     1      16.309  11.657  21.163  1.00  0.00    -0.079 C 
HETATM   12  C8  UNL     1      17.118  12.231  21.857  1.00  0.00    -0.060 C 
BRANCH  12  13
HETATM   13  C9  UNL     1      18.092  12.912  22.665  1.00  0.00     0.077 A 
HETATM   14  C10 UNL     1      18.430  14.249  22.678  1.00  0.00     0.133 A 
HETATM   15  N3  UNL     1      19.390  14.486  23.579  1.00  0.00    -0.305 N 
HETATM   16  C11 UNL     1      20.000  15.791  23.871  1.00  0.00     0.177 C 
HETATM   17  N4  UNL     1      19.678  13.326  24.147  1.00  0.00    -0.285 N 
HETATM   18  C12 UNL     1      18.923  12.338  23.633  1.00  0.00     0.151 A 
ATOM     19  H4  UNL     1      20.378  13.198  24.878  1.00  0.00     0.188 HD
HETATM   20  N5  UNL     1      18.893  10.958  23.937  1.00  0.00    -0.080 NA
ENDBRANCH  12  13
ENDBRANCH   1  11
TORSDOF 5
ENDMDL
MODEL 3
REMARK VINA RESULT: -3.598355787      2.570      4.174
REMARK  5 active torsions:
REMARK  status: ('A' for Active; 'I' for Inactive)
REMARK    1  A    between atoms: C2_2  and  C3_3 
REMARK    2  A    between atoms: C3_3  and  C4_4 
REMARK    3  A    between atoms: N2_8  and  C6_9 
REMARK    4  A    between atoms: C6_9  and  C7_10 
REMARK    5  A    between atoms: C8_11  and  C9_12 
ROOT
HETATM    1  C6  UNL     1      15.169   7.231  23.332  1.00  0.00     0.242 C 
ENDROOT
BRANCH   1   2
HETATM    2  N2  UNL     1      14.702   7.617  22.003  1.00  0.00    -0.292 N 
HETATM    3  N1  UNL     1      14.812   6.856  20.927  1.00  0.00    -0.309 N 
HETATM    4  C5  UNL     1      14.295   7.471  19.848  1.00  0.00     0.115 A 
ATOM      5  H1  UNL     1      15.233   5.927  20.916  1.00  0.00     0.186 HD
HETATM    6  C4  UNL     1      13.822   8.713  20.268  1.00  0.00    -0.024 A 
HETATM    7  C13 UNL     1      14.099   8.757  21.619  1.00  0.00     0.119 A 
BRANCH   6   8
HETATM    8  C3  UNL     1      13.170   9.730  19.402  1.00  0.00     0.041 C 
BRANCH   8   9
HETATM    9  C2  UNL     1      11.660   9.776  19.637  1.00  0.00     0.000 C 
HETATM   10  C1  UNL     1      11.302  10.759  20.710  1.00  0.00     0.005 C 
ENDBRANCH   8   9
ENDBRANCH   6   8
ENDBRANCH   1   2
BRANCH   1  11
HETATM   11  C7  UNL     1      16.222   8.134  23.785  1.00  0.00    -0.079 C 
HETATM   12  C8  UNL     1      17.084   8.892  24.169  1.00  0.00    -0.060 C 
BRANCH  12  13
HETATM   13  C9  UNL     1      18.093   9.803  24.634  1.00  0.00     0.077 A 
HETATM   14  C10 UNL     1      18.639  10.896  23.993  1.00  0.00     0.133 A 
HETATM   15  N3  UNL     1      19.557  11.488  24.765  1.00  0.00    -0.305 N 
HETATM   16  C11 UNL     1      20.345  12.679  24.415  1.00  0.00     0.177 C 
HETATM   17  N4  UNL     1      19.613  10.797  25.892  1.00  0.00    -0.285 N 
HETATM   18  C12 UNL     1      18.750   9.766  25.868  1.00  0.00     0.151 A 
ATOM     19  H4  UNL     1      20.229  11.016  26.675  1.00  0.00     0.188 HD
HETATM   20  N5  UNL     1      18.477   8.778  26.842  1.00  0.00    -0.080 NA
ENDBRANCH  12  13
ENDBRANCH   1  11
TORSDOF 5
ENDMDL
MODEL 4
REMARK VINA RESULT: -3.509775302      2.521      4.132
REMARK  5 active torsions:
REMARK  status: ('A' for Active; 'I' for Inactive)
REMARK    1  A    between atoms: C2_2  and  C3_3 
REMARK    2  A    between atoms: C3_3  and  C4_4 
REMARK    3  A    between atoms: N2_8  and  C6_9 
REMARK    4  A    between atoms: C6_9  and  C7_10 
REMARK    5  A    between atoms: C8_11  and  C9_12 
ROOT
HETATM    1  C6  UNL     1      15.520   7.377  23.437  1.00  0.00     0.242 C 
ENDROOT
BRANCH   1   2
HETATM    2  N2  UNL     1      14.729   7.930  22.341  1.00  0.00    -0.292 N 
HETATM    3  N1  UNL     1      13.985   9.020  22.439  1.00  0.00    -0.309 N 
HETATM    4  C5  UNL     1      13.372   9.290  21.272  1.00  0.00     0.115 A 
ATOM      5  H1  UNL     1      13.889   9.581  23.285  1.00  0.00     0.186 HD
HETATM    6  C4  UNL     1      13.753   8.300  20.367  1.00  0.00    -0.024 A 
HETATM    7  C13 UNL     1      14.598   7.476  21.082  1.00  0.00     0.119 A 
BRANCH   6   8
HETATM    8  C3  UNL     1      13.309   8.204  18.952  1.00  0.00     0.041 C 
BRANCH   8   9
HETATM    9  C2  UNL     1      13.963   9.284  18.089  1.00  0.00     0.000 C 
HETATM   10  C1  UNL     1      15.443   9.074  17.979  1.00  0.00     0.005 C 
ENDBRANCH   8   9
ENDBRANCH   6   8
ENDBRANCH   1   2
BRANCH   1  11
HETATM   11  C7  UNL     1      16.543   8.328  23.859  1.00  0.00    -0.079 C 
HETATM   12  C8  UNL     1      17.383   9.121  24.223  1.00  0.00    -0.060 C 
BRANCH  12  13
HETATM   13  C9  UNL     1      18.366  10.068  24.669  1.00  0.00     0.077 A 
HETATM   14  C10 UNL     1      18.905  11.145  23.996  1.00  0.00     0.133 A 
HETATM   15  N3  UNL     1      19.798  11.783  24.761  1.00  0.00    -0.305 N 
HETATM   16  C11 UNL     1      20.572  12.974  24.379  1.00  0.00     0.177 C 
HETATM   17  N4  UNL     1      19.844  11.138  25.915  1.00  0.00    -0.285 N 
HETATM   18  C12 UNL     1      19.000  10.091  25.916  1.00  0.00     0.151 A 
ATOM     19  H4  UNL     1      20.441  11.400  26.700  1.00  0.00     0.188 HD
HETATM   20  N5  UNL     1      18.725   9.139  26.923  1.00  0.00    -0.080 NA
ENDBRANCH  12  13
ENDBRANCH   1  11
TORSDOF 5
ENDMDL
MODEL 5
REMARK VINA RESULT: -3.499341163      2.361      3.862
REMARK  5 active torsions:
REMARK  status: ('A' for Active; 'I' for Inactive)
REMARK    1  A    between atoms: C2_2  and  C3_3 
REMARK    2  A    between atoms: C3_3  and  C4_4 
REMARK    3  A    between atoms: N2_8  and  C6_9 
REMARK    4  A    between atoms: C6_9  and  C7_10 
REMARK    5  A    between atoms: C8_11  and  C9_12 
ROOT
HETATM    1  C6  UNL     1      15.555   7.579  23.415  1.00  0.00     0.242 C 
ENDROOT
BRANCH   1   2
HETATM    2  N2  UNL     1      14.402   8.311  22.898  1.00  0.00    -0.292 N 
HETATM    3  N1  UNL     1      13.200   8.289  23.450  1.00  0.00    -0.309 N 
HETATM    4  C5  UNL     1      12.339   9.057  22.757  1.00  0.00     0.115 A 
ATOM      5  H1  UNL     1      12.958   7.761  24.288  1.00  0.00     0.186 HD
HETATM    6  C4  UNL     1      13.044   9.606  21.687  1.00  0.00    -0.024 A 
HETATM    7  C13 UNL     1      14.325   9.110  21.819  1.00  0.00     0.119 A 
BRANCH   6   8
HETATM    8  C3  UNL     1      12.484  10.520  20.658  1.00  0.00     0.041 C 
BRANCH   8   9
HETATM    9  C2  UNL     1      11.736   9.745  19.573  1.00  0.00     0.000 C 
HETATM   10  C1  UNL     1      12.671   8.904  18.758  1.00  0.00     0.005 C 
ENDBRANCH   8   9
ENDBRANCH   6   8
ENDBRANCH   1   2
BRANCH   1  11
HETATM   11  C7  UNL     1      16.595   8.506  23.848  1.00  0.00    -0.079 C 
HETATM   12  C8  UNL     1      17.449   9.280  24.221  1.00  0.00    -0.060 C 
BRANCH  12  13
HETATM   13  C9  UNL     1      18.448  10.206  24.676  1.00  0.00     0.077 A 
HETATM   14  C10 UNL     1      19.017  11.271  24.008  1.00  0.00     0.133 A 
HETATM   15  N3  UNL     1      19.915  11.890  24.781  1.00  0.00    -0.305 N 
HETATM   16  C11 UNL     1      20.718  13.063  24.406  1.00  0.00     0.177 C 
HETATM   17  N4  UNL     1      19.937  11.244  25.936  1.00  0.00    -0.285 N 
HETATM   18  C12 UNL     1      19.070  10.216  25.929  1.00  0.00     0.151 A 
ATOM     19  H4  UNL     1      20.533  11.493  26.726  1.00  0.00     0.188 HD
HETATM   20  N5  UNL     1      18.767   9.269  26.934  1.00  0.00    -0.080 NA
ENDBRANCH  12  13
ENDBRANCH   1  11
TORSDOF 5
ENDMDL
