MODEL 1
REMARK VINA RESULT: -6.426496428      0.000      0.000
REMARK  5 active torsions:
REMARK  status: ('A' for Active; 'I' for Inactive)
REMARK    1  A    between atoms: O1_2  and  C2_3 
REMARK    2  A    between atoms: C2_3  and  C3_5 
REMARK    3  A    between atoms: C3_5  and  O3_6 
REMARK    4  A    between atoms: C8_12  and  N1_13 
REMARK    5  A    between atoms: N1_13  and  C9_15 
ROOT
HETATM    1  N1  UNL     1      24.586  30.730  34.194  1.00  0.00    -0.386 N 
ATOM      2  H1  UNL     1      24.452  30.928  35.186  1.00  0.00     0.155 HD
ENDROOT
BRANCH   1   3
HETATM    3  C8  UNL     1      24.821  29.410  33.750  1.00  0.00     0.123 C 
HETATM    4  C3  UNL     1      25.460  28.638  34.919  1.00  0.00     0.165 C 
HETATM    5  C4  UNL     1      25.916  27.284  34.471  1.00  0.00     0.051 C 
HETATM    6  C5  UNL     1      24.854  26.504  33.757  1.00  0.00     0.004 C 
HETATM    7  C6  UNL     1      24.088  27.319  32.756  1.00  0.00     0.002 C 
HETATM    8  C7  UNL     1      23.584  28.597  33.431  1.00  0.00     0.028 C 
BRANCH   4   9
HETATM    9  C2  UNL     1      26.556  29.360  35.555  1.00  0.00     0.295 C 
HETATM   10  O2  UNL     1      26.901  29.092  36.752  1.00  0.00    -0.262 OA
BRANCH   9  11
HETATM   11  O1  UNL     1      27.254  30.345  34.900  1.00  0.00    -0.324 OA
HETATM   12  C1  UNL     1      27.852  31.464  35.481  1.00  0.00     0.213 C 
ENDBRANCH   9  11
ENDBRANCH   4   9
BRANCH   4  13
HETATM   13  O3  UNL     1      24.420  28.463  35.857  1.00  0.00    -0.377 OA
ATOM     14  H3  UNL     1      24.176  27.545  35.880  1.00  0.00     0.211 HD
ENDBRANCH   4  13
ENDBRANCH   1   3
BRANCH   1  15
HETATM   15  C9  UNL     1      24.539  31.771  33.241  1.00  0.00     0.309 C 
HETATM   16  C10 UNL     1      24.044  33.103  33.750  1.00  0.00     0.289 C 
HETATM   17  N2  UNL     1      24.366  33.974  32.611  1.00  0.00    -0.038 N 
HETATM   18  C11 UNL     1      25.333  33.281  31.804  1.00  0.00     0.282 C 
ATOM     19  H22 UNL     1      23.543  34.265  32.085  1.00  0.00     0.280 HD
ATOM     20  H21 UNL     1      24.677  34.903  32.895  1.00  0.00     0.280 HD
HETATM   21  C12 UNL     1      26.573  34.112  31.540  1.00  0.00     0.078 C 
HETATM   22  C13 UNL     1      24.793  32.756  30.511  1.00  0.00     0.078 C 
HETATM   23  N3  UNL     1      25.771  32.129  32.608  1.00  0.00    -0.019 N 
ATOM     24  H32 UNL     1      26.556  32.301  33.235  1.00  0.00     0.282 HD
ATOM     25  H31 UNL     1      26.235  31.382  32.092  1.00  0.00     0.282 HD
ENDBRANCH   1  15
TORSDOF 5
ENDMDL
MODEL 2
REMARK VINA RESULT: -6.370260694      1.191      1.371
REMARK  5 active torsions:
REMARK  status: ('A' for Active; 'I' for Inactive)
REMARK    1  A    between atoms: O1_2  and  C2_3 
REMARK    2  A    between atoms: C2_3  and  C3_5 
REMARK    3  A    between atoms: C3_5  and  O3_6 
REMARK    4  A    between atoms: C8_12  and  N1_13 
REMARK    5  A    between atoms: N1_13  and  C9_15 
ROOT
HETATM    1  N1  UNL     1      25.243  30.479  34.690  1.00  0.00    -0.386 N 
ATOM      2  H1  UNL     1      25.201  30.539  35.707  1.00  0.00     0.155 HD
ENDROOT
BRANCH   1   3
HETATM    3  C8  UNL     1      25.207  29.225  34.042  1.00  0.00     0.123 C 
HETATM    4  C3  UNL     1      25.573  28.156  35.089  1.00  0.00     0.165 C 
HETATM    5  C4  UNL     1      25.744  26.818  34.438  1.00  0.00     0.051 C 
HETATM    6  C5  UNL     1      24.588  26.424  33.570  1.00  0.00     0.004 C 
HETATM    7  C6  UNL     1      24.096  27.538  32.692  1.00  0.00     0.002 C 
HETATM    8  C7  UNL     1      23.845  28.779  33.552  1.00  0.00     0.028 C 
BRANCH   4   9
HETATM    9  C2  UNL     1      26.756  28.497  35.871  1.00  0.00     0.295 C 
HETATM   10  O2  UNL     1      27.123  27.762  36.844  1.00  0.00    -0.262 OA
BRANCH   9  11
HETATM   11  O1  UNL     1      27.513  29.609  35.596  1.00  0.00    -0.324 OA
HETATM   12  C1  UNL     1      28.196  30.397  36.522  1.00  0.00     0.213 C 
ENDBRANCH   9  11
ENDBRANCH   4   9
BRANCH   4  13
HETATM   13  O3  UNL     1      24.457  28.085  35.949  1.00  0.00    -0.377 OA
ATOM     14  H3  UNL     1      24.025  27.248  35.828  1.00  0.00     0.211 HD
ENDBRANCH   4  13
ENDBRANCH   1   3
BRANCH   1  15
HETATM   15  C9  UNL     1      25.337  31.649  33.905  1.00  0.00     0.309 C 
HETATM   16  C10 UNL     1      24.032  32.184  33.368  1.00  0.00     0.289 C 
HETATM   17  N2  UNL     1      24.459  33.491  32.848  1.00  0.00    -0.038 N 
HETATM   18  C11 UNL     1      25.723  33.799  33.456  1.00  0.00     0.282 C 
ATOM     19  H22 UNL     1      24.488  33.524  31.829  1.00  0.00     0.280 HD
ATOM     20  H21 UNL     1      23.761  34.222  32.985  1.00  0.00     0.280 HD
HETATM   21  C12 UNL     1      25.728  35.156  34.131  1.00  0.00     0.078 C 
HETATM   22  C13 UNL     1      26.895  33.692  32.531  1.00  0.00     0.078 C 
HETATM   23  N3  UNL     1      25.905  32.805  34.526  1.00  0.00    -0.019 N 
ATOM     24  H32 UNL     1      25.512  33.057  35.433  1.00  0.00     0.282 HD
ATOM     25  H31 UNL     1      26.857  32.697  34.872  1.00  0.00     0.282 HD
ENDBRANCH   1  15
TORSDOF 5
ENDMDL
MODEL 3
REMARK VINA RESULT: -6.057307873      3.306      5.719
REMARK  5 active torsions:
REMARK  status: ('A' for Active; 'I' for Inactive)
REMARK    1  A    between atoms: O1_2  and  C2_3 
REMARK    2  A    between atoms: C2_3  and  C3_5 
REMARK    3  A    between atoms: C3_5  and  O3_6 
REMARK    4  A    between atoms: C8_12  and  N1_13 
REMARK    5  A    between atoms: N1_13  and  C9_15 
ROOT
HETATM    1  N1  UNL     1      26.179  28.698  36.692  1.00  0.00    -0.386 N 
ATOM      2  H1  UNL     1      26.174  28.391  37.665  1.00  0.00     0.155 HD
ENDROOT
BRANCH   1   3
HETATM    3  C8  UNL     1      26.635  29.990  36.348  1.00  0.00     0.123 C 
HETATM    4  C3  UNL     1      28.070  30.129  36.892  1.00  0.00     0.165 C 
HETATM    5  C4  UNL     1      28.558  31.537  36.737  1.00  0.00     0.051 C 
HETATM    6  C5  UNL     1      28.396  32.075  35.348  1.00  0.00     0.004 C 
HETATM    7  C6  UNL     1      27.061  31.757  34.737  1.00  0.00     0.002 C 
HETATM    8  C7  UNL     1      26.798  30.254  34.867  1.00  0.00     0.028 C 
BRANCH   4   9
HETATM    9  C2  UNL     1      28.207  29.692  38.276  1.00  0.00     0.295 C 
HETATM   10  O2  UNL     1      28.402  28.464  38.552  1.00  0.00    -0.262 OA
BRANCH   9  11
HETATM   11  O1  UNL     1      28.133  30.573  39.327  1.00  0.00    -0.324 OA
HETATM   12  C1  UNL     1      27.634  30.304  40.602  1.00  0.00     0.213 C 
ENDBRANCH   9  11
ENDBRANCH   4   9
BRANCH   4  13
HETATM   13  O3  UNL     1      28.859  29.299  36.067  1.00  0.00    -0.377 OA
ATOM     14  H3  UNL     1      28.398  29.148  35.250  1.00  0.00     0.211 HD
ENDBRANCH   4  13
ENDBRANCH   1   3
BRANCH   1  15
HETATM   15  C9  UNL     1      25.730  27.839  35.665  1.00  0.00     0.309 C 
HETATM   16  C10 UNL     1      26.570  26.607  35.428  1.00  0.00     0.289 C 
HETATM   17  N2  UNL     1      25.701  25.849  34.516  1.00  0.00    -0.038 N 
HETATM   18  C11 UNL     1      24.377  26.395  34.636  1.00  0.00     0.282 C 
ATOM     19  H22 UNL     1      26.043  25.838  33.556  1.00  0.00     0.280 HD
ATOM     20  H21 UNL     1      25.733  24.842  34.680  1.00  0.00     0.280 HD
HETATM   21  C12 UNL     1      23.337  25.337  34.945  1.00  0.00     0.078 C 
HETATM   22  C13 UNL     1      23.937  27.206  33.458  1.00  0.00     0.078 C 
HETATM   23  N3  UNL     1      24.418  27.288  35.805  1.00  0.00    -0.019 N 
ATOM     24  H32 UNL     1      24.217  26.849  36.703  1.00  0.00     0.282 HD
ATOM     25  H31 UNL     1      23.659  27.966  35.870  1.00  0.00     0.282 HD
ENDBRANCH   1  15
TORSDOF 5
ENDMDL
MODEL 4
REMARK VINA RESULT: -6.038129298      1.114      1.445
REMARK  5 active torsions:
REMARK  status: ('A' for Active; 'I' for Inactive)
REMARK    1  A    between atoms: O1_2  and  C2_3 
REMARK    2  A    between atoms: C2_3  and  C3_5 
REMARK    3  A    between atoms: C3_5  and  O3_6 
REMARK    4  A    between atoms: C8_12  and  N1_13 
REMARK    5  A    between atoms: N1_13  and  C9_15 
ROOT
HETATM    1  N1  UNL     1      25.248  30.536  34.860  1.00  0.00    -0.386 N 
ATOM      2  H1  UNL     1      25.222  30.515  35.879  1.00  0.00     0.155 HD
ENDROOT
BRANCH   1   3
HETATM    3  C8  UNL     1      25.173  29.339  34.113  1.00  0.00     0.123 C 
HETATM    4  C3  UNL     1      25.512  28.180  35.069  1.00  0.00     0.165 C 
HETATM    5  C4  UNL     1      25.642  26.894  34.313  1.00  0.00     0.051 C 
HETATM    6  C5  UNL     1      24.472  26.605  33.423  1.00  0.00     0.004 C 
HETATM    7  C6  UNL     1      24.009  27.799  32.640  1.00  0.00     0.002 C 
HETATM    8  C7  UNL     1      23.797  28.974  33.598  1.00  0.00     0.028 C 
BRANCH   4   9
HETATM    9  C2  UNL     1      26.707  28.424  35.869  1.00  0.00     0.295 C 
HETATM   10  O2  UNL     1      27.036  27.622  36.803  1.00  0.00    -0.262 OA
BRANCH   9  11
HETATM   11  O1  UNL     1      27.516  29.512  35.654  1.00  0.00    -0.324 OA
HETATM   12  C1  UNL     1      28.234  30.216  36.622  1.00  0.00     0.213 C 
ENDBRANCH   9  11
ENDBRANCH   4   9
BRANCH   4  13
HETATM   13  O3  UNL     1      24.397  28.073  35.928  1.00  0.00    -0.377 OA
ATOM     14  H3  UNL     1      24.540  27.354  36.533  1.00  0.00     0.211 HD
ENDBRANCH   4  13
ENDBRANCH   1   3
BRANCH   1  15
HETATM   15  C9  UNL     1      25.357  31.763  34.169  1.00  0.00     0.309 C 
HETATM   16  C10 UNL     1      26.758  32.179  33.792  1.00  0.00     0.289 C 
HETATM   17  N2  UNL     1      26.481  33.313  32.898  1.00  0.00    -0.038 N 
HETATM   18  C11 UNL     1      25.108  33.206  32.487  1.00  0.00     0.282 C 
ATOM     19  H22 UNL     1      26.702  34.215  33.317  1.00  0.00     0.280 HD
ATOM     20  H21 UNL     1      27.129  33.369  32.112  1.00  0.00     0.280 HD
HETATM   21  C12 UNL     1      24.948  33.235  30.980  1.00  0.00     0.078 C 
HETATM   22  C13 UNL     1      24.198  34.217  33.110  1.00  0.00     0.078 C 
HETATM   23  N3  UNL     1      24.663  31.873  32.924  1.00  0.00    -0.019 N 
ATOM     24  H32 UNL     1      24.823  31.115  32.261  1.00  0.00     0.282 HD
ATOM     25  H31 UNL     1      23.654  31.736  32.967  1.00  0.00     0.282 HD
ENDBRANCH   1  15
TORSDOF 5
ENDMDL
MODEL 5
REMARK VINA RESULT: -5.883549544      3.298      5.657
REMARK  5 active torsions:
REMARK  status: ('A' for Active; 'I' for Inactive)
REMARK    1  A    between atoms: O1_2  and  C2_3 
REMARK    2  A    between atoms: C2_3  and  C3_5 
REMARK    3  A    between atoms: C3_5  and  O3_6 
REMARK    4  A    between atoms: C8_12  and  N1_13 
REMARK    5  A    between atoms: N1_13  and  C9_15 
ROOT
HETATM    1  N1  UNL     1      26.490  28.292  36.455  1.00  0.00    -0.386 N 
ATOM      2  H1  UNL     1      27.179  27.831  37.050  1.00  0.00     0.155 HD
ENDROOT
BRANCH   1   3
HETATM    3  C8  UNL     1      26.598  29.671  36.167  1.00  0.00     0.123 C 
HETATM    4  C3  UNL     1      27.935  30.160  36.755  1.00  0.00     0.165 C 
HETATM    5  C4  UNL     1      28.039  31.650  36.660  1.00  0.00     0.051 C 
HETATM    6  C5  UNL     1      27.769  32.180  35.285  1.00  0.00     0.004 C 
HETATM    7  C6  UNL     1      26.576  31.548  34.626  1.00  0.00     0.002 C 
HETATM    8  C7  UNL     1      26.714  30.025  34.699  1.00  0.00     0.028 C 
BRANCH   4   9
HETATM    9  C2  UNL     1      28.155  29.720  38.128  1.00  0.00     0.295 C 
HETATM   10  O2  UNL     1      28.475  28.513  38.379  1.00  0.00    -0.262 OA
BRANCH   9  11
HETATM   11  O1  UNL     1      28.029  30.577  39.194  1.00  0.00    -0.324 OA
HETATM   12  C1  UNL     1      27.751  30.223  40.515  1.00  0.00     0.213 C 
ENDBRANCH   9  11
ENDBRANCH   4   9
BRANCH   4  13
HETATM   13  O3  UNL     1      28.930  29.597  35.927  1.00  0.00    -0.377 OA
ATOM     14  H3  UNL     1      28.750  28.671  35.812  1.00  0.00     0.211 HD
ENDBRANCH   4  13
ENDBRANCH   1   3
BRANCH   1  15
HETATM   15  C9  UNL     1      25.413  27.564  35.905  1.00  0.00     0.309 C 
HETATM   16  C10 UNL     1      24.574  28.302  34.890  1.00  0.00     0.289 C 
HETATM   17  N2  UNL     1      23.751  27.206  34.359  1.00  0.00    -0.038 N 
HETATM   18  C11 UNL     1      24.401  25.974  34.711  1.00  0.00     0.282 C 
ATOM     19  H22 UNL     1      22.781  27.248  34.671  1.00  0.00     0.280 HD
ATOM     20  H21 UNL     1      23.571  27.290  33.358  1.00  0.00     0.280 HD
HETATM   21  C12 UNL     1      24.638  25.077  33.512  1.00  0.00     0.078 C 
HETATM   22  C13 UNL     1      23.713  25.201  35.792  1.00  0.00     0.078 C 
HETATM   23  N3  UNL     1      25.732  26.354  35.211  1.00  0.00    -0.019 N 
ATOM     24  H32 UNL     1      26.464  26.430  34.505  1.00  0.00     0.282 HD
ATOM     25  H31 UNL     1      26.217  25.646  35.760  1.00  0.00     0.282 HD
ENDBRANCH   1  15
TORSDOF 5
ENDMDL
