MODEL 1
REMARK VINA RESULT: -6.074927920      0.000      0.000
REMARK  6 active torsions:
REMARK  status: ('A' for Active; 'I' for Inactive)
REMARK    1  A    between atoms: C2_2  and  N1_3 
REMARK    2  A    between atoms: C4_6  and  C5_7 
REMARK    3  A    between atoms: C5_7  and  C6_8 
REMARK    4  A    between atoms: C7_9  and  C8_10 
REMARK    5  A    between atoms: C8_10  and  N3_11 
REMARK    6  A    between atoms: C9_15  and  N4_16 
REMARK       I    between atoms: N6_21  and  C10_22 
ROOT
HETATM    1  C6  UNL     1      28.451  31.173  37.606  1.00  0.00     0.055 A 
HETATM    2  C7  UNL     1      28.707  30.387  38.731  1.00  0.00     0.037 A 
HETATM    3  C9  UNL     1      28.705  31.215  39.841  1.00  0.00     0.124 A 
HETATM    4  N5  UNL     1      28.456  32.443  39.390  1.00  0.00    -0.276 N 
ATOM      5  H5  UNL     1      28.393  33.273  39.980  1.00  0.00     0.189 HD
HETATM    6  N6  UNL     1      28.298  32.447  38.057  1.00  0.00    -0.226 N 
HETATM    7  C10 UNL     1      27.997  33.638  37.350  1.00  0.00     0.238 C 
HETATM    8  C11 UNL     1      27.860  34.946  38.062  1.00  0.00     0.119 C 
HETATM    9  O1  UNL     1      27.835  33.663  36.122  1.00  0.00    -0.272 OA
ENDROOT
BRANCH   1  10
HETATM   10  C5  UNL     1      28.341  30.678  36.231  1.00  0.00     0.120 C 
BRANCH  10  11
HETATM   11  C4  UNL     1      26.995  30.392  35.746  1.00  0.00     0.059 A 
HETATM   12  C3  UNL     1      26.245  29.279  35.837  1.00  0.00     0.143 A 
HETATM   13  N1  UNL     1      25.050  29.466  35.195  1.00  0.00    -0.311 N 
HETATM   14  N2  UNL     1      26.580  28.066  36.491  1.00  0.00    -0.080 NA
HETATM   15  C12 UNL     1      25.096  30.713  34.716  1.00  0.00     0.179 A 
HETATM   16  N7  UNL     1      26.251  31.287  35.034  1.00  0.00    -0.333 N 
HETATM   17  S1  UNL     1      23.913  31.485  33.846  1.00  0.00    -0.040 SA
ATOM     18  H7  UNL     1      26.534  32.235  34.788  1.00  0.00     0.168 HD
BRANCH  13  19
HETATM   19  C2  UNL     1      23.955  28.563  35.037  1.00  0.00     0.128 C 
HETATM   20  C1  UNL     1      24.145  27.577  33.912  1.00  0.00     0.027 C 
ENDBRANCH  13  19
ENDBRANCH  10  11
ENDBRANCH   1  10
BRANCH   2  21
HETATM   21  C8  UNL     1      28.953  28.939  38.833  1.00  0.00     0.274 C 
BRANCH  21  22
HETATM   22  N3  UNL     1      27.706  28.241  39.162  1.00  0.00    -0.075 N 
ATOM     23  H33 UNL     1      27.392  28.444  40.112  1.00  0.00     0.274 HD
ATOM     24  H32 UNL     1      26.908  28.626  38.656  1.00  0.00     0.274 HD
ATOM     25  H31 UNL     1      27.813  27.240  39.001  1.00  0.00     0.274 HD
ENDBRANCH  21  22
ENDBRANCH   2  21
BRANCH   3  26
HETATM   26  N4  UNL     1      28.900  30.896  41.074  1.00  0.00    -0.384 N 
ATOM     27  H42 UNL     1      29.494  31.402  41.731  1.00  0.00     0.157 HD
ATOM     28  H41 UNL     1      28.509  30.109  41.592  1.00  0.00     0.157 HD
ENDBRANCH   3  26
TORSDOF 6
ENDMDL
MODEL 2
REMARK VINA RESULT: -6.072456463      2.373      5.171
REMARK  6 active torsions:
REMARK  status: ('A' for Active; 'I' for Inactive)
REMARK    1  A    between atoms: C2_2  and  N1_3 
REMARK    2  A    between atoms: C4_6  and  C5_7 
REMARK    3  A    between atoms: C5_7  and  C6_8 
REMARK    4  A    between atoms: C7_9  and  C8_10 
REMARK    5  A    between atoms: C8_10  and  N3_11 
REMARK    6  A    between atoms: C9_15  and  N4_16 
REMARK       I    between atoms: N6_21  and  C10_22 
ROOT
HETATM    1  C6  UNL     1      26.493  30.935  35.331  1.00  0.00     0.055 A 
HETATM    2  C7  UNL     1      25.594  29.892  35.099  1.00  0.00     0.037 A 
HETATM    3  C9  UNL     1      24.436  30.436  34.569  1.00  0.00     0.124 A 
HETATM    4  N5  UNL     1      24.643  31.749  34.489  1.00  0.00    -0.276 N 
ATOM      5  H5  UNL     1      23.962  32.420  34.134  1.00  0.00     0.189 HD
HETATM    6  N6  UNL     1      25.865  32.075  34.936  1.00  0.00    -0.226 N 
HETATM    7  C10 UNL     1      26.326  33.415  34.926  1.00  0.00     0.238 C 
HETATM    8  C11 UNL     1      25.458  34.527  34.428  1.00  0.00     0.119 C 
HETATM    9  O1  UNL     1      27.454  33.738  35.323  1.00  0.00    -0.272 OA
ENDROOT
BRANCH   1  10
HETATM   10  C5  UNL     1      27.850  30.783  35.864  1.00  0.00     0.120 C 
BRANCH  10  11
HETATM   11  C4  UNL     1      28.018  31.015  37.295  1.00  0.00     0.059 A 
HETATM   12  C3  UNL     1      27.994  30.160  38.333  1.00  0.00     0.143 A 
HETATM   13  N1  UNL     1      28.162  30.846  39.507  1.00  0.00    -0.311 N 
HETATM   14  N2  UNL     1      27.833  28.752  38.286  1.00  0.00    -0.080 NA
HETATM   15  C12 UNL     1      28.286  32.129  39.154  1.00  0.00     0.179 A 
HETATM   16  N7  UNL     1      28.203  32.254  37.834  1.00  0.00    -0.333 N 
HETATM   17  S1  UNL     1      28.514  33.419  40.172  1.00  0.00    -0.040 SA
ATOM     18  H7  UNL     1      28.266  33.129  37.313  1.00  0.00     0.168 HD
BRANCH  13  19
HETATM   19  C2  UNL     1      28.203  30.352  40.846  1.00  0.00     0.128 C 
HETATM   20  C1  UNL     1      26.840  30.183  41.468  1.00  0.00     0.027 C 
ENDBRANCH  13  19
ENDBRANCH  10  11
ENDBRANCH   1  10
BRANCH   2  21
HETATM   21  C8  UNL     1      25.743  28.447  35.340  1.00  0.00     0.274 C 
BRANCH  21  22
HETATM   22  N3  UNL     1      25.238  28.106  36.673  1.00  0.00    -0.075 N 
ATOM     23  H33 UNL     1      25.574  28.753  37.387  1.00  0.00     0.274 HD
ATOM     24  H32 UNL     1      24.239  28.291  36.762  1.00  0.00     0.274 HD
ATOM     25  H31 UNL     1      25.468  27.138  36.896  1.00  0.00     0.274 HD
ENDBRANCH  21  22
ENDBRANCH   2  21
BRANCH   3  26
HETATM   26  N4  UNL     1      23.359  29.825  34.212  1.00  0.00    -0.384 N 
ATOM     27  H42 UNL     1      23.271  29.195  33.415  1.00  0.00     0.157 HD
ATOM     28  H41 UNL     1      22.438  29.863  34.649  1.00  0.00     0.157 HD
ENDBRANCH   3  26
TORSDOF 6
ENDMDL
MODEL 3
REMARK VINA RESULT: -5.949976929      2.373      3.029
REMARK  6 active torsions:
REMARK  status: ('A' for Active; 'I' for Inactive)
REMARK    1  A    between atoms: C2_2  and  N1_3 
REMARK    2  A    between atoms: C4_6  and  C5_7 
REMARK    3  A    between atoms: C5_7  and  C6_8 
REMARK    4  A    between atoms: C7_9  and  C8_10 
REMARK    5  A    between atoms: C8_10  and  N3_11 
REMARK    6  A    between atoms: C9_15  and  N4_16 
REMARK       I    between atoms: N6_21  and  C10_22 
ROOT
HETATM    1  C6  UNL     1      28.825  30.267  39.228  1.00  0.00     0.055 A 
HETATM    2  C7  UNL     1      27.942  30.690  40.222  1.00  0.00     0.037 A 
HETATM    3  C9  UNL     1      28.398  31.905  40.710  1.00  0.00     0.124 A 
HETATM    4  N5  UNL     1      29.506  32.188  40.028  1.00  0.00    -0.276 N 
ATOM      5  H5  UNL     1      30.070  33.026  40.167  1.00  0.00     0.189 HD
HETATM    6  N6  UNL     1      29.785  31.226  39.135  1.00  0.00    -0.226 N 
HETATM    7  C10 UNL     1      30.906  31.318  38.272  1.00  0.00     0.238 C 
HETATM    8  C11 UNL     1      31.835  32.487  38.335  1.00  0.00     0.119 C 
HETATM    9  O1  UNL     1      31.175  30.448  37.432  1.00  0.00    -0.272 OA
ENDROOT
BRANCH   1  10
HETATM   10  C5  UNL     1      28.690  29.038  38.440  1.00  0.00     0.120 C 
BRANCH  10  11
HETATM   11  C4  UNL     1      27.672  29.044  37.394  1.00  0.00     0.059 A 
HETATM   12  C3  UNL     1      27.461  29.896  36.376  1.00  0.00     0.143 A 
HETATM   13  N1  UNL     1      26.352  29.515  35.669  1.00  0.00    -0.311 N 
HETATM   14  N2  UNL     1      28.238  31.030  36.027  1.00  0.00    -0.080 NA
HETATM   15  C12 UNL     1      25.899  28.418  36.283  1.00  0.00     0.179 A 
HETATM   16  N7  UNL     1      26.674  28.117  37.319  1.00  0.00    -0.333 N 
HETATM   17  S1  UNL     1      24.570  27.521  35.858  1.00  0.00    -0.040 SA
ATOM     18  H7  UNL     1      26.545  27.326  37.951  1.00  0.00     0.168 HD
BRANCH  13  19
HETATM   19  C2  UNL     1      25.759  30.119  34.519  1.00  0.00     0.128 C 
HETATM   20  C1  UNL     1      25.052  31.417  34.818  1.00  0.00     0.027 C 
ENDBRANCH  13  19
ENDBRANCH  10  11
ENDBRANCH   1  10
BRANCH   2  21
HETATM   21  C8  UNL     1      26.724  30.045  40.740  1.00  0.00     0.274 C 
BRANCH  21  22
HETATM   22  N3  UNL     1      27.028  29.322  41.979  1.00  0.00    -0.075 N 
ATOM     23  H33 UNL     1      27.906  28.807  41.916  1.00  0.00     0.274 HD
ATOM     24  H32 UNL     1      27.280  29.955  42.739  1.00  0.00     0.274 HD
ATOM     25  H31 UNL     1      26.246  28.717  42.230  1.00  0.00     0.274 HD
ENDBRANCH  21  22
ENDBRANCH   2  21
BRANCH   3  26
HETATM   26  N4  UNL     1      27.878  32.639  41.632  1.00  0.00    -0.384 N 
ATOM     27  H42 UNL     1      27.491  32.299  42.513  1.00  0.00     0.157 HD
ATOM     28  H41 UNL     1      27.767  33.653  41.645  1.00  0.00     0.157 HD
ENDBRANCH   3  26
TORSDOF 6
ENDMDL
MODEL 4
REMARK VINA RESULT: -5.928755579      2.165      2.442
REMARK  6 active torsions:
REMARK  status: ('A' for Active; 'I' for Inactive)
REMARK    1  A    between atoms: C2_2  and  N1_3 
REMARK    2  A    between atoms: C4_6  and  C5_7 
REMARK    3  A    between atoms: C5_7  and  C6_8 
REMARK    4  A    between atoms: C7_9  and  C8_10 
REMARK    5  A    between atoms: C8_10  and  N3_11 
REMARK    6  A    between atoms: C9_15  and  N4_16 
REMARK       I    between atoms: N6_21  and  C10_22 
ROOT
HETATM    1  C6  UNL     1      28.446  30.174  39.143  1.00  0.00     0.055 A 
HETATM    2  C7  UNL     1      27.855  30.682  40.300  1.00  0.00     0.037 A 
HETATM    3  C9  UNL     1      28.606  31.767  40.723  1.00  0.00     0.124 A 
HETATM    4  N5  UNL     1      29.602  31.894  39.848  1.00  0.00    -0.276 N 
ATOM      5  H5  UNL     1      30.325  32.611  39.898  1.00  0.00     0.189 HD
HETATM    6  N6  UNL     1      29.530  30.956  38.892  1.00  0.00    -0.226 N 
HETATM    7  C10 UNL     1      30.469  30.904  37.831  1.00  0.00     0.238 C 
HETATM    8  C11 UNL     1      31.591  31.888  37.745  1.00  0.00     0.119 C 
HETATM    9  O1  UNL     1      30.414  30.055  36.931  1.00  0.00    -0.272 OA
ENDROOT
BRANCH   1  10
HETATM   10  C5  UNL     1      27.945  29.039  38.362  1.00  0.00     0.120 C 
BRANCH  10  11
HETATM   11  C4  UNL     1      27.162  29.361  37.172  1.00  0.00     0.059 A 
HETATM   12  C3  UNL     1      26.397  28.583  36.385  1.00  0.00     0.143 A 
HETATM   13  N1  UNL     1      25.883  29.324  35.354  1.00  0.00    -0.311 N 
HETATM   14  N2  UNL     1      26.118  27.202  36.550  1.00  0.00    -0.080 NA
HETATM   15  C12 UNL     1      26.355  30.561  35.536  1.00  0.00     0.179 A 
HETATM   16  N7  UNL     1      27.123  30.607  36.619  1.00  0.00    -0.333 N 
HETATM   17  S1  UNL     1      26.057  31.885  34.583  1.00  0.00    -0.040 SA
ATOM     18  H7  UNL     1      27.602  31.434  36.976  1.00  0.00     0.168 HD
BRANCH  13  19
HETATM   19  C2  UNL     1      25.026  28.917  34.287  1.00  0.00     0.128 C 
HETATM   20  C1  UNL     1      23.564  28.922  34.653  1.00  0.00     0.027 C 
ENDBRANCH  13  19
ENDBRANCH  10  11
ENDBRANCH   1  10
BRANCH   2  21
HETATM   21  C8  UNL     1      26.657  30.228  41.026  1.00  0.00     0.274 C 
BRANCH  21  22
HETATM   22  N3  UNL     1      27.033  29.250  42.052  1.00  0.00    -0.075 N 
ATOM     23  H33 UNL     1      27.652  29.653  42.756  1.00  0.00     0.274 HD
ATOM     24  H32 UNL     1      26.249  29.014  42.661  1.00  0.00     0.274 HD
ATOM     25  H31 UNL     1      27.440  28.424  41.614  1.00  0.00     0.274 HD
ENDBRANCH  21  22
ENDBRANCH   2  21
BRANCH   3  26
HETATM   26  N4  UNL     1      28.410  32.521  41.749  1.00  0.00    -0.384 N 
ATOM     27  H42 UNL     1      28.826  32.389  42.671  1.00  0.00     0.157 HD
ATOM     28  H41 UNL     1      27.825  33.354  41.817  1.00  0.00     0.157 HD
ENDBRANCH   3  26
TORSDOF 6
ENDMDL
MODEL 5
REMARK VINA RESULT: -5.891670350      2.772      6.265
REMARK  6 active torsions:
REMARK  status: ('A' for Active; 'I' for Inactive)
REMARK    1  A    between atoms: C2_2  and  N1_3 
REMARK    2  A    between atoms: C4_6  and  C5_7 
REMARK    3  A    between atoms: C5_7  and  C6_8 
REMARK    4  A    between atoms: C7_9  and  C8_10 
REMARK    5  A    between atoms: C8_10  and  N3_11 
REMARK    6  A    between atoms: C9_15  and  N4_16 
REMARK       I    between atoms: N6_21  and  C10_22 
ROOT
HETATM    1  C6  UNL     1      26.576  29.794  35.611  1.00  0.00     0.055 A 
HETATM    2  C7  UNL     1      26.240  30.937  34.883  1.00  0.00     0.037 A 
HETATM    3  C9  UNL     1      24.981  30.743  34.340  1.00  0.00     0.124 A 
HETATM    4  N5  UNL     1      24.588  29.532  34.733  1.00  0.00    -0.276 N 
ATOM      5  H5  UNL     1      23.694  29.108  34.486  1.00  0.00     0.189 HD
HETATM    6  N6  UNL     1      25.522  28.943  35.495  1.00  0.00    -0.226 N 
HETATM    7  C10 UNL     1      25.319  27.656  36.053  1.00  0.00     0.238 C 
HETATM    8  C11 UNL     1      24.058  26.894  35.801  1.00  0.00     0.119 C 
HETATM    9  O1  UNL     1      26.162  27.098  36.770  1.00  0.00    -0.272 OA
ENDROOT
BRANCH   1  10
HETATM   10  C5  UNL     1      27.818  29.603  36.366  1.00  0.00     0.120 C 
BRANCH  10  11
HETATM   11  C4  UNL     1      27.851  30.155  37.717  1.00  0.00     0.059 A 
HETATM   12  C3  UNL     1      28.452  31.256  38.203  1.00  0.00     0.143 A 
HETATM   13  N1  UNL     1      28.234  31.351  39.551  1.00  0.00    -0.311 N 
HETATM   14  N2  UNL     1      29.203  32.217  37.479  1.00  0.00    -0.080 NA
HETATM   15  C12 UNL     1      27.491  30.286  39.867  1.00  0.00     0.179 A 
HETATM   16  N7  UNL     1      27.250  29.555  38.784  1.00  0.00    -0.333 N 
HETATM   17  S1  UNL     1      26.924  29.884  41.373  1.00  0.00    -0.040 SA
ATOM     18  H7  UNL     1      26.706  28.692  38.755  1.00  0.00     0.168 HD
BRANCH  13  19
HETATM   19  C2  UNL     1      28.679  32.347  40.472  1.00  0.00     0.128 C 
HETATM   20  C1  UNL     1      27.769  33.547  40.548  1.00  0.00     0.027 C 
ENDBRANCH  13  19
ENDBRANCH  10  11
ENDBRANCH   1  10
BRANCH   2  21
HETATM   21  C8  UNL     1      27.006  32.175  34.664  1.00  0.00     0.274 C 
BRANCH  21  22
HETATM   22  N3  UNL     1      26.687  33.153  35.709  1.00  0.00    -0.075 N 
ATOM     23  H33 UNL     1      26.898  32.799  36.643  1.00  0.00     0.274 HD
ATOM     24  H32 UNL     1      27.331  33.944  35.701  1.00  0.00     0.274 HD
ATOM     25  H31 UNL     1      25.715  33.450  35.624  1.00  0.00     0.274 HD
ENDBRANCH  21  22
ENDBRANCH   2  21
BRANCH   3  26
HETATM   26  N4  UNL     1      24.298  31.548  33.601  1.00  0.00    -0.384 N 
ATOM     27  H42 UNL     1      24.505  31.781  32.630  1.00  0.00     0.157 HD
ATOM     28  H41 UNL     1      23.461  32.076  33.849  1.00  0.00     0.157 HD
ENDBRANCH   3  26
TORSDOF 6
ENDMDL
