MODEL 1
REMARK VINA RESULT: -5.410747578      0.000      0.000
REMARK  0 active torsions:
REMARK  status: ('A' for Active; 'I' for Inactive)
ROOT
HETATM    1  N1  UNL     1      12.879  28.209   1.700  1.00  0.00    -0.233 N 
ATOM      2  H11 UNL     1      13.311  27.870   2.559  1.00  0.00     0.174 HD
ATOM      3  H12 UNL     1      13.361  27.743   0.932  1.00  0.00     0.174 HD
HETATM    4  C1  UNL     1      11.923  29.057   1.742  1.00  0.00     0.700 A 
HETATM    5  N2  UNL     1      11.343  29.510   0.588  1.00  0.00    -0.130 N 
ATOM      6  H2  UNL     1      11.596  29.238  -0.361  1.00  0.00     0.205 HD
HETATM    7  N3  UNL     1      10.403  30.360   0.927  1.00  0.00    -0.274 N 
ATOM      8  H3  UNL     1       9.805  30.856   0.266  1.00  0.00     0.189 HD
HETATM    9  C2  UNL     1      10.335  30.489   2.275  1.00  0.00     0.124 A 
HETATM   10  N4  UNL     1      11.286  29.671   2.755  1.00  0.00    -0.106 N 
HETATM   11  C3  UNL     1      11.494  29.554   4.159  1.00  0.00     0.212 A 
HETATM   12  N5  UNL     1      12.502  28.690   4.679  1.00  0.00    -0.062 NA
HETATM   13  N6  UNL     1      10.760  30.240   4.943  1.00  0.00    -0.363 N 
ATOM     14  H6  UNL     1      10.947  30.124   5.939  1.00  0.00     0.162 HD
HETATM   15  C4  UNL     1       9.717  31.145   4.615  1.00  0.00     0.130 A 
HETATM   16  C5  UNL     1       9.463  31.309   3.154  1.00  0.00     0.099 A 
ENDROOT
TORSDOF 0
ENDMDL
MODEL 2
REMARK VINA RESULT: -5.397417378      4.585      5.874
REMARK  0 active torsions:
REMARK  status: ('A' for Active; 'I' for Inactive)
ROOT
HETATM    1  N1  UNL     1      12.453  30.865   7.953  1.00  0.00    -0.233 N 
ATOM      2  H11 UNL     1      12.691  30.915   8.944  1.00  0.00     0.174 HD
ATOM      3  H12 UNL     1      13.260  30.455   7.484  1.00  0.00     0.174 HD
HETATM    4  C1  UNL     1      11.318  31.279   7.534  1.00  0.00     0.700 A 
HETATM    5  N2  UNL     1      11.000  31.212   6.205  1.00  0.00    -0.130 N 
ATOM      6  H2  UNL     1      11.595  30.850   5.460  1.00  0.00     0.205 HD
HETATM    7  N3  UNL     1       9.792  31.700   6.064  1.00  0.00    -0.274 N 
ATOM      8  H3  UNL     1       9.297  31.775   5.174  1.00  0.00     0.189 HD
HETATM    9  C2  UNL     1       9.288  32.091   7.261  1.00  0.00     0.124 A 
HETATM   10  N4  UNL     1      10.254  31.819   8.154  1.00  0.00    -0.106 N 
HETATM   11  C3  UNL     1      10.059  32.105   9.535  1.00  0.00     0.212 A 
HETATM   12  N5  UNL     1      11.077  31.822  10.491  1.00  0.00    -0.062 NA
HETATM   13  N6  UNL     1       8.952  32.622   9.899  1.00  0.00    -0.363 N 
ATOM     14  H6  UNL     1       8.859  32.810  10.898  1.00  0.00     0.162 HD
HETATM   15  C4  UNL     1       7.831  32.972   9.101  1.00  0.00     0.130 A 
HETATM   16  C5  UNL     1       7.989  32.698   7.644  1.00  0.00     0.099 A 
ENDROOT
TORSDOF 0
ENDMDL
MODEL 3
REMARK VINA RESULT: -5.368700041      4.114      5.841
REMARK  0 active torsions:
REMARK  status: ('A' for Active; 'I' for Inactive)
ROOT
HETATM    1  N1  UNL     1      11.483  30.825   9.728  1.00  0.00    -0.233 N 
ATOM      2  H11 UNL     1      10.944  31.311  10.445  1.00  0.00     0.174 HD
ATOM      3  H12 UNL     1      12.154  30.237  10.221  1.00  0.00     0.174 HD
HETATM    4  C1  UNL     1      11.242  31.021   8.488  1.00  0.00     0.700 A 
HETATM    5  N2  UNL     1      11.964  30.368   7.527  1.00  0.00    -0.130 N 
ATOM      6  H2  UNL     1      12.719  29.702   7.688  1.00  0.00     0.205 HD
HETATM    7  N3  UNL     1      11.509  30.755   6.360  1.00  0.00    -0.274 N 
ATOM      8  H3  UNL     1      11.865  30.429   5.461  1.00  0.00     0.189 HD
HETATM    9  C2  UNL     1      10.500  31.649   6.510  1.00  0.00     0.124 A 
HETATM   10  N4  UNL     1      10.356  31.796   7.838  1.00  0.00    -0.106 N 
HETATM   11  C3  UNL     1       9.365  32.675   8.361  1.00  0.00     0.212 A 
HETATM   12  N5  UNL     1       9.203  32.838   9.768  1.00  0.00    -0.062 NA
HETATM   13  N6  UNL     1       8.625  33.314   7.544  1.00  0.00    -0.363 N 
ATOM     14  H6  UNL     1       7.931  33.932   7.966  1.00  0.00     0.162 HD
HETATM   15  C4  UNL     1       8.637  33.282   6.125  1.00  0.00     0.130 A 
HETATM   16  C5  UNL     1       9.663  32.381   5.526  1.00  0.00     0.099 A 
ENDROOT
TORSDOF 0
ENDMDL
MODEL 4
REMARK VINA RESULT: -5.169571250      4.441      6.231
REMARK  0 active torsions:
REMARK  status: ('A' for Active; 'I' for Inactive)
ROOT
HETATM    1  N1  UNL     1       8.057  32.548   7.094  1.00  0.00    -0.233 N 
ATOM      2  H11 UNL     1       7.696  32.930   7.968  1.00  0.00     0.174 HD
ATOM      3  H12 UNL     1       7.309  32.643   6.408  1.00  0.00     0.174 HD
HETATM    4  C1  UNL     1       9.244  32.077   7.030  1.00  0.00     0.700 A 
HETATM    5  N2  UNL     1       9.728  31.565   5.857  1.00  0.00    -0.130 N 
ATOM      6  H2  UNL     1       9.226  31.509   4.971  1.00  0.00     0.205 HD
HETATM    7  N3  UNL     1      10.954  31.157   6.081  1.00  0.00    -0.274 N 
ATOM      8  H3  UNL     1      11.559  30.729   5.380  1.00  0.00     0.189 HD
HETATM    9  C2  UNL     1      11.308  31.383   7.371  1.00  0.00     0.124 A 
HETATM   10  N4  UNL     1      10.231  31.953   7.936  1.00  0.00    -0.106 N 
HETATM   11  C3  UNL     1      10.253  32.331   9.309  1.00  0.00     0.212 A 
HETATM   12  N5  UNL     1       9.116  32.936   9.919  1.00  0.00    -0.062 NA
HETATM   13  N6  UNL     1      11.314  32.117   9.982  1.00  0.00    -0.363 N 
ATOM     14  H6  UNL     1      11.282  32.404  10.960  1.00  0.00     0.162 HD
HETATM   15  C4  UNL     1      12.534  31.532   9.552  1.00  0.00     0.130 A 
HETATM   16  C5  UNL     1      12.559  31.111   8.122  1.00  0.00     0.099 A 
ENDROOT
TORSDOF 0
ENDMDL
MODEL 5
REMARK VINA RESULT: -5.166137805      4.797      6.592
REMARK  0 active torsions:
REMARK  status: ('A' for Active; 'I' for Inactive)
ROOT
HETATM    1  N1  UNL     1      12.719  31.058   7.626  1.00  0.00    -0.233 N 
ATOM      2  H11 UNL     1      12.613  31.277   6.635  1.00  0.00     0.174 HD
ATOM      3  H12 UNL     1      13.653  30.665   7.736  1.00  0.00     0.174 HD
HETATM    4  C1  UNL     1      11.769  31.293   8.450  1.00  0.00     0.700 A 
HETATM    5  N2  UNL     1      11.912  31.000   9.779  1.00  0.00    -0.130 N 
ATOM      6  H2  UNL     1      12.735  30.592  10.221  1.00  0.00     0.205 HD
HETATM    7  N3  UNL     1      10.797  31.339  10.379  1.00  0.00    -0.274 N 
ATOM      8  H3  UNL     1      10.620  31.231  11.378  1.00  0.00     0.189 HD
HETATM    9  C2  UNL     1       9.909  31.852   9.491  1.00  0.00     0.124 A 
HETATM   10  N4  UNL     1      10.537  31.812   8.304  1.00  0.00    -0.106 N 
HETATM   11  C3  UNL     1       9.886  32.285   7.129  1.00  0.00     0.212 A 
HETATM   12  N5  UNL     1      10.543  32.246   5.864  1.00  0.00    -0.062 NA
HETATM   13  N6  UNL     1       8.702  32.743   7.232  1.00  0.00    -0.363 N 
ATOM     14  H6  UNL     1       8.277  33.069   6.363  1.00  0.00     0.162 HD
HETATM   15  C4  UNL     1       7.894  32.862   8.393  1.00  0.00     0.130 A 
HETATM   16  C5  UNL     1       8.528  32.373   9.652  1.00  0.00     0.099 A 
ENDROOT
TORSDOF 0
ENDMDL
