MODEL 1
REMARK VINA RESULT: -8.711697040      0.000      0.000
REMARK  0 active torsions:
REMARK  status: ('A' for Active; 'I' for Inactive)
ROOT
HETATM    1  C1  UNL     1      23.256 -10.749  45.793  1.00  0.00     0.056 C 
HETATM    2  C2  UNL     1      23.037  -9.819  44.646  1.00  0.00    -0.020 A 
HETATM    3  C3  UNL     1      24.028  -8.992  44.160  1.00  0.00     0.026 A 
HETATM    4  C4  UNL     1      23.905  -8.122  43.124  1.00  0.00    -0.020 A 
HETATM    5  C5  UNL     1      25.042  -7.378  42.798  1.00  0.00     0.029 A 
HETATM    6  C6  UNL     1      25.062  -6.460  41.772  1.00  0.00     0.089 A 
HETATM    7  N1  UNL     1      23.953  -6.280  41.072  1.00  0.00    -0.364 N 
ATOM      8  H1  UNL     1      23.954  -5.603  40.310  1.00  0.00     0.165 HD
HETATM    9  C7  UNL     1      22.825  -6.964  41.336  1.00  0.00     0.062 A 
HETATM   10  C8  UNL     1      21.708  -6.724  40.564  1.00  0.00     0.147 A 
HETATM   11  N2  UNL     1      20.545  -7.366  40.763  1.00  0.00    -0.263 N 
HETATM   12  N3  UNL     1      19.364  -7.309  40.169  1.00  0.00    -0.293 N 
ATOM     13  H3  UNL     1      19.142  -6.700  39.382  1.00  0.00     0.187 HD
HETATM   14  C9  UNL     1      18.499  -8.160  40.739  1.00  0.00     0.061 A 
HETATM   15  C10 UNL     1      17.154  -8.449  40.461  1.00  0.00     0.032 A 
HETATM   16  C11 UNL     1      16.542  -9.393  41.249  1.00  0.00     0.002 A 
HETATM   17  C12 UNL     1      17.216 -10.027  42.266  1.00  0.00     0.001 A 
HETATM   18  C13 UNL     1      18.563  -9.726  42.532  1.00  0.00     0.016 A 
HETATM   19  C14 UNL     1      19.189  -8.791  41.760  1.00  0.00     0.022 A 
HETATM   20  C15 UNL     1      20.471  -8.269  41.748  1.00  0.00     0.086 A 
HETATM   21  C16 UNL     1      21.568  -8.538  42.544  1.00  0.00     0.048 A 
HETATM   22  S1  UNL     1      21.557  -9.676  43.821  1.00  0.00    -0.092 SA
HETATM   23  C17 UNL     1      22.778  -7.896  42.363  1.00  0.00     0.022 A 
ENDROOT
TORSDOF 0
ENDMDL
MODEL 2
REMARK VINA RESULT: -8.686265210      2.201      6.460
REMARK  0 active torsions:
REMARK  status: ('A' for Active; 'I' for Inactive)
ROOT
HETATM    1  C1  UNL     1      18.034  -6.462  38.883  1.00  0.00     0.056 C 
HETATM    2  C2  UNL     1      18.443  -7.283  40.060  1.00  0.00    -0.020 A 
HETATM    3  C3  UNL     1      17.544  -8.023  40.800  1.00  0.00     0.026 A 
HETATM    4  C4  UNL     1      17.840  -8.792  41.880  1.00  0.00    -0.020 A 
HETATM    5  C5  UNL     1      16.769  -9.460  42.480  1.00  0.00     0.029 A 
HETATM    6  C6  UNL     1      16.922 -10.272  43.581  1.00  0.00     0.089 A 
HETATM    7  N1  UNL     1      18.137 -10.420  44.085  1.00  0.00    -0.364 N 
ATOM      8  H1  UNL     1      18.264 -11.019  44.901  1.00  0.00     0.165 HD
HETATM    9  C7  UNL     1      19.209  -9.805  43.554  1.00  0.00     0.062 A 
HETATM   10  C8  UNL     1      20.444 -10.007  44.133  1.00  0.00     0.147 A 
HETATM   11  N2  UNL     1      21.562  -9.430  43.662  1.00  0.00    -0.263 N 
HETATM   12  N3  UNL     1      22.830  -9.469  44.037  1.00  0.00    -0.293 N 
ATOM     13  H3  UNL     1      23.182 -10.006  44.829  1.00  0.00     0.187 HD
HETATM   14  C9  UNL     1      23.590  -8.709  43.236  1.00  0.00     0.061 A 
HETATM   15  C10 UNL     1      24.968  -8.440  43.237  1.00  0.00     0.032 A 
HETATM   16  C11 UNL     1      25.441  -7.599  42.259  1.00  0.00     0.002 A 
HETATM   17  C12 UNL     1      24.604  -7.045  41.321  1.00  0.00     0.001 A 
HETATM   18  C13 UNL     1      23.226  -7.324  41.334  1.00  0.00     0.016 A 
HETATM   19  C14 UNL     1      22.737  -8.157  42.297  1.00  0.00     0.022 A 
HETATM   20  C15 UNL     1      21.470  -8.629  42.593  1.00  0.00     0.086 A 
HETATM   21  C16 UNL     1      20.250  -8.402  41.985  1.00  0.00     0.048 A 
HETATM   22  S1  UNL     1      20.046  -7.396  40.617  1.00  0.00    -0.092 SA
HETATM   23  C17 UNL     1      19.083  -8.982  42.444  1.00  0.00     0.022 A 
ENDROOT
TORSDOF 0
ENDMDL
MODEL 3
REMARK VINA RESULT: -8.554644852      1.310      5.625
REMARK  0 active torsions:
REMARK  status: ('A' for Active; 'I' for Inactive)
ROOT
HETATM    1  C1  UNL     1      16.105 -11.144  43.546  1.00  0.00     0.056 C 
HETATM    2  C2  UNL     1      16.966 -10.207  42.766  1.00  0.00    -0.020 A 
HETATM    3  C3  UNL     1      16.490  -9.472  41.701  1.00  0.00     0.026 A 
HETATM    4  C4  UNL     1      17.210  -8.602  40.945  1.00  0.00    -0.020 A 
HETATM    5  C5  UNL     1      16.524  -7.961  39.910  1.00  0.00     0.029 A 
HETATM    6  C6  UNL     1      17.127  -7.056  39.066  1.00  0.00     0.089 A 
HETATM    7  N1  UNL     1      18.410  -6.788  39.250  1.00  0.00    -0.364 N 
ATOM      8  H1  UNL     1      18.869  -6.120  38.631  1.00  0.00     0.165 HD
HETATM    9  C7  UNL     1      19.127  -7.371  40.227  1.00  0.00     0.062 A 
HETATM   10  C8  UNL     1      20.459  -7.043  40.358  1.00  0.00     0.147 A 
HETATM   11  N2  UNL     1      21.242  -7.581  41.309  1.00  0.00    -0.263 N 
HETATM   12  N3  UNL     1      22.518  -7.428  41.627  1.00  0.00    -0.293 N 
ATOM     13  H3  UNL     1      23.164  -6.808  41.140  1.00  0.00     0.187 HD
HETATM   14  C9  UNL     1      22.845  -8.197  42.674  1.00  0.00     0.061 A 
HETATM   15  C10 UNL     1      24.057  -8.374  43.360  1.00  0.00     0.032 A 
HETATM   16  C11 UNL     1      24.058  -9.255  44.413  1.00  0.00     0.002 A 
HETATM   17  C12 UNL     1      22.922  -9.936  44.780  1.00  0.00     0.001 A 
HETATM   18  C13 UNL     1      21.715  -9.749  44.083  1.00  0.00     0.016 A 
HETATM   19  C14 UNL     1      21.695  -8.877  43.035  1.00  0.00     0.022 A 
HETATM   20  C15 UNL     1      20.707  -8.467  42.156  1.00  0.00     0.086 A 
HETATM   21  C16 UNL     1      19.375  -8.822  42.058  1.00  0.00     0.048 A 
HETATM   22  S1  UNL     1      18.613  -9.945  43.099  1.00  0.00    -0.092 SA
HETATM   23  C17 UNL     1      18.544  -8.287  41.092  1.00  0.00     0.022 A 
ENDROOT
TORSDOF 0
ENDMDL
MODEL 4
REMARK VINA RESULT: -8.399543132      2.985      6.588
REMARK  0 active torsions:
REMARK  status: ('A' for Active; 'I' for Inactive)
ROOT
HETATM    1  C1  UNL     1      17.185  -5.865  38.521  1.00  0.00     0.056 C 
HETATM    2  C2  UNL     1      17.398  -6.711  39.732  1.00  0.00    -0.020 A 
HETATM    3  C3  UNL     1      16.433  -6.875  40.704  1.00  0.00     0.026 A 
HETATM    4  C4  UNL     1      16.553  -7.626  41.830  1.00  0.00    -0.020 A 
HETATM    5  C5  UNL     1      15.445  -7.650  42.682  1.00  0.00     0.029 A 
HETATM    6  C6  UNL     1      15.425  -8.369  43.856  1.00  0.00     0.089 A 
HETATM    7  N1  UNL     1      16.505  -9.061  44.184  1.00  0.00    -0.364 N 
ATOM      8  H1  UNL     1      16.504  -9.597  45.051  1.00  0.00     0.165 HD
HETATM    9  C7  UNL     1      17.603  -9.079  43.407  1.00  0.00     0.062 A 
HETATM   10  C8  UNL     1      18.690  -9.824  43.813  1.00  0.00     0.147 A 
HETATM   11  N2  UNL     1      19.823  -9.893  43.094  1.00  0.00    -0.263 N 
HETATM   12  N3  UNL     1      20.972 -10.524  43.270  1.00  0.00    -0.293 N 
ATOM     13  H3  UNL     1      21.188 -11.119  44.071  1.00  0.00     0.187 HD
HETATM   14  C9  UNL     1      21.814 -10.280  42.257  1.00  0.00     0.061 A 
HETATM   15  C10 UNL     1      23.124 -10.717  42.004  1.00  0.00     0.032 A 
HETATM   16  C11 UNL     1      23.720 -10.273  40.849  1.00  0.00     0.002 A 
HETATM   17  C12 UNL     1      23.064  -9.437  39.978  1.00  0.00     0.001 A 
HETATM   18  C13 UNL     1      21.753  -9.006  40.245  1.00  0.00     0.016 A 
HETATM   19  C14 UNL     1      21.144  -9.437  41.387  1.00  0.00     0.022 A 
HETATM   20  C15 UNL     1      19.896  -9.214  41.943  1.00  0.00     0.086 A 
HETATM   21  C16 UNL     1      18.828  -8.456  41.502  1.00  0.00     0.048 A 
HETATM   22  S1  UNL     1      18.838  -7.559  40.046  1.00  0.00    -0.092 SA
HETATM   23  C17 UNL     1      17.650  -8.365  42.218  1.00  0.00     0.022 A 
ENDROOT
TORSDOF 0
ENDMDL
MODEL 5
REMARK VINA RESULT: -8.329196147      2.818      4.513
REMARK  0 active torsions:
REMARK  status: ('A' for Active; 'I' for Inactive)
ROOT
HETATM    1  C1  UNL     1      22.718  -6.768  40.008  1.00  0.00     0.056 C 
HETATM    2  C2  UNL     1      21.806  -7.465  40.962  1.00  0.00    -0.020 A 
HETATM    3  C3  UNL     1      22.220  -8.516  41.754  1.00  0.00     0.026 A 
HETATM    4  C4  UNL     1      21.451  -9.198  42.642  1.00  0.00    -0.020 A 
HETATM    5  C5  UNL     1      22.079 -10.233  43.342  1.00  0.00     0.029 A 
HETATM    6  C6  UNL     1      21.422 -11.006  44.273  1.00  0.00     0.089 A 
HETATM    7  N1  UNL     1      20.144 -10.752  44.507  1.00  0.00    -0.364 N 
ATOM      8  H1  UNL     1      19.646 -11.318  45.194  1.00  0.00     0.165 HD
HETATM    9  C7  UNL     1      19.484  -9.771  43.868  1.00  0.00     0.062 A 
HETATM   10  C8  UNL     1      18.153  -9.565  44.165  1.00  0.00     0.147 A 
HETATM   11  N2  UNL     1      17.424  -8.605  43.570  1.00  0.00    -0.263 N 
HETATM   12  N3  UNL     1      16.162  -8.223  43.684  1.00  0.00    -0.293 N 
ATOM     13  H3  UNL     1      15.483  -8.651  44.314  1.00  0.00     0.187 HD
HETATM   14  C9  UNL     1      15.896  -7.198  42.863  1.00  0.00     0.061 A 
HETATM   15  C10 UNL     1      14.720  -6.467  42.633  1.00  0.00     0.032 A 
HETATM   16  C11 UNL     1      14.783  -5.456  41.705  1.00  0.00     0.002 A 
HETATM   17  C12 UNL     1      15.946  -5.172  41.030  1.00  0.00     0.001 A 
HETATM   18  C13 UNL     1      17.116  -5.914  41.271  1.00  0.00     0.016 A 
HETATM   19  C14 UNL     1      17.073  -6.922  42.189  1.00  0.00     0.022 A 
HETATM   20  C15 UNL     1      18.013  -7.825  42.657  1.00  0.00     0.086 A 
HETATM   21  C16 UNL     1      19.344  -7.999  42.332  1.00  0.00     0.048 A 
HETATM   22  S1  UNL     1      20.172  -7.046  41.178  1.00  0.00    -0.092 SA
HETATM   23  C17 UNL     1      20.121  -8.976  42.926  1.00  0.00     0.022 A 
ENDROOT
TORSDOF 0
ENDMDL
