MODEL 1
REMARK VINA RESULT: -8.697295796      0.000      0.000
REMARK  1 active torsions:
REMARK  status: ('A' for Active; 'I' for Inactive)
REMARK    1  A    between atoms: C10_12  and  O2_13 
ROOT
HETATM    1  O1  UNL     1      24.228 -10.973  41.434  1.00  0.00    -0.247 OA
HETATM    2  S1  UNL     1      23.972 -10.088  42.809  1.00  0.00     0.086 S 
HETATM    3  C1  UNL     1      24.563  -8.447  42.689  1.00  0.00     0.047 A 
HETATM    4  C2  UNL     1      25.794  -8.294  43.249  1.00  0.00     0.022 A 
HETATM    5  C3  UNL     1      26.429  -7.056  43.297  1.00  0.00     0.002 A 
HETATM    6  C4  UNL     1      25.756  -5.986  42.751  1.00  0.00     0.001 A 
HETATM    7  C5  UNL     1      24.514  -6.089  42.176  1.00  0.00     0.014 A 
HETATM    8  C6  UNL     1      23.929  -7.322  42.148  1.00  0.00    -0.005 A 
HETATM    9  C7  UNL     1      22.634  -7.288  41.487  1.00  0.00    -0.013 A 
HETATM   10  C8  UNL     1      22.622  -6.372  40.470  1.00  0.00     0.016 A 
HETATM   11  C9  UNL     1      21.459  -6.234  39.739  1.00  0.00     0.037 A 
HETATM   12  C10 UNL     1      20.330  -6.982  39.999  1.00  0.00     0.066 A 
HETATM   13  C11 UNL     1      20.348  -7.909  41.027  1.00  0.00     0.049 A 
HETATM   14  C12 UNL     1      21.492  -8.066  41.774  1.00  0.00    -0.011 A 
HETATM   15  C13 UNL     1      21.328  -9.077  42.782  1.00  0.00    -0.005 A 
HETATM   16  C14 UNL     1      20.046  -9.088  43.264  1.00  0.00     0.014 A 
HETATM   17  C15 UNL     1      19.762 -10.052  44.230  1.00  0.00     0.001 A 
HETATM   18  C16 UNL     1      20.675 -10.958  44.706  1.00  0.00     0.002 A 
HETATM   19  C17 UNL     1      21.964 -10.914  44.194  1.00  0.00     0.022 A 
HETATM   20  C18 UNL     1      22.278  -9.983  43.247  1.00  0.00     0.047 A 
ENDROOT
BRANCH  12  21
HETATM   21  O2  UNL     1      19.158  -6.820  39.238  1.00  0.00    -0.361 OA
ATOM     22  H2  UNL     1      18.490  -7.495  39.217  1.00  0.00     0.217 HD
ENDBRANCH  12  21
TORSDOF 1
ENDMDL
MODEL 2
REMARK VINA RESULT: -8.095091886      4.317      7.516
REMARK  1 active torsions:
REMARK  status: ('A' for Active; 'I' for Inactive)
REMARK    1  A    between atoms: C10_12  and  O2_13 
ROOT
HETATM    1  O1  UNL     1      17.038  -8.176  38.521  1.00  0.00    -0.247 OA
HETATM    2  S1  UNL     1      17.520  -6.910  39.473  1.00  0.00     0.086 S 
HETATM    3  C1  UNL     1      16.241  -6.292  40.492  1.00  0.00     0.047 A 
HETATM    4  C2  UNL     1      15.634  -5.197  39.962  1.00  0.00     0.022 A 
HETATM    5  C3  UNL     1      14.617  -4.524  40.632  1.00  0.00     0.002 A 
HETATM    6  C4  UNL     1      14.247  -5.018  41.864  1.00  0.00     0.001 A 
HETATM    7  C5  UNL     1      14.828  -6.118  42.442  1.00  0.00     0.014 A 
HETATM    8  C6  UNL     1      15.821  -6.748  41.748  1.00  0.00    -0.005 A 
HETATM    9  C7  UNL     1      16.324  -7.910  42.464  1.00  0.00    -0.013 A 
HETATM   10  C8  UNL     1      15.326  -8.524  43.172  1.00  0.00     0.016 A 
HETATM   11  C9  UNL     1      15.651  -9.654  43.897  1.00  0.00     0.037 A 
HETATM   12  C10 UNL     1      16.929 -10.172  43.924  1.00  0.00     0.066 A 
HETATM   13  C11 UNL     1      17.933  -9.549  43.204  1.00  0.00     0.049 A 
HETATM   14  C12 UNL     1      17.639  -8.420  42.475  1.00  0.00    -0.011 A 
HETATM   15  C13 UNL     1      18.798  -7.922  41.786  1.00  0.00    -0.005 A 
HETATM   16  C14 UNL     1      19.936  -8.132  42.521  1.00  0.00     0.014 A 
HETATM   17  C15 UNL     1      21.130  -7.714  41.936  1.00  0.00     0.001 A 
HETATM   18  C16 UNL     1      21.217  -7.122  40.702  1.00  0.00     0.002 A 
HETATM   19  C17 UNL     1      20.043  -6.925  39.989  1.00  0.00     0.022 A 
HETATM   20  C18 UNL     1      18.855  -7.321  40.531  1.00  0.00     0.047 A 
ENDROOT
BRANCH  12  21
HETATM   21  O2  UNL     1      17.230 -11.325  44.671  1.00  0.00    -0.361 OA
ATOM     22  H2  UNL     1      18.065 -11.419  45.113  1.00  0.00     0.217 HD
ENDBRANCH  12  21
TORSDOF 1
ENDMDL
MODEL 3
REMARK VINA RESULT: -8.091757280      1.300      1.743
REMARK  1 active torsions:
REMARK  status: ('A' for Active; 'I' for Inactive)
REMARK    1  A    between atoms: C10_12  and  O2_13 
ROOT
HETATM    1  O1  UNL     1      21.962 -11.357  41.916  1.00  0.00    -0.247 OA
HETATM    2  S1  UNL     1      21.857 -10.248  43.140  1.00  0.00     0.086 S 
HETATM    3  C1  UNL     1      22.858  -8.840  42.879  1.00  0.00     0.047 A 
HETATM    4  C2  UNL     1      24.049  -8.917  43.532  1.00  0.00     0.022 A 
HETATM    5  C3  UNL     1      24.978  -7.882  43.490  1.00  0.00     0.002 A 
HETATM    6  C4  UNL     1      24.640  -6.768  42.754  1.00  0.00     0.001 A 
HETATM    7  C5  UNL     1      23.453  -6.641  42.078  1.00  0.00     0.014 A 
HETATM    8  C6  UNL     1      22.572  -7.682  42.145  1.00  0.00    -0.005 A 
HETATM    9  C7  UNL     1      21.374  -7.424  41.361  1.00  0.00    -0.013 A 
HETATM   10  C8  UNL     1      21.663  -6.688  40.243  1.00  0.00     0.016 A 
HETATM   11  C9  UNL     1      20.624  -6.373  39.391  1.00  0.00     0.037 A 
HETATM   12  C10 UNL     1      19.325  -6.773  39.630  1.00  0.00     0.066 A 
HETATM   13  C11 UNL     1      19.039  -7.518  40.760  1.00  0.00     0.049 A 
HETATM   14  C12 UNL     1      20.054  -7.845  41.628  1.00  0.00    -0.011 A 
HETATM   15  C13 UNL     1      19.571  -8.629  42.732  1.00  0.00    -0.005 A 
HETATM   16  C14 UNL     1      18.302  -8.254  43.084  1.00  0.00     0.014 A 
HETATM   17  C15 UNL     1      17.718  -8.968  44.129  1.00  0.00     0.001 A 
HETATM   18  C16 UNL     1      18.334  -9.995  44.799  1.00  0.00     0.002 A 
HETATM   19  C17 UNL     1      19.620 -10.345  44.414  1.00  0.00     0.022 A 
HETATM   20  C18 UNL     1      20.224  -9.666  43.395  1.00  0.00     0.047 A 
ENDROOT
BRANCH  12  21
HETATM   21  O2  UNL     1      18.286  -6.437  38.744  1.00  0.00    -0.361 OA
ATOM     22  H2  UNL     1      17.539  -5.928  39.034  1.00  0.00     0.217 HD
ENDBRANCH  12  21
TORSDOF 1
ENDMDL
MODEL 4
REMARK VINA RESULT: -8.078902669      3.397      6.143
REMARK  1 active torsions:
REMARK  status: ('A' for Active; 'I' for Inactive)
REMARK    1  A    between atoms: C10_12  and  O2_13 
ROOT
HETATM    1  O1  UNL     1      18.911  -5.789  43.225  1.00  0.00    -0.247 OA
HETATM    2  S1  UNL     1      19.503  -6.951  42.206  1.00  0.00     0.086 S 
HETATM    3  C1  UNL     1      20.128  -8.350  43.048  1.00  0.00     0.047 A 
HETATM    4  C2  UNL     1      21.478  -8.305  43.204  1.00  0.00     0.022 A 
HETATM    5  C3  UNL     1      22.182  -9.341  43.812  1.00  0.00     0.002 A 
HETATM    6  C4  UNL     1      21.448 -10.419  44.254  1.00  0.00     0.001 A 
HETATM    7  C5  UNL     1      20.086 -10.512  44.121  1.00  0.00     0.014 A 
HETATM    8  C6  UNL     1      19.436  -9.473  43.520  1.00  0.00    -0.005 A 
HETATM    9  C7  UNL     1      17.999  -9.692  43.472  1.00  0.00    -0.013 A 
HETATM   10  C8  UNL     1      17.567 -10.377  44.576  1.00  0.00     0.016 A 
HETATM   11  C9  UNL     1      16.217 -10.651  44.678  1.00  0.00     0.037 A 
HETATM   12  C10 UNL     1      15.309 -10.258  43.717  1.00  0.00     0.066 A 
HETATM   13  C11 UNL     1      15.751  -9.563  42.604  1.00  0.00     0.049 A 
HETATM   14  C12 UNL     1      17.091  -9.279  42.475  1.00  0.00    -0.011 A 
HETATM   15  C13 UNL     1      17.359  -8.544  41.269  1.00  0.00    -0.005 A 
HETATM   16  C14 UNL     1      16.517  -8.931  40.259  1.00  0.00     0.014 A 
HETATM   17  C15 UNL     1      16.667  -8.262  39.046  1.00  0.00     0.001 A 
HETATM   18  C16 UNL     1      17.586  -7.269  38.822  1.00  0.00     0.002 A 
HETATM   19  C17 UNL     1      18.421  -6.905  39.869  1.00  0.00     0.022 A 
HETATM   20  C18 UNL     1      18.304  -7.540  41.071  1.00  0.00     0.047 A 
ENDROOT
BRANCH  12  21
HETATM   21  O2  UNL     1      13.940 -10.551  43.847  1.00  0.00    -0.361 OA
ATOM     22  H2  UNL     1      13.277  -9.937  43.554  1.00  0.00     0.217 HD
ENDBRANCH  12  21
TORSDOF 1
ENDMDL
MODEL 5
REMARK VINA RESULT: -7.646530951      3.121      5.960
REMARK  1 active torsions:
REMARK  status: ('A' for Active; 'I' for Inactive)
REMARK    1  A    between atoms: C10_12  and  O2_13 
ROOT
HETATM    1  O1  UNL     1      18.932  -5.665  43.805  1.00  0.00    -0.247 OA
HETATM    2  S1  UNL     1      19.633  -7.115  43.423  1.00  0.00     0.086 S 
HETATM    3  C1  UNL     1      18.468  -8.386  43.137  1.00  0.00     0.047 A 
HETATM    4  C2  UNL     1      18.276  -9.173  44.230  1.00  0.00     0.022 A 
HETATM    5  C3  UNL     1      17.419 -10.269  44.203  1.00  0.00     0.002 A 
HETATM    6  C4  UNL     1      16.768 -10.526  43.017  1.00  0.00     0.001 A 
HETATM    7  C5  UNL     1      16.928  -9.763  41.887  1.00  0.00     0.014 A 
HETATM    8  C6  UNL     1      17.776  -8.696  41.959  1.00  0.00    -0.005 A 
HETATM    9  C7  UNL     1      17.827  -7.963  40.704  1.00  0.00    -0.013 A 
HETATM   10  C8  UNL     1      16.612  -7.981  40.072  1.00  0.00     0.016 A 
HETATM   11  C9  UNL     1      16.500  -7.315  38.868  1.00  0.00     0.037 A 
HETATM   12  C10 UNL     1      17.560  -6.641  38.296  1.00  0.00     0.066 A 
HETATM   13  C11 UNL     1      18.785  -6.624  38.939  1.00  0.00     0.049 A 
HETATM   14  C12 UNL     1      18.926  -7.282  40.139  1.00  0.00    -0.011 A 
HETATM   15  C13 UNL     1      20.257  -7.144  40.662  1.00  0.00    -0.005 A 
HETATM   16  C14 UNL     1      21.182  -7.108  39.651  1.00  0.00     0.014 A 
HETATM   17  C15 UNL     1      22.510  -6.946  40.040  1.00  0.00     0.001 A 
HETATM   18  C16 UNL     1      22.922  -6.827  41.343  1.00  0.00     0.002 A 
HETATM   19  C17 UNL     1      21.956  -6.870  42.339  1.00  0.00     0.022 A 
HETATM   20  C18 UNL     1      20.645  -7.028  41.995  1.00  0.00     0.047 A 
ENDROOT
BRANCH  12  21
HETATM   21  O2  UNL     1      17.417  -5.971  37.068  1.00  0.00    -0.361 OA
ATOM     22  H2  UNL     1      18.005  -5.267  36.822  1.00  0.00     0.217 HD
ENDBRANCH  12  21
TORSDOF 1
ENDMDL
