MODEL 1
REMARK VINA RESULT: -7.754842947      0.000      0.000
REMARK  13 active torsions:
REMARK  status: ('A' for Active; 'I' for Inactive)
REMARK    1  A    between atoms: N1_1  and  C1_5 
REMARK    2  A    between atoms: C1_5  and  N2_6 
REMARK    3  A    between atoms: N2_6  and  C2_9 
REMARK    4  A    between atoms: C2_9  and  C3_10 
REMARK    5  A    between atoms: C2_9  and  C10_31 
REMARK    6  A    between atoms: C3_10  and  C4_11 
REMARK    7  A    between atoms: C4_11  and  C5_12 
REMARK    8  A    between atoms: C6_13  and  C7_14 
REMARK    9  A    between atoms: C7_14  and  N3_15 
REMARK   10  A    between atoms: C7_14  and  O1_19 
REMARK   11  A    between atoms: C8_23  and  N5_24 
REMARK   12  A    between atoms: C12_34  and  N7_35 
REMARK   13  A    between atoms: N7_35  and  C13_37 
ROOT
HETATM    1  C2  UNL     1      58.667   8.703  29.258  1.00  0.00     0.238 C 
ENDROOT
BRANCH   1   2
HETATM    2  N2  UNL     1      59.070   7.844  30.318  1.00  0.00    -0.042 N 
ATOM      3  H22 UNL     1      59.205   6.890  29.982  1.00  0.00     0.280 HD
ATOM      4  H21 UNL     1      58.301   7.685  30.969  1.00  0.00     0.280 HD
BRANCH   2   5
HETATM    5  C1  UNL     1      60.219   8.302  31.000  1.00  0.00     0.461 C 
BRANCH   5   6
HETATM    6  N1  UNL     1      60.382   9.698  31.127  1.00  0.00    -0.055 N 
ATOM      7  H13 UNL     1      60.383   9.950  32.115  1.00  0.00     0.276 HD
ATOM      8  H12 UNL     1      61.335   9.952  30.865  1.00  0.00     0.276 HD
ATOM      9  H11 UNL     1      59.723  10.294  30.625  1.00  0.00     0.276 HD
ENDBRANCH   5   6
ENDBRANCH   2   5
ENDBRANCH   1   2
BRANCH   1  10
HETATM   10  C3  UNL     1      57.134   8.553  29.221  1.00  0.00     0.044 C 
BRANCH  10  11
HETATM   11  C4  UNL     1      56.476   9.851  29.693  1.00  0.00     0.049 C 
BRANCH  11  12
HETATM   12  C5  UNL     1      55.685  10.587  28.749  1.00  0.00     0.038 A 
HETATM   13  C6  UNL     1      54.479  10.120  28.288  1.00  0.00     0.093 A 
HETATM   14  N4  UNL     1      53.765  10.847  27.353  1.00  0.00    -0.191 N 
HETATM   15  C8  UNL     1      54.182  12.017  26.859  1.00  0.00     0.679 A 
ATOM     16  H4  UNL     1      52.876  10.472  27.025  1.00  0.00     0.184 HD
HETATM   17  N6  UNL     1      55.370  12.470  27.325  1.00  0.00    -0.156 N 
HETATM   18  C9  UNL     1      56.098  11.800  28.223  1.00  0.00     0.268 A 
ATOM     19  H6  UNL     1      55.724  13.360  26.975  1.00  0.00     0.187 HD
HETATM   20  O2  UNL     1      57.175  12.360  28.550  1.00  0.00    -0.267 OA
BRANCH  13  21
HETATM   21  C7  UNL     1      53.836   8.886  28.763  1.00  0.00     0.368 C 
BRANCH  21  22
HETATM   22  N3  UNL     1      52.734   8.447  27.973  1.00  0.00    -0.047 N 
ATOM     23  H33 UNL     1      52.383   7.554  28.322  1.00  0.00     0.277 HD
ATOM     24  H32 UNL     1      51.919   9.035  28.145  1.00  0.00     0.277 HD
ATOM     25  H31 UNL     1      52.924   8.387  26.973  1.00  0.00     0.277 HD
ENDBRANCH  21  22
BRANCH  21  26
HETATM   26  O1  UNL     1      53.444   9.022  30.131  1.00  0.00    -0.365 OA
ATOM     27  H1  UNL     1      54.098   8.638  30.704  1.00  0.00     0.212 HD
ENDBRANCH  21  26
ENDBRANCH  13  21
BRANCH  15  28
HETATM   28  N5  UNL     1      53.508  12.676  25.998  1.00  0.00    -0.234 N 
ATOM     29  H52 UNL     1      53.519  12.428  25.008  1.00  0.00     0.174 HD
ATOM     30  H51 UNL     1      52.930  13.476  26.252  1.00  0.00     0.174 HD
ENDBRANCH  15  28
ENDBRANCH  11  12
ENDBRANCH  10  11
ENDBRANCH   1  10
BRANCH   1  31
HETATM   31  C10 UNL     1      59.358   8.478  27.965  1.00  0.00     0.048 A 
HETATM   32  C11 UNL     1      59.569   9.496  27.045  1.00  0.00     0.080 A 
HETATM   33  S1  UNL     1      60.426   8.680  25.816  1.00  0.00    -0.063 SA
HETATM   34  C12 UNL     1      60.464   7.113  26.525  1.00  0.00     0.164 A 
HETATM   35  N12 UNL     1      59.832   7.280  27.660  1.00  0.00    -0.337 N 
ATOM     36  H12 UNL     1      59.706   6.496  28.301  1.00  0.00     0.168 HD
BRANCH  34  37
HETATM   37  N7  UNL     1      61.039   6.092  25.966  1.00  0.00    -0.167 N 
ATOM     38  H7  UNL     1      60.903   5.189  26.420  1.00  0.00     0.186 HD
BRANCH  37  39
HETATM   39  C13 UNL     1      61.832   6.096  24.798  1.00  0.00     0.715 A 
HETATM   40  N8  UNL     1      61.405   5.959  23.520  1.00  0.00    -0.115 N 
HETATM   41  N9  UNL     1      62.489   6.020  22.735  1.00  0.00    -0.213 N 
ATOM     42  H8  UNL     1      60.441   5.833  23.213  1.00  0.00     0.207 HD
HETATM   43  N10 UNL     1      63.579   6.186  23.454  1.00  0.00    -0.213 N 
ATOM     44  H9  UNL     1      62.472   5.946  21.717  1.00  0.00     0.210 HD
HETATM   45  N11 UNL     1      63.180   6.231  24.692  1.00  0.00    -0.115 N 
ATOM     46  H10 UNL     1      64.537   6.264  23.113  1.00  0.00     0.210 HD
ATOM     47  H11 UNL     1      63.806   6.353  25.489  1.00  0.00     0.207 HD
ENDBRANCH  37  39
ENDBRANCH  34  37
ENDBRANCH   1  31
TORSDOF 13
ENDMDL
MODEL 2
REMARK VINA RESULT: -7.432792657      1.199      1.458
REMARK  13 active torsions:
REMARK  status: ('A' for Active; 'I' for Inactive)
REMARK    1  A    between atoms: N1_1  and  C1_5 
REMARK    2  A    between atoms: C1_5  and  N2_6 
REMARK    3  A    between atoms: N2_6  and  C2_9 
REMARK    4  A    between atoms: C2_9  and  C3_10 
REMARK    5  A    between atoms: C2_9  and  C10_31 
REMARK    6  A    between atoms: C3_10  and  C4_11 
REMARK    7  A    between atoms: C4_11  and  C5_12 
REMARK    8  A    between atoms: C6_13  and  C7_14 
REMARK    9  A    between atoms: C7_14  and  N3_15 
REMARK   10  A    between atoms: C7_14  and  O1_19 
REMARK   11  A    between atoms: C8_23  and  N5_24 
REMARK   12  A    between atoms: C12_34  and  N7_35 
REMARK   13  A    between atoms: N7_35  and  C13_37 
ROOT
HETATM    1  C2  UNL     1      58.515   8.641  28.149  1.00  0.00     0.238 C 
ENDROOT
BRANCH   1   2
HETATM    2  N2  UNL     1      59.667   8.902  28.943  1.00  0.00    -0.042 N 
ATOM      3  H22 UNL     1      59.687   9.877  29.243  1.00  0.00     0.280 HD
ATOM      4  H21 UNL     1      60.512   8.885  28.372  1.00  0.00     0.280 HD
BRANCH   2   5
HETATM    5  C1  UNL     1      59.790   8.034  30.049  1.00  0.00     0.461 C 
BRANCH   5   6
HETATM    6  N1  UNL     1      60.197   8.601  31.275  1.00  0.00    -0.055 N 
ATOM      7  H13 UNL     1      60.969   9.247  31.110  1.00  0.00     0.276 HD
ATOM      8  H12 UNL     1      59.477   9.244  31.606  1.00  0.00     0.276 HD
ATOM      9  H11 UNL     1      60.448   7.959  32.027  1.00  0.00     0.276 HD
ENDBRANCH   5   6
ENDBRANCH   2   5
ENDBRANCH   1   2
BRANCH   1  10
HETATM   10  C3  UNL     1      57.378   8.498  29.179  1.00  0.00     0.044 C 
BRANCH  10  11
HETATM   11  C4  UNL     1      56.894   9.883  29.611  1.00  0.00     0.049 C 
BRANCH  11  12
HETATM   12  C5  UNL     1      55.990  10.582  28.743  1.00  0.00     0.038 A 
HETATM   13  C6  UNL     1      54.748  10.086  28.433  1.00  0.00     0.093 A 
HETATM   14  N4  UNL     1      53.922  10.777  27.565  1.00  0.00    -0.191 N 
HETATM   15  C8  UNL     1      54.263  11.937  26.997  1.00  0.00     0.679 A 
ATOM     16  H4  UNL     1      53.008  10.381  27.348  1.00  0.00     0.184 HD
HETATM   17  N6  UNL     1      55.487  12.419  27.314  1.00  0.00    -0.156 N 
HETATM   18  C9  UNL     1      56.322  11.784  28.143  1.00  0.00     0.268 A 
ATOM     19  H6  UNL     1      55.785  13.304  26.903  1.00  0.00     0.187 HD
HETATM   20  O2  UNL     1      57.420  12.368  28.332  1.00  0.00    -0.267 OA
BRANCH  13  21
HETATM   21  C7  UNL     1      54.183   8.857  29.009  1.00  0.00     0.368 C 
BRANCH  21  22
HETATM   22  N3  UNL     1      53.171   8.239  28.218  1.00  0.00    -0.047 N 
ATOM     23  H33 UNL     1      52.334   8.822  28.196  1.00  0.00     0.277 HD
ATOM     24  H32 UNL     1      53.429   8.263  27.232  1.00  0.00     0.277 HD
ATOM     25  H31 UNL     1      52.932   7.288  28.499  1.00  0.00     0.277 HD
ENDBRANCH  21  22
BRANCH  21  26
HETATM   26  O1  UNL     1      53.698   9.102  30.332  1.00  0.00    -0.365 OA
ATOM     27  H1  UNL     1      54.288   9.683  30.799  1.00  0.00     0.212 HD
ENDBRANCH  21  26
ENDBRANCH  13  21
BRANCH  15  28
HETATM   28  N5  UNL     1      53.486  12.564  26.199  1.00  0.00    -0.234 N 
ATOM     29  H52 UNL     1      52.634  12.133  25.838  1.00  0.00     0.174 HD
ATOM     30  H51 UNL     1      53.675  13.515  25.886  1.00  0.00     0.174 HD
ENDBRANCH  15  28
ENDBRANCH  11  12
ENDBRANCH  10  11
ENDBRANCH   1  10
BRANCH   1  31
HETATM   31  C10 UNL     1      58.649   7.516  27.192  1.00  0.00     0.048 A 
HETATM   32  C11 UNL     1      57.914   6.343  27.311  1.00  0.00     0.080 A 
HETATM   33  S1  UNL     1      58.437   5.468  25.944  1.00  0.00    -0.063 SA
HETATM   34  C12 UNL     1      59.546   6.619  25.308  1.00  0.00     0.164 A 
HETATM   35  N12 UNL     1      59.467   7.614  26.156  1.00  0.00    -0.337 N 
ATOM     36  H12 UNL     1      60.029   8.454  26.019  1.00  0.00     0.168 HD
BRANCH  34  37
HETATM   37  N7  UNL     1      60.225   6.427  24.219  1.00  0.00    -0.167 N 
ATOM     38  H7  UNL     1      59.694   6.411  23.349  1.00  0.00     0.186 HD
BRANCH  37  39
HETATM   39  C13 UNL     1      61.620   6.238  24.108  1.00  0.00     0.715 A 
HETATM   40  N8  UNL     1      62.545   6.378  25.087  1.00  0.00    -0.115 N 
HETATM   41  N9  UNL     1      63.738   6.106  24.544  1.00  0.00    -0.213 N 
ATOM     42  H8  UNL     1      62.366   6.642  26.056  1.00  0.00     0.207 HD
HETATM   43  N10 UNL     1      63.613   5.802  23.268  1.00  0.00    -0.213 N 
ATOM     44  H9  UNL     1      64.624   6.130  25.049  1.00  0.00     0.210 HD
HETATM   45  N11 UNL     1      62.340   5.883  23.010  1.00  0.00    -0.115 N 
ATOM     46  H10 UNL     1      64.359   5.555  22.617  1.00  0.00     0.210 HD
ATOM     47  H11 UNL     1      61.932   5.702  22.093  1.00  0.00     0.207 HD
ENDBRANCH  37  39
ENDBRANCH  34  37
ENDBRANCH   1  31
TORSDOF 13
ENDMDL
MODEL 3
REMARK VINA RESULT: -7.416333230      2.572      7.053
REMARK  13 active torsions:
REMARK  status: ('A' for Active; 'I' for Inactive)
REMARK    1  A    between atoms: N1_1  and  C1_5 
REMARK    2  A    between atoms: C1_5  and  N2_6 
REMARK    3  A    between atoms: N2_6  and  C2_9 
REMARK    4  A    between atoms: C2_9  and  C3_10 
REMARK    5  A    between atoms: C2_9  and  C10_31 
REMARK    6  A    between atoms: C3_10  and  C4_11 
REMARK    7  A    between atoms: C4_11  and  C5_12 
REMARK    8  A    between atoms: C6_13  and  C7_14 
REMARK    9  A    between atoms: C7_14  and  N3_15 
REMARK   10  A    between atoms: C7_14  and  O1_19 
REMARK   11  A    between atoms: C8_23  and  N5_24 
REMARK   12  A    between atoms: C12_34  and  N7_35 
REMARK   13  A    between atoms: N7_35  and  C13_37 
ROOT
HETATM    1  C2  UNL     1      58.288   8.719  30.014  1.00  0.00     0.238 C 
ENDROOT
BRANCH   1   2
HETATM    2  N2  UNL     1      59.509   9.438  30.138  1.00  0.00    -0.042 N 
ATOM      3  H22 UNL     1      59.349  10.357  30.552  1.00  0.00     0.280 HD
ATOM      4  H21 UNL     1      59.856   9.724  29.223  1.00  0.00     0.280 HD
BRANCH   2   5
HETATM    5  C1  UNL     1      60.501   8.731  30.852  1.00  0.00     0.461 C 
BRANCH   5   6
HETATM    6  N1  UNL     1      61.500   8.080  30.099  1.00  0.00    -0.055 N 
ATOM      7  H13 UNL     1      61.188   7.136  29.867  1.00  0.00     0.276 HD
ATOM      8  H12 UNL     1      61.551   8.498  29.170  1.00  0.00     0.276 HD
ATOM      9  H11 UNL     1      62.437   8.036  30.502  1.00  0.00     0.276 HD
ENDBRANCH   5   6
ENDBRANCH   2   5
ENDBRANCH   1   2
BRANCH   1  10
HETATM   10  C3  UNL     1      58.687   7.433  29.266  1.00  0.00     0.044 C 
BRANCH  10  11
HETATM   11  C4  UNL     1      58.467   7.618  27.764  1.00  0.00     0.049 C 
BRANCH  11  12
HETATM   12  C5  UNL     1      59.523   7.227  26.874  1.00  0.00     0.038 A 
HETATM   13  C6  UNL     1      59.454   6.082  26.121  1.00  0.00     0.093 A 
HETATM   14  N4  UNL     1      60.510   5.726  25.302  1.00  0.00    -0.191 N 
HETATM   15  C8  UNL     1      61.626   6.453  25.187  1.00  0.00     0.679 A 
ATOM     16  H4  UNL     1      60.433   4.867  24.759  1.00  0.00     0.184 HD
HETATM   17  N6  UNL     1      61.680   7.583  25.930  1.00  0.00    -0.156 N 
HETATM   18  C9  UNL     1      60.687   7.964  26.740  1.00  0.00     0.268 A 
ATOM     19  H6  UNL     1      62.513   8.168  25.869  1.00  0.00     0.187 HD
HETATM   20  O2  UNL     1      60.897   9.039  27.358  1.00  0.00    -0.267 OA
BRANCH  13  21
HETATM   21  C7  UNL     1      58.283   5.194  26.075  1.00  0.00     0.368 C 
BRANCH  21  22
HETATM   22  N3  UNL     1      58.482   3.984  25.347  1.00  0.00    -0.047 N 
ATOM     23  H33 UNL     1      57.593   3.641  24.982  1.00  0.00     0.277 HD
ATOM     24  H32 UNL     1      58.971   4.173  24.473  1.00  0.00     0.277 HD
ATOM     25  H31 UNL     1      58.959   3.248  25.868  1.00  0.00     0.277 HD
ENDBRANCH  21  22
BRANCH  21  26
HETATM   26  O1  UNL     1      57.144   5.895  25.570  1.00  0.00    -0.365 OA
ATOM     27  H1  UNL     1      56.367   5.667  26.068  1.00  0.00     0.212 HD
ENDBRANCH  21  26
ENDBRANCH  13  21
BRANCH  15  28
HETATM   28  N5  UNL     1      62.590   6.110  24.422  1.00  0.00    -0.234 N 
ATOM     29  H52 UNL     1      62.585   5.220  23.924  1.00  0.00     0.174 HD
ATOM     30  H51 UNL     1      63.407   6.702  24.273  1.00  0.00     0.174 HD
ENDBRANCH  15  28
ENDBRANCH  11  12
ENDBRANCH  10  11
ENDBRANCH   1  10
BRANCH   1  31
HETATM   31  C10 UNL     1      57.165   9.480  29.413  1.00  0.00     0.048 A 
HETATM   32  C11 UNL     1      57.282  10.811  29.037  1.00  0.00     0.080 A 
HETATM   33  S1  UNL     1      55.738  11.124  28.383  1.00  0.00    -0.063 SA
HETATM   34  C12 UNL     1      55.037   9.571  28.624  1.00  0.00     0.164 A 
HETATM   35  N12 UNL     1      56.004   8.887  29.183  1.00  0.00    -0.337 N 
ATOM     36  H12 UNL     1      55.864   7.909  29.438  1.00  0.00     0.168 HD
BRANCH  34  37
HETATM   37  N7  UNL     1      53.824   9.274  28.269  1.00  0.00    -0.167 N 
ATOM     38  H7  UNL     1      53.161  10.048  28.225  1.00  0.00     0.186 HD
BRANCH  37  39
HETATM   39  C13 UNL     1      53.323   7.997  27.937  1.00  0.00     0.715 A 
HETATM   40  N8  UNL     1      52.039   7.575  28.021  1.00  0.00    -0.115 N 
HETATM   41  N9  UNL     1      52.015   6.301  27.609  1.00  0.00    -0.213 N 
ATOM     42  H8  UNL     1      51.240   8.124  28.339  1.00  0.00     0.207 HD
HETATM   43  N10 UNL     1      53.222   5.896  27.270  1.00  0.00    -0.213 N 
ATOM     44  H9  UNL     1      51.176   5.722  27.564  1.00  0.00     0.210 HD
HETATM   45  N11 UNL     1      54.004   6.917  27.469  1.00  0.00    -0.115 N 
ATOM     46  H10 UNL     1      53.488   4.974  26.924  1.00  0.00     0.210 HD
ATOM     47  H11 UNL     1      55.009   6.908  27.294  1.00  0.00     0.207 HD
ENDBRANCH  37  39
ENDBRANCH  34  37
ENDBRANCH   1  31
TORSDOF 13
ENDMDL
MODEL 4
REMARK VINA RESULT: -7.394179334      3.502      8.091
REMARK  13 active torsions:
REMARK  status: ('A' for Active; 'I' for Inactive)
REMARK    1  A    between atoms: N1_1  and  C1_5 
REMARK    2  A    between atoms: C1_5  and  N2_6 
REMARK    3  A    between atoms: N2_6  and  C2_9 
REMARK    4  A    between atoms: C2_9  and  C3_10 
REMARK    5  A    between atoms: C2_9  and  C10_31 
REMARK    6  A    between atoms: C3_10  and  C4_11 
REMARK    7  A    between atoms: C4_11  and  C5_12 
REMARK    8  A    between atoms: C6_13  and  C7_14 
REMARK    9  A    between atoms: C7_14  and  N3_15 
REMARK   10  A    between atoms: C7_14  and  O1_19 
REMARK   11  A    between atoms: C8_23  and  N5_24 
REMARK   12  A    between atoms: C12_34  and  N7_35 
REMARK   13  A    between atoms: N7_35  and  C13_37 
ROOT
HETATM    1  C2  UNL     1      58.209   8.785  28.822  1.00  0.00     0.238 C 
ENDROOT
BRANCH   1   2
HETATM    2  N2  UNL     1      58.198   7.942  29.969  1.00  0.00    -0.042 N 
ATOM      3  H22 UNL     1      57.643   7.104  29.797  1.00  0.00     0.280 HD
ATOM      4  H21 UNL     1      57.646   8.358  30.719  1.00  0.00     0.280 HD
BRANCH   2   5
HETATM    5  C1  UNL     1      59.491   7.604  30.425  1.00  0.00     0.461 C 
BRANCH   5   6
HETATM    6  N1  UNL     1      60.092   8.467  31.366  1.00  0.00    -0.055 N 
ATOM      7  H13 UNL     1      59.367   9.007  31.840  1.00  0.00     0.276 HD
ATOM      8  H12 UNL     1      60.459   7.917  32.143  1.00  0.00     0.276 HD
ATOM      9  H11 UNL     1      60.817   9.099  31.025  1.00  0.00     0.276 HD
ENDBRANCH   5   6
ENDBRANCH   2   5
ENDBRANCH   1   2
BRANCH   1  10
HETATM   10  C3  UNL     1      59.619   8.591  28.232  1.00  0.00     0.044 C 
BRANCH  10  11
HETATM   11  C4  UNL     1      59.522   8.376  26.721  1.00  0.00     0.049 C 
BRANCH  11  12
HETATM   12  C5  UNL     1      60.519   7.557  26.092  1.00  0.00     0.038 A 
HETATM   13  C6  UNL     1      60.300   6.231  25.812  1.00  0.00     0.093 A 
HETATM   14  N4  UNL     1      61.300   5.470  25.235  1.00  0.00    -0.191 N 
HETATM   15  C8  UNL     1      62.501   5.960  24.914  1.00  0.00     0.679 A 
ATOM     16  H4  UNL     1      61.111   4.486  25.044  1.00  0.00     0.184 HD
HETATM   17  N6  UNL     1      62.704   7.269  25.190  1.00  0.00    -0.156 N 
HETATM   18  C9  UNL     1      61.770   8.043  25.752  1.00  0.00     0.268 A 
ATOM     19  H6  UNL     1      63.607   7.683  24.959  1.00  0.00     0.187 HD
HETATM   20  O2  UNL     1      62.118   9.236  25.940  1.00  0.00    -0.267 OA
BRANCH  13  21
HETATM   21  C7  UNL     1      59.023   5.539  26.039  1.00  0.00     0.368 C 
BRANCH  21  22
HETATM   22  N3  UNL     1      59.046   4.140  25.766  1.00  0.00    -0.047 N 
ATOM     23  H33 UNL     1      58.567   3.943  24.887  1.00  0.00     0.277 HD
ATOM     24  H32 UNL     1      59.991   3.842  25.523  1.00  0.00     0.277 HD
ATOM     25  H31 UNL     1      58.671   3.554  26.513  1.00  0.00     0.277 HD
ENDBRANCH  21  22
BRANCH  21  26
HETATM   26  O1  UNL     1      57.974   6.171  25.301  1.00  0.00    -0.365 OA
ATOM     27  H1  UNL     1      57.759   5.662  24.528  1.00  0.00     0.212 HD
ENDBRANCH  21  26
ENDBRANCH  13  21
BRANCH  15  28
HETATM   28  N5  UNL     1      63.413   5.242  24.379  1.00  0.00    -0.234 N 
ATOM     29  H52 UNL     1      63.194   4.358  23.918  1.00  0.00     0.174 HD
ATOM     30  H51 UNL     1      64.396   5.513  24.384  1.00  0.00     0.174 HD
ENDBRANCH  15  28
ENDBRANCH  11  12
ENDBRANCH  10  11
ENDBRANCH   1  10
BRANCH   1  31
HETATM   31  C10 UNL     1      57.813  10.193  29.068  1.00  0.00     0.048 A 
HETATM   32  C11 UNL     1      57.398  11.040  28.050  1.00  0.00     0.080 A 
HETATM   33  S1  UNL     1      57.036  12.467  28.912  1.00  0.00    -0.063 SA
HETATM   34  C12 UNL     1      57.430  11.919  30.494  1.00  0.00     0.164 A 
HETATM   35  N12 UNL     1      57.812  10.682  30.299  1.00  0.00    -0.337 N 
ATOM     36  H12 UNL     1      58.106  10.102  31.085  1.00  0.00     0.168 HD
BRANCH  34  37
HETATM   37  N7  UNL     1      57.310  12.658  31.554  1.00  0.00    -0.167 N 
ATOM     38  H7  UNL     1      56.604  12.371  32.231  1.00  0.00     0.186 HD
BRANCH  37  39
HETATM   39  C13 UNL     1      58.051  13.817  31.872  1.00  0.00     0.715 A 
HETATM   40  N8  UNL     1      57.614  14.911  32.541  1.00  0.00    -0.115 N 
HETATM   41  N9  UNL     1      58.642  15.765  32.616  1.00  0.00    -0.213 N 
ATOM     42  H8  UNL     1      56.676  15.056  32.918  1.00  0.00     0.207 HD
HETATM   43  N10 UNL     1      59.708  15.267  32.025  1.00  0.00    -0.213 N 
ATOM     44  H9  UNL     1      58.605  16.678  33.069  1.00  0.00     0.210 HD
HETATM   45  N11 UNL     1      59.349  14.098  31.579  1.00  0.00    -0.115 N 
ATOM     46  H10 UNL     1      60.625  15.705  31.935  1.00  0.00     0.210 HD
ATOM     47  H11 UNL     1      59.969  13.467  31.070  1.00  0.00     0.207 HD
ENDBRANCH  37  39
ENDBRANCH  34  37
ENDBRANCH   1  31
TORSDOF 13
ENDMDL
MODEL 5
REMARK VINA RESULT: -7.282949155      2.044      2.754
REMARK  13 active torsions:
REMARK  status: ('A' for Active; 'I' for Inactive)
REMARK    1  A    between atoms: N1_1  and  C1_5 
REMARK    2  A    between atoms: C1_5  and  N2_6 
REMARK    3  A    between atoms: N2_6  and  C2_9 
REMARK    4  A    between atoms: C2_9  and  C3_10 
REMARK    5  A    between atoms: C2_9  and  C10_31 
REMARK    6  A    between atoms: C3_10  and  C4_11 
REMARK    7  A    between atoms: C4_11  and  C5_12 
REMARK    8  A    between atoms: C6_13  and  C7_14 
REMARK    9  A    between atoms: C7_14  and  N3_15 
REMARK   10  A    between atoms: C7_14  and  O1_19 
REMARK   11  A    between atoms: C8_23  and  N5_24 
REMARK   12  A    between atoms: C12_34  and  N7_35 
REMARK   13  A    between atoms: N7_35  and  C13_37 
ROOT
HETATM    1  C2  UNL     1      58.521   8.763  29.353  1.00  0.00     0.238 C 
ENDROOT
BRANCH   1   2
HETATM    2  N2  UNL     1      58.839   8.082  30.562  1.00  0.00    -0.042 N 
ATOM      3  H22 UNL     1      58.638   7.085  30.480  1.00  0.00     0.280 HD
ATOM      4  H21 UNL     1      58.180   8.326  31.300  1.00  0.00     0.280 HD
BRANCH   2   5
HETATM    5  C1  UNL     1      60.169   8.292  30.986  1.00  0.00     0.461 C 
BRANCH   5   6
HETATM    6  N1  UNL     1      60.617   9.627  31.071  1.00  0.00    -0.055 N 
ATOM      7  H13 UNL     1      61.605   9.637  31.329  1.00  0.00     0.276 HD
ATOM      8  H12 UNL     1      60.661  10.030  30.135  1.00  0.00     0.276 HD
ATOM      9  H11 UNL     1      60.101  10.256  31.687  1.00  0.00     0.276 HD
ENDBRANCH   5   6
ENDBRANCH   2   5
ENDBRANCH   1   2
BRANCH   1  10
HETATM   10  C3  UNL     1      56.981   8.811  29.348  1.00  0.00     0.044 C 
BRANCH  10  11
HETATM   11  C4  UNL     1      56.507  10.240  29.618  1.00  0.00     0.049 C 
BRANCH  11  12
HETATM   12  C5  UNL     1      55.651  10.861  28.649  1.00  0.00     0.038 A 
HETATM   13  C6  UNL     1      54.479  10.279  28.233  1.00  0.00     0.093 A 
HETATM   14  N4  UNL     1      53.700  10.896  27.272  1.00  0.00    -0.191 N 
HETATM   15  C8  UNL     1      54.021  12.065  26.709  1.00  0.00     0.679 A 
ATOM     16  H4  UNL     1      52.839  10.437  26.978  1.00  0.00     0.184 HD
HETATM   17  N6  UNL     1      55.175  12.633  27.130  1.00  0.00    -0.156 N 
HETATM   18  C9  UNL     1      55.963  12.070  28.052  1.00  0.00     0.268 A 
ATOM     19  H6  UNL     1      55.456  13.526  26.727  1.00  0.00     0.187 HD
HETATM   20  O2  UNL     1      56.998  12.728  28.331  1.00  0.00    -0.267 OA
BRANCH  13  21
HETATM   21  C7  UNL     1      53.939   9.027  28.784  1.00  0.00     0.368 C 
BRANCH  21  22
HETATM   22  N3  UNL     1      52.837   8.484  28.060  1.00  0.00    -0.047 N 
ATOM     23  H33 UNL     1      52.003   9.053  28.206  1.00  0.00     0.277 HD
ATOM     24  H32 UNL     1      52.970   8.621  27.058  1.00  0.00     0.277 HD
ATOM     25  H31 UNL     1      52.638   7.504  28.261  1.00  0.00     0.277 HD
ENDBRANCH  21  22
BRANCH  21  26
HETATM   26  O1  UNL     1      53.593   9.196  30.161  1.00  0.00    -0.365 OA
ATOM     27  H1  UNL     1      54.333   9.534  30.651  1.00  0.00     0.212 HD
ENDBRANCH  21  26
ENDBRANCH  13  21
BRANCH  15  28
HETATM   28  N5  UNL     1      53.287  12.623  25.824  1.00  0.00    -0.234 N 
ATOM     29  H52 UNL     1      52.297  12.805  25.989  1.00  0.00     0.174 HD
ATOM     30  H51 UNL     1      53.651  12.912  24.916  1.00  0.00     0.174 HD
ENDBRANCH  15  28
ENDBRANCH  11  12
ENDBRANCH  10  11
ENDBRANCH   1  10
BRANCH   1  31
HETATM   31  C10 UNL     1      59.142   8.202  28.129  1.00  0.00     0.048 A 
HETATM   32  C11 UNL     1      60.189   8.831  27.468  1.00  0.00     0.080 A 
HETATM   33  S1  UNL     1      60.510   7.731  26.204  1.00  0.00    -0.063 SA
HETATM   34  C12 UNL     1      59.313   6.553  26.576  1.00  0.00     0.164 A 
HETATM   35  N12 UNL     1      58.729   7.042  27.641  1.00  0.00    -0.337 N 
ATOM     36  H12 UNL     1      57.965   6.537  28.089  1.00  0.00     0.168 HD
BRANCH  34  37
HETATM   37  N7  UNL     1      59.147   5.464  25.888  1.00  0.00    -0.167 N 
ATOM     38  H7  UNL     1      59.984   5.061  25.468  1.00  0.00     0.186 HD
BRANCH  37  39
HETATM   39  C13 UNL     1      57.935   4.779  25.660  1.00  0.00     0.715 A 
HETATM   40  N8  UNL     1      57.766   3.618  24.982  1.00  0.00    -0.115 N 
HETATM   41  N9  UNL     1      56.458   3.332  25.008  1.00  0.00    -0.213 N 
ATOM     42  H8  UNL     1      58.499   3.065  24.535  1.00  0.00     0.207 HD
HETATM   43  N10 UNL     1      55.791   4.256  25.667  1.00  0.00    -0.213 N 
ATOM     44  H9  UNL     1      56.036   2.510  24.576  1.00  0.00     0.210 HD
HETATM   45  N11 UNL     1      56.680   5.123  26.056  1.00  0.00    -0.115 N 
ATOM     46  H10 UNL     1      54.785   4.287  25.838  1.00  0.00     0.210 HD
ATOM     47  H11 UNL     1      56.462   5.961  26.595  1.00  0.00     0.207 HD
ENDBRANCH  37  39
ENDBRANCH  34  37
ENDBRANCH   1  31
TORSDOF 13
ENDMDL
