MODEL 1
REMARK VINA RESULT: -5.776503043      0.000      0.000
REMARK  10 active torsions:
REMARK  status: ('A' for Active; 'I' for Inactive)
REMARK    1  A    between atoms: C2_2  and  C3_3 
REMARK    2  A    between atoms: C2_2  and  N1_11 
REMARK    3  A    between atoms: C3_3  and  C4_4 
REMARK    4  A    between atoms: C4_4  and  O1_5 
REMARK    5  A    between atoms: C10_17  and  C11_18 
REMARK    6  A    between atoms: C12_21  and  S3_22 
REMARK    7  A    between atoms: S3_22  and  C13_23 
REMARK    8  A    between atoms: C13_23  and  C14_24 
REMARK    9  A    between atoms: C14_24  and  C15_25 
REMARK   10  A    between atoms: C15_25  and  O3_26 
ROOT
HETATM    1  N1  UNL     1      34.834  30.743  18.117  1.00  0.00    -0.335 N 
HETATM    2  C8  UNL     1      35.975  30.339  17.520  1.00  0.00     0.184 A 
HETATM    3  N2  UNL     1      35.926  30.660  16.227  1.00  0.00    -0.345 N 
ATOM      4  H2  UNL     1      36.646  30.480  15.527  1.00  0.00     0.167 HD
HETATM    5  C9  UNL     1      34.740  31.268  16.025  1.00  0.00     0.104 A 
HETATM    6  S2  UNL     1      33.727  32.012  14.872  1.00  0.00    -0.064 SA
HETATM    7  C10 UNL     1      32.412  32.405  15.873  1.00  0.00     0.091 A 
HETATM    8  C12 UNL     1      32.800  31.941  17.096  1.00  0.00     0.052 A 
HETATM    9  C18 UNL     1      34.017  31.345  17.184  1.00  0.00     0.088 A 
ENDROOT
BRANCH   1  10
HETATM   10  C2  UNL     1      34.598  30.565  19.528  1.00  0.00     0.090 C 
HETATM   11  C1  UNL     1      35.631  31.466  20.296  1.00  0.00     0.033 C 
BRANCH  10  12
HETATM   12  C3  UNL     1      34.759  29.234  20.109  1.00  0.00     0.064 C 
BRANCH  12  13
HETATM   13  C4  UNL     1      33.966  28.821  21.292  1.00  0.00     0.069 C 
HETATM   14  C5  UNL     1      33.826  27.408  21.643  1.00  0.00     0.049 C 
HETATM   15  C6  UNL     1      35.182  26.824  22.018  1.00  0.00     0.077 C 
HETATM   16  S1  UNL     1      35.952  28.245  22.849  1.00  0.00    -0.166 SA
HETATM   17  C7  UNL     1      34.642  29.469  22.573  1.00  0.00     0.111 C 
BRANCH  13  18
HETATM   18  O1  UNL     1      32.704  29.453  21.329  1.00  0.00    -0.389 OA
ATOM     19  H1  UNL     1      32.045  28.910  21.745  1.00  0.00     0.210 HD
ENDBRANCH  13  18
ENDBRANCH  12  13
ENDBRANCH  10  12
ENDBRANCH   1  10
BRANCH   8  20
HETATM   20  S3  UNL     1      31.650  32.173  18.497  1.00  0.00    -0.125 SA
BRANCH  20  21
HETATM   21  C13 UNL     1      30.729  30.616  18.704  1.00  0.00     0.091 C 
BRANCH  21  22
HETATM   22  C14 UNL     1      29.257  30.808  18.586  1.00  0.00    -0.010 A 
HETATM   23  C16 UNL     1      28.602  29.919  17.529  1.00  0.00     0.013 A 
HETATM   24  C17 UNL     1      28.708  31.398  17.321  1.00  0.00     0.013 A 
BRANCH  22  25
HETATM   25  C15 UNL     1      28.427  30.930  19.842  1.00  0.00     0.174 C 
BRANCH  25  26
HETATM   26  O3  UNL     1      27.598  32.053  19.796  1.00  0.00    -0.400 OA
ATOM     27  H3  UNL     1      26.719  31.848  20.096  1.00  0.00     0.209 HD
ENDBRANCH  25  26
ENDBRANCH  22  25
ENDBRANCH  21  22
ENDBRANCH  20  21
ENDBRANCH   8  20
BRANCH   7  28
HETATM   28  C11 UNL     1      31.167  33.084  15.468  1.00  0.00     0.273 C 
HETATM   29  N3  UNL     1      30.795  34.338  15.968  1.00  0.00    -0.057 NA
HETATM   30  O2  UNL     1      30.426  32.497  14.641  1.00  0.00    -0.270 OA
ENDBRANCH   7  28
TORSDOF 10
ENDMDL
MODEL 2
REMARK VINA RESULT: -5.764573841     10.385     13.784
REMARK  10 active torsions:
REMARK  status: ('A' for Active; 'I' for Inactive)
REMARK    1  A    between atoms: C2_2  and  C3_3 
REMARK    2  A    between atoms: C2_2  and  N1_11 
REMARK    3  A    between atoms: C3_3  and  C4_4 
REMARK    4  A    between atoms: C4_4  and  O1_5 
REMARK    5  A    between atoms: C10_17  and  C11_18 
REMARK    6  A    between atoms: C12_21  and  S3_22 
REMARK    7  A    between atoms: S3_22  and  C13_23 
REMARK    8  A    between atoms: C13_23  and  C14_24 
REMARK    9  A    between atoms: C14_24  and  C15_25 
REMARK   10  A    between atoms: C15_25  and  O3_26 
ROOT
HETATM    1  N1  UNL     1      22.325  33.371  20.821  1.00  0.00    -0.335 N 
HETATM    2  C8  UNL     1      23.416  33.544  20.045  1.00  0.00     0.184 A 
HETATM    3  N2  UNL     1      24.314  32.604  20.341  1.00  0.00    -0.345 N 
ATOM      4  H2  UNL     1      25.233  32.484  19.916  1.00  0.00     0.167 HD
HETATM    5  C9  UNL     1      23.769  31.843  21.311  1.00  0.00     0.104 A 
HETATM    6  S2  UNL     1      24.007  30.500  22.336  1.00  0.00    -0.064 SA
HETATM    7  C10 UNL     1      22.526  30.522  23.168  1.00  0.00     0.091 A 
HETATM    8  C12 UNL     1      21.875  31.588  22.619  1.00  0.00     0.052 A 
HETATM    9  C18 UNL     1      22.518  32.285  21.647  1.00  0.00     0.088 A 
ENDROOT
BRANCH   1  10
HETATM   10  C2  UNL     1      21.162  34.216  20.715  1.00  0.00     0.090 C 
HETATM   11  C1  UNL     1      20.692  34.185  19.216  1.00  0.00     0.033 C 
BRANCH  10  12
HETATM   12  C3  UNL     1      21.289  35.636  21.037  1.00  0.00     0.064 C 
BRANCH  12  13
HETATM   13  C4  UNL     1      20.431  36.258  22.074  1.00  0.00     0.069 C 
HETATM   14  C5  UNL     1      20.568  37.676  22.407  1.00  0.00     0.049 C 
HETATM   15  C6  UNL     1      20.194  38.534  21.205  1.00  0.00     0.077 C 
HETATM   16  S1  UNL     1      18.851  37.548  20.480  1.00  0.00    -0.166 SA
HETATM   17  C7  UNL     1      18.924  36.120  21.597  1.00  0.00     0.111 C 
BRANCH  13  18
HETATM   18  O1  UNL     1      20.390  35.489  23.258  1.00  0.00    -0.389 OA
ATOM     19  H1  UNL     1      19.503  35.250  23.497  1.00  0.00     0.210 HD
ENDBRANCH  13  18
ENDBRANCH  12  13
ENDBRANCH  10  12
ENDBRANCH   1  10
BRANCH   8  20
HETATM   20  S3  UNL     1      20.199  31.972  23.239  1.00  0.00    -0.125 SA
BRANCH  20  21
HETATM   21  C13 UNL     1      19.010  31.262  22.057  1.00  0.00     0.091 C 
BRANCH  21  22
HETATM   22  C14 UNL     1      18.550  29.906  22.460  1.00  0.00    -0.010 A 
HETATM   23  C16 UNL     1      17.155  29.888  23.083  1.00  0.00     0.013 A 
HETATM   24  C17 UNL     1      18.365  29.614  23.920  1.00  0.00     0.013 A 
BRANCH  22  25
HETATM   25  C15 UNL     1      18.789  28.738  21.531  1.00  0.00     0.174 C 
BRANCH  25  26
HETATM   26  O3  UNL     1      19.807  27.910  22.006  1.00  0.00    -0.400 OA
ATOM     27  H3  UNL     1      20.643  28.362  22.023  1.00  0.00     0.209 HD
ENDBRANCH  25  26
ENDBRANCH  22  25
ENDBRANCH  21  22
ENDBRANCH  20  21
ENDBRANCH   8  20
BRANCH   7  28
HETATM   28  C11 UNL     1      22.094  29.590  24.226  1.00  0.00     0.273 C 
HETATM   29  N3  UNL     1      22.098  29.935  25.583  1.00  0.00    -0.057 NA
HETATM   30  O2  UNL     1      21.711  28.446  23.873  1.00  0.00    -0.270 OA
ENDBRANCH   7  28
TORSDOF 10
ENDMDL
MODEL 3
REMARK VINA RESULT: -5.732963592      5.278      8.425
REMARK  10 active torsions:
REMARK  status: ('A' for Active; 'I' for Inactive)
REMARK    1  A    between atoms: C2_2  and  C3_3 
REMARK    2  A    between atoms: C2_2  and  N1_11 
REMARK    3  A    between atoms: C3_3  and  C4_4 
REMARK    4  A    between atoms: C4_4  and  O1_5 
REMARK    5  A    between atoms: C10_17  and  C11_18 
REMARK    6  A    between atoms: C12_21  and  S3_22 
REMARK    7  A    between atoms: S3_22  and  C13_23 
REMARK    8  A    between atoms: C13_23  and  C14_24 
REMARK    9  A    between atoms: C14_24  and  C15_25 
REMARK   10  A    between atoms: C15_25  and  O3_26 
ROOT
HETATM    1  N1  UNL     1      26.777  29.224  17.649  1.00  0.00    -0.335 N 
HETATM    2  C8  UNL     1      27.133  28.507  16.563  1.00  0.00     0.184 A 
HETATM    3  N2  UNL     1      26.920  27.213  16.807  1.00  0.00    -0.345 N 
ATOM      4  H2  UNL     1      27.096  26.436  16.170  1.00  0.00     0.167 HD
HETATM    5  C9  UNL     1      26.428  27.133  18.059  1.00  0.00     0.104 A 
HETATM    6  S2  UNL     1      25.862  26.080  19.276  1.00  0.00    -0.064 SA
HETATM    7  C10 UNL     1      25.500  27.221  20.482  1.00  0.00     0.091 A 
HETATM    8  C12 UNL     1      25.833  28.409  19.898  1.00  0.00     0.052 A 
HETATM    9  C18 UNL     1      26.319  28.372  18.631  1.00  0.00     0.088 A 
ENDROOT
BRANCH   1  10
HETATM   10  C2  UNL     1      26.863  30.663  17.684  1.00  0.00     0.090 C 
HETATM   11  C1  UNL     1      25.847  31.221  16.623  1.00  0.00     0.033 C 
BRANCH  10  12
HETATM   12  C3  UNL     1      28.135  31.303  17.357  1.00  0.00     0.064 C 
BRANCH  12  13
HETATM   13  C4  UNL     1      29.367  30.973  18.115  1.00  0.00     0.069 C 
HETATM   14  C5  UNL     1      30.292  29.950  17.629  1.00  0.00     0.049 C 
HETATM   15  C6  UNL     1      30.905  30.384  16.304  1.00  0.00     0.077 C 
HETATM   16  S1  UNL     1      31.053  32.177  16.562  1.00  0.00    -0.166 SA
HETATM   17  C7  UNL     1      30.253  32.288  18.187  1.00  0.00     0.111 C 
BRANCH  13  18
HETATM   18  O1  UNL     1      29.106  30.772  19.487  1.00  0.00    -0.389 OA
ATOM     19  H1  UNL     1      28.890  29.867  19.680  1.00  0.00     0.210 HD
ENDBRANCH  13  18
ENDBRANCH  12  13
ENDBRANCH  10  12
ENDBRANCH   1  10
BRANCH   8  20
HETATM   20  S3  UNL     1      25.586  29.934  20.874  1.00  0.00    -0.125 SA
BRANCH  20  21
HETATM   21  C13 UNL     1      24.116  30.774  20.203  1.00  0.00     0.091 C 
BRANCH  21  22
HETATM   22  C14 UNL     1      22.992  30.814  21.178  1.00  0.00    -0.010 A 
HETATM   23  C16 UNL     1      22.784  32.184  21.823  1.00  0.00     0.013 A 
HETATM   24  C17 UNL     1      23.305  31.035  22.628  1.00  0.00     0.013 A 
BRANCH  22  25
HETATM   25  C15 UNL     1      21.690  30.129  20.832  1.00  0.00     0.174 C 
BRANCH  25  26
HETATM   26  O3  UNL     1      21.893  28.785  20.510  1.00  0.00    -0.400 OA
ATOM     27  H3  UNL     1      21.534  28.575  19.656  1.00  0.00     0.209 HD
ENDBRANCH  25  26
ENDBRANCH  22  25
ENDBRANCH  21  22
ENDBRANCH  20  21
ENDBRANCH   8  20
BRANCH   7  28
HETATM   28  C11 UNL     1      24.958  26.944  21.825  1.00  0.00     0.273 C 
HETATM   29  N3  UNL     1      23.647  27.274  22.192  1.00  0.00    -0.057 NA
HETATM   30  O2  UNL     1      25.719  26.389  22.656  1.00  0.00    -0.270 OA
ENDBRANCH   7  28
TORSDOF 10
ENDMDL
MODEL 4
REMARK VINA RESULT: -5.659473205      9.351     13.073
REMARK  10 active torsions:
REMARK  status: ('A' for Active; 'I' for Inactive)
REMARK    1  A    between atoms: C2_2  and  C3_3 
REMARK    2  A    between atoms: C2_2  and  N1_11 
REMARK    3  A    between atoms: C3_3  and  C4_4 
REMARK    4  A    between atoms: C4_4  and  O1_5 
REMARK    5  A    between atoms: C10_17  and  C11_18 
REMARK    6  A    between atoms: C12_21  and  S3_22 
REMARK    7  A    between atoms: S3_22  and  C13_23 
REMARK    8  A    between atoms: C13_23  and  C14_24 
REMARK    9  A    between atoms: C14_24  and  C15_25 
REMARK   10  A    between atoms: C15_25  and  O3_26 
ROOT
HETATM    1  N1  UNL     1      20.311  33.487  21.467  1.00  0.00    -0.335 N 
HETATM    2  C8  UNL     1      19.027  33.897  21.406  1.00  0.00     0.184 A 
HETATM    3  N2  UNL     1      18.253  32.995  22.010  1.00  0.00    -0.345 N 
ATOM      4  H2  UNL     1      17.240  33.037  22.119  1.00  0.00     0.167 HD
HETATM    5  C9  UNL     1      19.071  32.016  22.447  1.00  0.00     0.104 A 
HETATM    6  S2  UNL     1      19.153  30.522  23.265  1.00  0.00    -0.064 SA
HETATM    7  C10 UNL     1      20.830  30.259  23.191  1.00  0.00     0.091 A 
HETATM    8  C12 UNL     1      21.289  31.356  22.522  1.00  0.00     0.052 A 
HETATM    9  C18 UNL     1      20.376  32.280  22.129  1.00  0.00     0.088 A 
ENDROOT
BRANCH   1  10
HETATM   10  C2  UNL     1      21.395  34.268  20.926  1.00  0.00     0.090 C 
HETATM   11  C1  UNL     1      21.220  35.741  21.445  1.00  0.00     0.033 C 
BRANCH  10  12
HETATM   12  C3  UNL     1      21.519  34.395  19.475  1.00  0.00     0.064 C 
BRANCH  12  13
HETATM   13  C4  UNL     1      22.853  34.475  18.832  1.00  0.00     0.069 C 
HETATM   14  C5  UNL     1      23.196  33.603  17.709  1.00  0.00     0.049 C 
HETATM   15  C6  UNL     1      22.306  33.916  16.512  1.00  0.00     0.077 C 
HETATM   16  S1  UNL     1      22.120  35.715  16.681  1.00  0.00    -0.166 SA
HETATM   17  C7  UNL     1      23.016  35.940  18.243  1.00  0.00     0.111 C 
BRANCH  13  18
HETATM   18  O1  UNL     1      23.899  34.470  19.781  1.00  0.00    -0.389 OA
ATOM     19  H1  UNL     1      24.483  33.731  19.662  1.00  0.00     0.210 HD
ENDBRANCH  13  18
ENDBRANCH  12  13
ENDBRANCH  10  12
ENDBRANCH   1  10
BRANCH   8  20
HETATM   20  S3  UNL     1      23.088  31.480  22.227  1.00  0.00    -0.125 SA
BRANCH  20  21
HETATM   21  C13 UNL     1      23.379  31.066  20.478  1.00  0.00     0.091 C 
BRANCH  21  22
HETATM   22  C14 UNL     1      24.367  29.965  20.312  1.00  0.00    -0.010 A 
HETATM   23  C16 UNL     1      25.699  30.417  19.714  1.00  0.00     0.013 A 
HETATM   24  C17 UNL     1      24.762  29.558  18.924  1.00  0.00     0.013 A 
BRANCH  22  25
HETATM   25  C15 UNL     1      24.538  28.954  21.421  1.00  0.00     0.174 C 
BRANCH  25  26
HETATM   26  O3  UNL     1      23.742  27.826  21.208  1.00  0.00    -0.400 OA
ATOM     27  H3  UNL     1      23.565  27.368  22.022  1.00  0.00     0.209 HD
ENDBRANCH  25  26
ENDBRANCH  22  25
ENDBRANCH  21  22
ENDBRANCH  20  21
ENDBRANCH   8  20
BRANCH   7  28
HETATM   28  C11 UNL     1      21.566  29.102  23.734  1.00  0.00     0.273 C 
HETATM   29  N3  UNL     1      21.478  27.822  23.173  1.00  0.00    -0.057 NA
HETATM   30  O2  UNL     1      22.296  29.296  24.738  1.00  0.00    -0.270 OA
ENDBRANCH   7  28
TORSDOF 10
ENDMDL
MODEL 5
REMARK VINA RESULT: -5.596471424      3.186      6.354
REMARK  10 active torsions:
REMARK  status: ('A' for Active; 'I' for Inactive)
REMARK    1  A    between atoms: C2_2  and  C3_3 
REMARK    2  A    between atoms: C2_2  and  N1_11 
REMARK    3  A    between atoms: C3_3  and  C4_4 
REMARK    4  A    between atoms: C4_4  and  O1_5 
REMARK    5  A    between atoms: C10_17  and  C11_18 
REMARK    6  A    between atoms: C12_21  and  S3_22 
REMARK    7  A    between atoms: S3_22  and  C13_23 
REMARK    8  A    between atoms: C13_23  and  C14_24 
REMARK    9  A    between atoms: C14_24  and  C15_25 
REMARK   10  A    between atoms: C15_25  and  O3_26 
ROOT
HETATM    1  N1  UNL     1      34.982  31.077  16.417  1.00  0.00    -0.335 N 
HETATM    2  C8  UNL     1      35.814  30.620  17.376  1.00  0.00     0.184 A 
HETATM    3  N2  UNL     1      35.199  30.693  18.556  1.00  0.00    -0.345 N 
ATOM      4  H2  UNL     1      35.582  30.417  19.461  1.00  0.00     0.167 HD
HETATM    5  C9  UNL     1      33.973  31.201  18.321  1.00  0.00     0.104 A 
HETATM    6  S2  UNL     1      32.495  31.675  19.029  1.00  0.00    -0.064 SA
HETATM    7  C10 UNL     1      31.674  32.190  17.633  1.00  0.00     0.091 A 
HETATM    8  C12 UNL     1      32.583  31.976  16.638  1.00  0.00     0.052 A 
HETATM    9  C18 UNL     1      33.788  31.459  16.989  1.00  0.00     0.088 A 
ENDROOT
BRANCH   1  10
HETATM   10  C2  UNL     1      35.350  31.097  15.023  1.00  0.00     0.090 C 
HETATM   11  C1  UNL     1      34.773  29.792  14.364  1.00  0.00     0.033 C 
BRANCH  10  12
HETATM   12  C3  UNL     1      36.768  31.099  14.667  1.00  0.00     0.064 C 
BRANCH  12  13
HETATM   13  C4  UNL     1      37.460  32.364  14.320  1.00  0.00     0.069 C 
HETATM   14  C5  UNL     1      38.689  32.351  13.526  1.00  0.00     0.049 C 
HETATM   15  C6  UNL     1      38.405  31.814  12.129  1.00  0.00     0.077 C 
HETATM   16  S1  UNL     1      36.739  32.477  11.836  1.00  0.00    -0.166 SA
HETATM   17  C7  UNL     1      36.457  33.241  13.458  1.00  0.00     0.111 C 
BRANCH  13  18
HETATM   18  O1  UNL     1      37.623  33.204  15.443  1.00  0.00    -0.389 OA
ATOM     19  H1  UNL     1      37.100  33.994  15.376  1.00  0.00     0.210 HD
ENDBRANCH  13  18
ENDBRANCH  12  13
ENDBRANCH  10  12
ENDBRANCH   1  10
BRANCH   8  20
HETATM   20  S3  UNL     1      32.089  32.398  14.930  1.00  0.00    -0.125 SA
BRANCH  20  21
HETATM   21  C13 UNL     1      32.947  33.942  14.486  1.00  0.00     0.091 C 
BRANCH  21  22
HETATM   22  C14 UNL     1      32.006  35.080  14.299  1.00  0.00    -0.010 A 
HETATM   23  C16 UNL     1      32.200  35.831  12.983  1.00  0.00     0.013 A 
HETATM   24  C17 UNL     1      32.558  36.474  14.286  1.00  0.00     0.013 A 
BRANCH  22  25
HETATM   25  C15 UNL     1      30.550  34.900  14.659  1.00  0.00     0.174 C 
BRANCH  25  26
HETATM   26  O3  UNL     1      30.167  35.767  15.684  1.00  0.00    -0.400 OA
ATOM     27  H3  UNL     1      29.403  35.442  16.146  1.00  0.00     0.209 HD
ENDBRANCH  25  26
ENDBRANCH  22  25
ENDBRANCH  21  22
ENDBRANCH  20  21
ENDBRANCH   8  20
BRANCH   7  28
HETATM   28  C11 UNL     1      30.304  32.733  17.565  1.00  0.00     0.273 C 
HETATM   29  N3  UNL     1      29.209  31.967  17.148  1.00  0.00    -0.057 NA
HETATM   30  O2  UNL     1      30.137  33.933  17.900  1.00  0.00    -0.270 OA
ENDBRANCH   7  28
TORSDOF 10
ENDMDL
