MODEL 1
REMARK VINA RESULT: -7.753918521      0.000      0.000
REMARK  8 active torsions:
REMARK  status: ('A' for Active; 'I' for Inactive)
REMARK    1  A    between atoms: C2_2  and  C4_4 
REMARK    2  A    between atoms: C6_9  and  C7_10 
REMARK    3  A    between atoms: C7_10  and  C9_12 
REMARK    4  A    between atoms: C11_14  and  O2_15 
REMARK    5  A    between atoms: C12_19  and  C13_20 
REMARK    6  A    between atoms: C17_27  and  C18_28 
REMARK    7  A    between atoms: C18_28  and  C19_29 
REMARK    8  A    between atoms: C19_29  and  C20_30 
ROOT
HETATM    1  C4  UNL     1       3.804  16.784  31.236  1.00  0.00     0.205 C 
HETATM    2  C5  UNL     1       3.296  18.088  30.796  1.00  0.00     0.236 C 
HETATM    3  O1  UNL     1       4.171  19.043  30.758  1.00  0.00    -0.272 OA
HETATM    4  N1  UNL     1       2.013  18.479  30.410  1.00  0.00    -0.348 N 
ATOM      5  H1  UNL     1       1.624  19.240  30.967  1.00  0.00     0.163 HD
HETATM    6  C6  UNL     1       1.137  18.006  29.370  1.00  0.00     0.162 C 
HETATM    7  C11 UNL     1      -0.271  17.961  29.912  1.00  0.00     0.135 C 
HETATM    8  N2  UNL     1      -1.478  18.147  29.238  1.00  0.00    -0.359 N 
ATOM      9  H2  UNL     1      -2.004  18.968  29.538  1.00  0.00     0.162 HD
HETATM   10  C12 UNL     1      -2.112  17.387  28.195  1.00  0.00     0.179 C 
HETATM   11  C16 UNL     1      -3.450  16.867  28.681  1.00  0.00     0.241 C 
HETATM   12  O3  UNL     1      -4.294  17.768  28.928  1.00  0.00    -0.271 OA
HETATM   13  N3  UNL     1      -3.798  15.532  28.864  1.00  0.00    -0.346 N 
ATOM     14  H3  UNL     1      -4.797  15.344  28.943  1.00  0.00     0.163 HD
HETATM   15  C17 UNL     1      -2.948  14.393  28.956  1.00  0.00     0.176 C 
HETATM   16  C22 UNL     1      -2.461  14.175  30.359  1.00  0.00     0.240 C 
HETATM   17  O4  UNL     1      -3.305  14.321  31.276  1.00  0.00    -0.271 OA
HETATM   18  N4  UNL     1      -1.143  13.826  30.699  1.00  0.00    -0.359 N 
ATOM     19  H4  UNL     1      -0.797  14.108  31.616  1.00  0.00     0.162 HD
HETATM   20  C23 UNL     1      -0.247  13.095  29.834  1.00  0.00     0.125 C 
HETATM   21  C24 UNL     1       1.130  12.960  30.457  1.00  0.00     0.046 C 
HETATM   22  C25 UNL     1       1.591  14.301  31.024  1.00  0.00     0.180 C 
HETATM   23  O5  UNL     1       2.923  14.547  30.689  1.00  0.00    -0.321 OA
HETATM   24  C26 UNL     1       3.582  15.653  30.304  1.00  0.00     0.276 C 
HETATM   25  O6  UNL     1       4.041  15.773  29.141  1.00  0.00    -0.264 OA
ENDROOT
BRANCH   6  26
HETATM   26  C7  UNL     1       1.235  18.792  28.125  1.00  0.00     0.012 C 
HETATM   27  C8  UNL     1       2.051  18.038  27.072  1.00  0.00     0.012 C 
BRANCH  26  28
HETATM   28  C9  UNL     1       1.674  20.209  28.214  1.00  0.00     0.002 C 
HETATM   29  C10 UNL     1       2.968  20.548  27.547  1.00  0.00     0.005 C 
ENDBRANCH  26  28
ENDBRANCH   6  26
BRANCH   7  30
HETATM   30  O2  UNL     1      -0.292  17.710  31.188  1.00  0.00    -0.348 OA
ATOM     31  H2  UNL     1      -1.173  17.743  31.541  1.00  0.00     0.219 HD
ENDBRANCH   7  30
BRANCH   1  32
HETATM   32  C2  UNL     1       3.496  16.429  32.635  1.00  0.00    -0.071 C 
HETATM   33  C1  UNL     1       4.207  15.547  33.292  1.00  0.00     0.015 C 
HETATM   34  C3  UNL     1       2.351  17.091  33.311  1.00  0.00     0.044 C 
ENDBRANCH   1  32
BRANCH  10  35
HETATM   35  C13 UNL     1      -2.444  18.248  26.999  1.00  0.00     0.009 C 
HETATM   36  C14 UNL     1      -2.085  19.691  27.257  1.00  0.00     0.012 C 
HETATM   37  C15 UNL     1      -1.845  17.849  25.712  1.00  0.00     0.012 C 
ENDBRANCH  10  35
BRANCH  15  38
HETATM   38  C18 UNL     1      -3.563  13.091  28.555  1.00  0.00     0.035 C 
BRANCH  38  39
HETATM   39  C19 UNL     1      -4.712  13.100  27.635  1.00  0.00     0.002 C 
BRANCH  39  40
HETATM   40  C20 UNL     1      -4.443  12.782  26.207  1.00  0.00    -0.004 C 
HETATM   41  C21 UNL     1      -4.058  14.055  25.438  1.00  0.00     0.005 C 
ENDBRANCH  39  40
ENDBRANCH  38  39
ENDBRANCH  15  38
TORSDOF 8
ENDMDL
MODEL 2
REMARK VINA RESULT: -7.654207457      1.131      1.400
REMARK  8 active torsions:
REMARK  status: ('A' for Active; 'I' for Inactive)
REMARK    1  A    between atoms: C2_2  and  C4_4 
REMARK    2  A    between atoms: C6_9  and  C7_10 
REMARK    3  A    between atoms: C7_10  and  C9_12 
REMARK    4  A    between atoms: C11_14  and  O2_15 
REMARK    5  A    between atoms: C12_19  and  C13_20 
REMARK    6  A    between atoms: C17_27  and  C18_28 
REMARK    7  A    between atoms: C18_28  and  C19_29 
REMARK    8  A    between atoms: C19_29  and  C20_30 
ROOT
HETATM    1  C4  UNL     1       3.385  16.204  31.551  1.00  0.00     0.205 C 
HETATM    2  C5  UNL     1       3.363  17.558  30.986  1.00  0.00     0.236 C 
HETATM    3  O1  UNL     1       4.486  18.202  31.038  1.00  0.00    -0.272 OA
HETATM    4  N1  UNL     1       2.322  18.279  30.398  1.00  0.00    -0.348 N 
ATOM      5  H1  UNL     1       2.117  19.166  30.859  1.00  0.00     0.163 HD
HETATM    6  C6  UNL     1       1.484  18.002  29.261  1.00  0.00     0.162 C 
HETATM    7  C11 UNL     1       0.073  18.425  29.590  1.00  0.00     0.135 C 
HETATM    8  N2  UNL     1      -0.922  18.904  28.738  1.00  0.00    -0.359 N 
ATOM      9  H2  UNL     1      -1.204  19.866  28.922  1.00  0.00     0.162 HD
HETATM   10  C12 UNL     1      -1.619  18.282  27.645  1.00  0.00     0.179 C 
HETATM   11  C16 UNL     1      -3.103  18.227  27.949  1.00  0.00     0.241 C 
HETATM   12  O3  UNL     1      -3.654  19.357  28.031  1.00  0.00    -0.271 OA
HETATM   13  N3  UNL     1      -3.864  17.077  28.134  1.00  0.00    -0.346 N 
ATOM     14  H3  UNL     1      -4.874  17.203  28.072  1.00  0.00     0.163 HD
HETATM   15  C17 UNL     1      -3.424  15.749  28.398  1.00  0.00     0.176 C 
HETATM   16  C22 UNL     1      -3.212  15.516  29.866  1.00  0.00     0.240 C 
HETATM   17  O4  UNL     1      -4.081  15.984  30.642  1.00  0.00    -0.271 OA
HETATM   18  N4  UNL     1      -2.120  14.820  30.411  1.00  0.00    -0.359 N 
ATOM     19  H4  UNL     1      -1.824  15.063  31.357  1.00  0.00     0.162 HD
HETATM   20  C23 UNL     1      -1.388  13.785  29.720  1.00  0.00     0.125 C 
HETATM   21  C24 UNL     1      -0.210  13.299  30.545  1.00  0.00     0.046 C 
HETATM   22  C25 UNL     1       0.563  14.485  31.117  1.00  0.00     0.180 C 
HETATM   23  O5  UNL     1       1.938  14.293  30.974  1.00  0.00    -0.321 OA
HETATM   24  C26 UNL     1       2.948  15.115  30.644  1.00  0.00     0.276 C 
HETATM   25  O6  UNL     1       3.567  14.994  29.558  1.00  0.00    -0.264 OA
ENDROOT
BRANCH   6  26
HETATM   26  C7  UNL     1       1.977  18.615  28.012  1.00  0.00     0.012 C 
HETATM   27  C8  UNL     1       2.960  17.679  27.303  1.00  0.00     0.012 C 
BRANCH  26  28
HETATM   28  C9  UNL     1       2.516  19.999  28.067  1.00  0.00     0.002 C 
HETATM   29  C10 UNL     1       2.859  20.631  26.756  1.00  0.00     0.005 C 
ENDBRANCH  26  28
ENDBRANCH   6  26
BRANCH   7  30
HETATM   30  O2  UNL     1      -0.187  18.300  30.858  1.00  0.00    -0.348 OA
ATOM     31  H2  UNL     1      -0.823  18.941  31.154  1.00  0.00     0.219 HD
ENDBRANCH   7  30
BRANCH   1  32
HETATM   32  C2  UNL     1       2.806  16.077  32.903  1.00  0.00    -0.071 C 
HETATM   33  C1  UNL     1       2.044  17.011  33.413  1.00  0.00     0.015 C 
HETATM   34  C3  UNL     1       3.097  14.858  33.698  1.00  0.00     0.044 C 
ENDBRANCH   1  32
BRANCH  10  35
HETATM   35  C13 UNL     1      -1.514  19.098  26.378  1.00  0.00     0.009 C 
HETATM   36  C14 UNL     1      -0.910  20.453  26.657  1.00  0.00     0.012 C 
HETATM   37  C15 UNL     1      -0.773  18.487  25.259  1.00  0.00     0.012 C 
ENDBRANCH  10  35
BRANCH  15  38
HETATM   38  C18 UNL     1      -4.352  14.660  27.966  1.00  0.00     0.035 C 
BRANCH  38  39
HETATM   39  C19 UNL     1      -4.272  14.164  26.582  1.00  0.00     0.002 C 
BRANCH  39  40
HETATM   40  C20 UNL     1      -4.481  12.708  26.367  1.00  0.00    -0.004 C 
HETATM   41  C21 UNL     1      -3.987  11.910  27.584  1.00  0.00     0.005 C 
ENDBRANCH  39  40
ENDBRANCH  38  39
ENDBRANCH  15  38
TORSDOF 8
ENDMDL
MODEL 3
REMARK VINA RESULT: -7.245017758      1.430      1.891
REMARK  8 active torsions:
REMARK  status: ('A' for Active; 'I' for Inactive)
REMARK    1  A    between atoms: C2_2  and  C4_4 
REMARK    2  A    between atoms: C6_9  and  C7_10 
REMARK    3  A    between atoms: C7_10  and  C9_12 
REMARK    4  A    between atoms: C11_14  and  O2_15 
REMARK    5  A    between atoms: C12_19  and  C13_20 
REMARK    6  A    between atoms: C17_27  and  C18_28 
REMARK    7  A    between atoms: C18_28  and  C19_29 
REMARK    8  A    between atoms: C19_29  and  C20_30 
ROOT
HETATM    1  C4  UNL     1       2.896  16.131  31.027  1.00  0.00     0.205 C 
HETATM    2  C5  UNL     1       2.976  17.534  30.605  1.00  0.00     0.236 C 
HETATM    3  O1  UNL     1       4.165  18.050  30.606  1.00  0.00    -0.272 OA
HETATM    4  N1  UNL     1       1.974  18.419  30.201  1.00  0.00    -0.348 N 
ATOM      5  H1  UNL     1       1.914  19.266  30.766  1.00  0.00     0.163 HD
HETATM    6  C6  UNL     1       1.012  18.356  29.132  1.00  0.00     0.162 C 
HETATM    7  C11 UNL     1      -0.308  18.882  29.645  1.00  0.00     0.135 C 
HETATM    8  N2  UNL     1      -1.314  19.552  28.949  1.00  0.00    -0.359 N 
ATOM      9  H2  UNL     1      -1.469  20.512  29.256  1.00  0.00     0.162 HD
HETATM   10  C12 UNL     1      -2.173  19.129  27.877  1.00  0.00     0.179 C 
HETATM   11  C16 UNL     1      -3.621  19.194  28.323  1.00  0.00     0.241 C 
HETATM   12  O3  UNL     1      -4.031  20.358  28.573  1.00  0.00    -0.271 OA
HETATM   13  N3  UNL     1      -4.486  18.115  28.469  1.00  0.00    -0.346 N 
ATOM     14  H3  UNL     1      -5.478  18.350  28.523  1.00  0.00     0.163 HD
HETATM   15  C17 UNL     1      -4.177  16.727  28.554  1.00  0.00     0.176 C 
HETATM   16  C22 UNL     1      -3.861  16.313  29.962  1.00  0.00     0.240 C 
HETATM   17  O4  UNL     1      -4.598  16.780  30.864  1.00  0.00    -0.271 OA
HETATM   18  N4  UNL     1      -2.809  15.454  30.321  1.00  0.00    -0.359 N 
ATOM     19  H4  UNL     1      -2.404  15.559  31.251  1.00  0.00     0.162 HD
HETATM   20  C23 UNL     1      -2.265  14.431  29.459  1.00  0.00     0.125 C 
HETATM   21  C24 UNL     1      -1.080  13.739  30.107  1.00  0.00     0.046 C 
HETATM   22  C25 UNL     1      -0.128  14.769  30.713  1.00  0.00     0.180 C 
HETATM   23  O5  UNL     1       1.197  14.454  30.412  1.00  0.00    -0.321 OA
HETATM   24  C26 UNL     1       2.260  15.200  30.065  1.00  0.00     0.276 C 
HETATM   25  O6  UNL     1       2.760  15.136  28.915  1.00  0.00    -0.264 OA
ENDROOT
BRANCH   6  26
HETATM   26  C7  UNL     1       1.456  19.049  27.908  1.00  0.00     0.012 C 
HETATM   27  C8  UNL     1       1.522  18.074  26.729  1.00  0.00     0.012 C 
BRANCH  26  28
HETATM   28  C9  UNL     1       2.686  19.881  27.971  1.00  0.00     0.002 C 
HETATM   29  C10 UNL     1       2.875  20.872  26.867  1.00  0.00     0.005 C 
ENDBRANCH  26  28
ENDBRANCH   6  26
BRANCH   7  30
HETATM   30  O2  UNL     1      -0.464  18.647  30.914  1.00  0.00    -0.348 OA
ATOM     31  H2  UNL     1      -1.243  19.066  31.258  1.00  0.00     0.219 HD
ENDBRANCH   7  30
BRANCH   1  32
HETATM   32  C2  UNL     1       2.431  15.916  32.411  1.00  0.00    -0.071 C 
HETATM   33  C1  UNL     1       1.633  16.766  33.006  1.00  0.00     0.015 C 
HETATM   34  C3  UNL     1       2.882  14.705  33.141  1.00  0.00     0.044 C 
ENDBRANCH   1  32
BRANCH  10  35
HETATM   35  C13 UNL     1      -2.092  20.065  26.694  1.00  0.00     0.009 C 
HETATM   36  C14 UNL     1      -1.154  21.213  26.977  1.00  0.00     0.012 C 
HETATM   37  C15 UNL     1      -1.706  19.464  25.403  1.00  0.00     0.012 C 
ENDBRANCH  10  35
BRANCH  15  38
HETATM   38  C18 UNL     1      -5.257  15.794  28.111  1.00  0.00     0.035 C 
BRANCH  38  39
HETATM   39  C19 UNL     1      -5.029  14.951  26.926  1.00  0.00     0.002 C 
BRANCH  39  40
HETATM   40  C20 UNL     1      -3.990  15.399  25.962  1.00  0.00    -0.004 C 
HETATM   41  C21 UNL     1      -3.787  14.344  24.864  1.00  0.00     0.005 C 
ENDBRANCH  39  40
ENDBRANCH  38  39
ENDBRANCH  15  38
TORSDOF 8
ENDMDL
MODEL 4
REMARK VINA RESULT: -7.022519700      2.189      5.578
REMARK  8 active torsions:
REMARK  status: ('A' for Active; 'I' for Inactive)
REMARK    1  A    between atoms: C2_2  and  C4_4 
REMARK    2  A    between atoms: C6_9  and  C7_10 
REMARK    3  A    between atoms: C7_10  and  C9_12 
REMARK    4  A    between atoms: C11_14  and  O2_15 
REMARK    5  A    between atoms: C12_19  and  C13_20 
REMARK    6  A    between atoms: C17_27  and  C18_28 
REMARK    7  A    between atoms: C18_28  and  C19_29 
REMARK    8  A    between atoms: C19_29  and  C20_30 
ROOT
HETATM    1  C4  UNL     1       1.024  21.748  27.287  1.00  0.00     0.205 C 
HETATM    2  C5  UNL     1      -0.355  21.368  26.964  1.00  0.00     0.236 C 
HETATM    3  O1  UNL     1      -0.913  22.049  26.013  1.00  0.00    -0.272 OA
HETATM    4  N1  UNL     1      -1.179  20.385  27.517  1.00  0.00    -0.348 N 
ATOM      5  H1  UNL     1      -2.053  20.743  27.902  1.00  0.00     0.163 HD
HETATM    6  C6  UNL     1      -1.021  18.960  27.643  1.00  0.00     0.162 C 
HETATM    7  C11 UNL     1      -1.527  18.540  29.003  1.00  0.00     0.135 C 
HETATM    8  N2  UNL     1      -2.119  17.337  29.385  1.00  0.00    -0.359 N 
ATOM      9  H2  UNL     1      -3.089  17.425  29.689  1.00  0.00     0.162 HD
HETATM   10  C12 UNL     1      -1.606  15.995  29.427  1.00  0.00     0.179 C 
HETATM   11  C16 UNL     1      -1.643  15.476  30.851  1.00  0.00     0.241 C 
HETATM   12  O3  UNL     1      -2.803  15.351  31.325  1.00  0.00    -0.271 OA
HETATM   13  N3  UNL     1      -0.543  15.144  31.635  1.00  0.00    -0.346 N 
ATOM     14  H3  UNL     1      -0.744  14.576  32.458  1.00  0.00     0.163 HD
HETATM   15  C17 UNL     1       0.826  15.489  31.444  1.00  0.00     0.176 C 
HETATM   16  C22 UNL     1       1.149  16.828  32.041  1.00  0.00     0.240 C 
HETATM   17  O4  UNL     1       0.661  17.074  33.171  1.00  0.00    -0.271 OA
HETATM   18  N4  UNL     1       1.948  17.803  31.421  1.00  0.00    -0.359 N 
ATOM     19  H4  UNL     1       1.777  18.781  31.657  1.00  0.00     0.162 HD
HETATM   20  C23 UNL     1       2.996  17.511  30.472  1.00  0.00     0.125 C 
HETATM   21  C24 UNL     1       3.608  18.786  29.918  1.00  0.00     0.046 C 
HETATM   22  C25 UNL     1       2.512  19.772  29.519  1.00  0.00     0.180 C 
HETATM   23  O5  UNL     1       2.794  20.349  28.281  1.00  0.00    -0.321 OA
HETATM   24  C26 UNL     1       2.030  20.662  27.221  1.00  0.00     0.276 C 
HETATM   25  O6  UNL     1       2.139  20.050  26.129  1.00  0.00    -0.264 OA
ENDROOT
BRANCH   6  26
HETATM   26  C7  UNL     1      -1.661  18.205  26.548  1.00  0.00     0.012 C 
HETATM   27  C8  UNL     1      -0.658  17.926  25.426  1.00  0.00     0.012 C 
BRANCH  26  28
HETATM   28  C9  UNL     1      -2.944  18.711  25.993  1.00  0.00     0.002 C 
HETATM   29  C10 UNL     1      -3.770  17.729  25.226  1.00  0.00     0.005 C 
ENDBRANCH  26  28
ENDBRANCH   6  26
BRANCH   7  30
HETATM   30  O2  UNL     1      -1.356  19.473  29.892  1.00  0.00    -0.348 OA
ATOM     31  H2  UNL     1      -1.296  19.117  30.771  1.00  0.00     0.219 HD
ENDBRANCH   7  30
BRANCH   1  32
HETATM   32  C2  UNL     1       1.179  22.586  28.492  1.00  0.00    -0.071 C 
HETATM   33  C1  UNL     1       2.155  23.452  28.605  1.00  0.00     0.015 C 
HETATM   34  C3  UNL     1       0.202  22.440  29.601  1.00  0.00     0.044 C 
ENDBRANCH   1  32
BRANCH  10  35
HETATM   35  C13 UNL     1      -2.478  15.039  28.647  1.00  0.00     0.009 C 
HETATM   36  C14 UNL     1      -2.650  13.736  29.389  1.00  0.00     0.012 C 
HETATM   37  C15 UNL     1      -3.815  15.528  28.264  1.00  0.00     0.012 C 
ENDBRANCH  10  35
BRANCH  15  38
HETATM   38  C18 UNL     1       1.821  14.550  32.045  1.00  0.00     0.035 C 
BRANCH  38  39
HETATM   39  C19 UNL     1       2.324  13.430  31.232  1.00  0.00     0.002 C 
BRANCH  39  40
HETATM   40  C20 UNL     1       1.408  12.279  31.018  1.00  0.00    -0.004 C 
HETATM   41  C21 UNL     1       0.765  12.358  29.624  1.00  0.00     0.005 C 
ENDBRANCH  39  40
ENDBRANCH  38  39
ENDBRANCH  15  38
TORSDOF 8
ENDMDL
MODEL 5
REMARK VINA RESULT: -6.873365721      2.317      7.195
REMARK  8 active torsions:
REMARK  status: ('A' for Active; 'I' for Inactive)
REMARK    1  A    between atoms: C2_2  and  C4_4 
REMARK    2  A    between atoms: C6_9  and  C7_10 
REMARK    3  A    between atoms: C7_10  and  C9_12 
REMARK    4  A    between atoms: C11_14  and  O2_15 
REMARK    5  A    between atoms: C12_19  and  C13_20 
REMARK    6  A    between atoms: C17_27  and  C18_28 
REMARK    7  A    between atoms: C18_28  and  C19_29 
REMARK    8  A    between atoms: C19_29  and  C20_30 
ROOT
HETATM    1  C4  UNL     1      -2.772  20.355  25.376  1.00  0.00     0.205 C 
HETATM    2  C5  UNL     1      -4.015  19.698  25.795  1.00  0.00     0.236 C 
HETATM    3  O1  UNL     1      -5.061  19.977  25.082  1.00  0.00    -0.272 OA
HETATM    4  N1  UNL     1      -4.265  18.816  26.847  1.00  0.00    -0.348 N 
ATOM      5  H1  UNL     1      -4.975  19.140  27.504  1.00  0.00     0.163 HD
HETATM    6  C6  UNL     1      -3.705  17.531  27.177  1.00  0.00     0.162 C 
HETATM    7  C11 UNL     1      -3.502  17.465  28.672  1.00  0.00     0.135 C 
HETATM    8  N2  UNL     1      -3.558  16.358  29.517  1.00  0.00    -0.359 N 
ATOM      9  H2  UNL     1      -4.315  16.390  30.201  1.00  0.00     0.162 HD
HETATM   10  C12 UNL     1      -2.740  15.178  29.596  1.00  0.00     0.179 C 
HETATM   11  C16 UNL     1      -2.073  15.107  30.955  1.00  0.00     0.241 C 
HETATM   12  O3  UNL     1      -2.875  14.961  31.915  1.00  0.00    -0.271 OA
HETATM   13  N3  UNL     1      -0.707  15.187  31.207  1.00  0.00    -0.346 N 
ATOM     14  H3  UNL     1      -0.410  14.866  32.129  1.00  0.00     0.163 HD
HETATM   15  C17 UNL     1       0.332  15.656  30.354  1.00  0.00     0.176 C 
HETATM   16  C22 UNL     1       0.504  17.144  30.453  1.00  0.00     0.240 C 
HETATM   17  O4  UNL     1       0.457  17.640  31.605  1.00  0.00    -0.271 OA
HETATM   18  N4  UNL     1       0.708  17.996  29.355  1.00  0.00    -0.359 N 
ATOM     19  H4  UNL     1       0.395  18.963  29.438  1.00  0.00     0.162 HD
HETATM   20  C23 UNL     1       1.330  17.591  28.117  1.00  0.00     0.125 C 
HETATM   21  C24 UNL     1       1.317  18.718  27.100  1.00  0.00     0.046 C 
HETATM   22  C25 UNL     1      -0.063  19.370  27.047  1.00  0.00     0.180 C 
HETATM   23  O5  UNL     1      -0.455  19.588  25.726  1.00  0.00    -0.321 OA
HETATM   24  C26 UNL     1      -1.629  19.457  25.086  1.00  0.00     0.276 C 
HETATM   25  O6  UNL     1      -1.807  18.571  24.213  1.00  0.00    -0.264 OA
ENDROOT
BRANCH   6  26
HETATM   26  C7  UNL     1      -4.505  16.400  26.668  1.00  0.00     0.012 C 
HETATM   27  C8  UNL     1      -3.824  15.759  25.456  1.00  0.00     0.012 C 
BRANCH  26  28
HETATM   28  C9  UNL     1      -5.952  16.617  26.405  1.00  0.00     0.002 C 
HETATM   29  C10 UNL     1      -6.891  15.604  26.977  1.00  0.00     0.005 C 
ENDBRANCH  26  28
ENDBRANCH   6  26
BRANCH   7  30
HETATM   30  O2  UNL     1      -3.243  18.635  29.177  1.00  0.00    -0.348 OA
ATOM     31  H2  UNL     1      -3.743  18.797  29.968  1.00  0.00     0.219 HD
ENDBRANCH   7  30
BRANCH   1  32
HETATM   32  C2  UNL     1      -2.377  21.526  26.182  1.00  0.00    -0.071 C 
HETATM   33  C1  UNL     1      -2.703  21.631  27.445  1.00  0.00     0.015 C 
HETATM   34  C3  UNL     1      -1.589  22.608  25.540  1.00  0.00     0.044 C 
ENDBRANCH   1  32
BRANCH  10  35
HETATM   35  C13 UNL     1      -3.567  13.917  29.506  1.00  0.00     0.009 C 
HETATM   36  C14 UNL     1      -5.018  14.201  29.807  1.00  0.00     0.012 C 
HETATM   37  C15 UNL     1      -3.499  13.174  28.234  1.00  0.00     0.012 C 
ENDBRANCH  10  35
BRANCH  15  38
HETATM   38  C18 UNL     1       1.691  15.093  30.618  1.00  0.00     0.035 C 
BRANCH  38  39
HETATM   39  C19 UNL     1       1.878  14.195  31.770  1.00  0.00     0.002 C 
BRANCH  39  40
HETATM   40  C20 UNL     1       2.767  14.668  32.865  1.00  0.00    -0.004 C 
HETATM   41  C21 UNL     1       3.638  15.837  32.380  1.00  0.00     0.005 C 
ENDBRANCH  39  40
ENDBRANCH  38  39
ENDBRANCH  15  38
TORSDOF 8
ENDMDL
