MODEL 1
REMARK VINA RESULT: -7.053759907      0.000      0.000
REMARK  5 active torsions:
REMARK  status: ('A' for Active; 'I' for Inactive)
REMARK    1  A    between atoms: C8_13  and  C9_14 
REMARK    2  A    between atoms: C9_14  and  C10_15 
REMARK    3  A    between atoms: C10_15  and  C11_16 
REMARK    4  A    between atoms: C11_16  and  C12_17 
REMARK    5  A    between atoms: C12_17  and  O1_18 
ROOT
HETATM    1  N1  UNL     1      15.274  10.743  22.253  1.00  0.00    -0.385 N 
ATOM      2  H11 UNL     1      16.166  11.153  21.979  1.00  0.00     0.157 HD
ATOM      3  H12 UNL     1      14.557  11.201  21.690  1.00  0.00     0.157 HD
HETATM    4  C1  UNL     1      15.027   9.823  23.128  1.00  0.00     0.106 A 
HETATM    5  N2  UNL     1      13.801   9.259  23.504  1.00  0.00    -0.342 N 
ATOM      6  H2  UNL     1      12.882   9.495  23.131  1.00  0.00     0.167 HD
HETATM    7  C2  UNL     1      14.064   8.370  24.425  1.00  0.00     0.044 A 
HETATM    8  C3  UNL     1      13.190   7.557  25.099  1.00  0.00     0.030 A 
HETATM    9  C4  UNL     1      13.605   6.660  26.050  1.00  0.00     0.002 A 
HETATM   10  C5  UNL     1      14.946   6.575  26.335  1.00  0.00     0.001 A 
HETATM   11  C6  UNL     1      15.836   7.407  25.645  1.00  0.00     0.014 A 
HETATM   12  C7  UNL     1      15.413   8.306  24.691  1.00  0.00     0.001 A 
HETATM   13  C8  UNL     1      16.078   9.152  23.952  1.00  0.00    -0.002 A 
ENDROOT
BRANCH  13  14
HETATM   14  C9  UNL     1      17.488   9.508  23.808  1.00  0.00     0.043 C 
BRANCH  14  15
HETATM   15  C10 UNL     1      17.981  10.802  24.289  1.00  0.00     0.007 C 
BRANCH  15  16
HETATM   16  C11 UNL     1      18.965  11.384  23.254  1.00  0.00     0.026 C 
BRANCH  16  17
HETATM   17  C12 UNL     1      18.488  12.647  22.627  1.00  0.00     0.164 C 
BRANCH  17  18
HETATM   18  O1  UNL     1      17.633  12.353  21.555  1.00  0.00    -0.401 OA
ATOM     19  H1  UNL     1      16.754  12.655  21.750  1.00  0.00     0.209 HD
ENDBRANCH  17  18
ENDBRANCH  16  17
ENDBRANCH  15  16
ENDBRANCH  14  15
ENDBRANCH  13  14
TORSDOF 5
ENDMDL
MODEL 2
REMARK VINA RESULT: -6.979544303      1.866      1.936
REMARK  5 active torsions:
REMARK  status: ('A' for Active; 'I' for Inactive)
REMARK    1  A    between atoms: C8_13  and  C9_14 
REMARK    2  A    between atoms: C9_14  and  C10_15 
REMARK    3  A    between atoms: C10_15  and  C11_16 
REMARK    4  A    between atoms: C11_16  and  C12_17 
REMARK    5  A    between atoms: C12_17  and  O1_18 
ROOT
HETATM    1  N1  UNL     1      16.046  11.216  22.325  1.00  0.00    -0.385 N 
ATOM      2  H11 UNL     1      16.994  11.562  22.181  1.00  0.00     0.157 HD
ATOM      3  H12 UNL     1      15.435  11.784  21.738  1.00  0.00     0.157 HD
HETATM    4  C1  UNL     1      15.629  10.254  23.083  1.00  0.00     0.106 A 
HETATM    5  N2  UNL     1      14.327   9.778  23.281  1.00  0.00    -0.342 N 
ATOM      6  H2  UNL     1      13.476  10.130  22.842  1.00  0.00     0.167 HD
HETATM    7  C2  UNL     1      14.413   8.795  24.139  1.00  0.00     0.044 A 
HETATM    8  C3  UNL     1      13.405   8.016  24.644  1.00  0.00     0.030 A 
HETATM    9  C4  UNL     1      13.637   7.008  25.545  1.00  0.00     0.002 A 
HETATM   10  C5  UNL     1      14.928   6.774  25.953  1.00  0.00     0.001 A 
HETATM   11  C6  UNL     1      15.954   7.572  25.436  1.00  0.00     0.014 A 
HETATM   12  C7  UNL     1      15.715   8.583  24.530  1.00  0.00     0.001 A 
HETATM   13  C8  UNL     1      16.525   9.421  23.943  1.00  0.00    -0.002 A 
ENDROOT
BRANCH  13  14
HETATM   14  C9  UNL     1      17.967   9.653  23.974  1.00  0.00     0.043 C 
BRANCH  14  15
HETATM   15  C10 UNL     1      18.622  10.093  25.208  1.00  0.00     0.007 C 
BRANCH  15  16
HETATM   16  C11 UNL     1      20.149  10.119  24.989  1.00  0.00     0.026 C 
BRANCH  16  17
HETATM   17  C12 UNL     1      20.552   9.814  23.590  1.00  0.00     0.164 C 
BRANCH  17  18
HETATM   18  O1  UNL     1      21.878   9.358  23.565  1.00  0.00    -0.401 OA
ATOM     19  H1  UNL     1      21.974   8.678  22.908  1.00  0.00     0.209 HD
ENDBRANCH  17  18
ENDBRANCH  16  17
ENDBRANCH  15  16
ENDBRANCH  14  15
ENDBRANCH  13  14
TORSDOF 5
ENDMDL
MODEL 3
REMARK VINA RESULT: -6.786337166      2.222      2.514
REMARK  5 active torsions:
REMARK  status: ('A' for Active; 'I' for Inactive)
REMARK    1  A    between atoms: C8_13  and  C9_14 
REMARK    2  A    between atoms: C9_14  and  C10_15 
REMARK    3  A    between atoms: C10_15  and  C11_16 
REMARK    4  A    between atoms: C11_16  and  C12_17 
REMARK    5  A    between atoms: C12_17  and  O1_18 
ROOT
HETATM    1  N1  UNL     1      15.780  11.151  22.262  1.00  0.00    -0.385 N 
ATOM      2  H11 UNL     1      16.698  11.553  22.073  1.00  0.00     0.157 HD
ATOM      3  H12 UNL     1      15.113  11.659  21.681  1.00  0.00     0.157 HD
HETATM    4  C1  UNL     1      15.454  10.190  23.064  1.00  0.00     0.106 A 
HETATM    5  N2  UNL     1      14.194   9.637  23.325  1.00  0.00    -0.342 N 
ATOM      6  H2  UNL     1      13.308   9.918  22.906  1.00  0.00     0.167 HD
HETATM    7  C2  UNL     1      14.375   8.691  24.208  1.00  0.00     0.044 A 
HETATM    8  C3  UNL     1      13.439   7.864  24.774  1.00  0.00     0.030 A 
HETATM    9  C4  UNL     1      13.769   6.904  25.696  1.00  0.00     0.002 A 
HETATM   10  C5  UNL     1      15.086   6.768  26.064  1.00  0.00     0.001 A 
HETATM   11  C6  UNL     1      16.039   7.614  25.484  1.00  0.00     0.014 A 
HETATM   12  C7  UNL     1      15.701   8.577  24.558  1.00  0.00     0.001 A 
HETATM   13  C8  UNL     1      16.433   9.446  23.915  1.00  0.00    -0.002 A 
ENDROOT
BRANCH  13  14
HETATM   14  C9  UNL     1      17.857   9.773  23.886  1.00  0.00     0.043 C 
BRANCH  14  15
HETATM   15  C10 UNL     1      18.443  10.631  24.919  1.00  0.00     0.007 C 
BRANCH  15  16
HETATM   16  C11 UNL     1      19.367   9.783  25.817  1.00  0.00     0.026 C 
BRANCH  16  17
HETATM   17  C12 UNL     1      19.409  10.248  27.230  1.00  0.00     0.164 C 
BRANCH  17  18
HETATM   18  O1  UNL     1      19.019   9.207  28.086  1.00  0.00    -0.401 OA
ATOM     19  H1  UNL     1      19.228   8.369  27.690  1.00  0.00     0.209 HD
ENDBRANCH  17  18
ENDBRANCH  16  17
ENDBRANCH  15  16
ENDBRANCH  14  15
ENDBRANCH  13  14
TORSDOF 5
ENDMDL
MODEL 4
REMARK VINA RESULT: -6.756907592      1.434      1.775
REMARK  5 active torsions:
REMARK  status: ('A' for Active; 'I' for Inactive)
REMARK    1  A    between atoms: C8_13  and  C9_14 
REMARK    2  A    between atoms: C9_14  and  C10_15 
REMARK    3  A    between atoms: C10_15  and  C11_16 
REMARK    4  A    between atoms: C11_16  and  C12_17 
REMARK    5  A    between atoms: C12_17  and  O1_18 
ROOT
HETATM    1  N1  UNL     1      16.995  11.791  22.314  1.00  0.00    -0.385 N 
ATOM      2  H11 UNL     1      17.983  12.037  22.362  1.00  0.00     0.157 HD
ATOM      3  H12 UNL     1      16.559  12.454  21.673  1.00  0.00     0.157 HD
HETATM    4  C1  UNL     1      16.355  10.841  22.916  1.00  0.00     0.106 A 
HETATM    5  N2  UNL     1      14.997  10.502  22.850  1.00  0.00    -0.342 N 
ATOM      6  H2  UNL     1      14.279  10.969  22.297  1.00  0.00     0.167 HD
HETATM    7  C2  UNL     1      14.830   9.471  23.636  1.00  0.00     0.044 A 
HETATM    8  C3  UNL     1      13.676   8.780  23.900  1.00  0.00     0.030 A 
HETATM    9  C4  UNL     1      13.641   7.706  24.752  1.00  0.00     0.002 A 
HETATM   10  C5  UNL     1      14.808   7.309  25.360  1.00  0.00     0.001 A 
HETATM   11  C6  UNL     1      15.984   8.017  25.088  1.00  0.00     0.014 A 
HETATM   12  C7  UNL     1      16.013   9.095  24.231  1.00  0.00     0.001 A 
HETATM   13  C8  UNL     1      16.994   9.869  23.855  1.00  0.00    -0.002 A 
ENDROOT
BRANCH  13  14
HETATM   14  C9  UNL     1      18.423   9.939  24.153  1.00  0.00     0.043 C 
BRANCH  14  15
HETATM   15  C10 UNL     1      18.888  10.442  25.448  1.00  0.00     0.007 C 
BRANCH  15  16
HETATM   16  C11 UNL     1      18.860  11.984  25.432  1.00  0.00     0.026 C 
BRANCH  16  17
HETATM   17  C12 UNL     1      20.035  12.592  24.749  1.00  0.00     0.164 C 
BRANCH  17  18
HETATM   18  O1  UNL     1      19.658  13.064  23.484  1.00  0.00    -0.401 OA
ATOM     19  H1  UNL     1      20.251  12.726  22.823  1.00  0.00     0.209 HD
ENDBRANCH  17  18
ENDBRANCH  16  17
ENDBRANCH  15  16
ENDBRANCH  14  15
ENDBRANCH  13  14
TORSDOF 5
ENDMDL
MODEL 5
REMARK VINA RESULT: -6.755680230      2.717      5.488
REMARK  5 active torsions:
REMARK  status: ('A' for Active; 'I' for Inactive)
REMARK    1  A    between atoms: C8_13  and  C9_14 
REMARK    2  A    between atoms: C9_14  and  C10_15 
REMARK    3  A    between atoms: C10_15  and  C11_16 
REMARK    4  A    between atoms: C11_16  and  C12_17 
REMARK    5  A    between atoms: C12_17  and  O1_18 
ROOT
HETATM    1  N1  UNL     1      14.819  10.803  22.458  1.00  0.00    -0.385 N 
ATOM      2  H11 UNL     1      14.158  10.030  22.395  1.00  0.00     0.157 HD
ATOM      3  H12 UNL     1      14.407  11.582  21.943  1.00  0.00     0.157 HD
HETATM    4  C1  UNL     1      15.965  10.858  23.054  1.00  0.00     0.106 A 
HETATM    5  N2  UNL     1      16.874  11.920  23.141  1.00  0.00    -0.342 N 
ATOM      6  H2  UNL     1      16.766  12.848  22.732  1.00  0.00     0.167 HD
HETATM    7  C2  UNL     1      17.886  11.492  23.848  1.00  0.00     0.044 A 
HETATM    8  C3  UNL     1      19.023  12.169  24.204  1.00  0.00     0.030 A 
HETATM    9  C4  UNL     1      20.016  11.594  24.956  1.00  0.00     0.002 A 
HETATM   10  C5  UNL     1      19.861  10.291  25.367  1.00  0.00     0.001 A 
HETATM   11  C6  UNL     1      18.698   9.603  25.001  1.00  0.00     0.014 A 
HETATM   12  C7  UNL     1      17.705  10.187  24.245  1.00  0.00     0.001 A 
HETATM   13  C8  UNL     1      16.568   9.717  23.810  1.00  0.00    -0.002 A 
ENDROOT
BRANCH  13  14
HETATM   14  C9  UNL     1      15.871   8.437  23.922  1.00  0.00     0.043 C 
BRANCH  14  15
HETATM   15  C10 UNL     1      15.598   7.853  25.237  1.00  0.00     0.007 C 
BRANCH  15  16
HETATM   16  C11 UNL     1      14.101   7.490  25.329  1.00  0.00     0.026 C 
BRANCH  16  17
HETATM   17  C12 UNL     1      13.819   6.367  26.265  1.00  0.00     0.164 C 
BRANCH  17  18
HETATM   18  O1  UNL     1      12.658   6.642  27.001  1.00  0.00    -0.401 OA
ATOM     19  H1  UNL     1      12.170   5.840  27.146  1.00  0.00     0.209 HD
ENDBRANCH  17  18
ENDBRANCH  16  17
ENDBRANCH  15  16
ENDBRANCH  14  15
ENDBRANCH  13  14
TORSDOF 5
ENDMDL
