MODEL 1
REMARK VINA RESULT: -6.149785421      0.000      0.000
REMARK  3 active torsions:
REMARK  status: ('A' for Active; 'I' for Inactive)
REMARK       I    between atoms: C1_4  and  N3_6 
REMARK    1  A    between atoms: N4_9  and  C4_10 
REMARK    2  A    between atoms: C4_10  and  C5_11 
REMARK    3  A    between atoms: C15_21  and  N5_22 
ROOT
HETATM    1  N1  UNL     1      26.738   7.387  17.107  1.00  0.00    -0.374 N 
ATOM      2  H11 UNL     1      27.324   7.899  16.448  1.00  0.00     0.158 HD
ATOM      3  H12 UNL     1      26.207   6.578  16.787  1.00  0.00     0.158 HD
HETATM    4  C1  UNL     1      26.735   7.822  18.316  1.00  0.00     0.184 C 
HETATM    5  N2  UNL     1      25.904   7.094  19.251  1.00  0.00    -0.064 NA
HETATM    6  N3  UNL     1      27.466   8.935  18.756  1.00  0.00    -0.350 N 
HETATM    7  C2  UNL     1      27.260   9.552  20.068  1.00  0.00     0.156 C 
HETATM    8  C3  UNL     1      27.345  11.039  19.769  1.00  0.00     0.295 C 
HETATM    9  N4  UNL     1      28.777  11.410  19.596  1.00  0.00     0.123 N 
HETATM   10  C15 UNL     1      29.367  10.525  18.680  1.00  0.00     0.434 C 
HETATM   11  C16 UNL     1      28.453   9.564  17.934  1.00  0.00     0.190 C 
ENDROOT
BRANCH   9  12
HETATM   12  C4  UNL     1      28.761  12.788  19.316  1.00  0.00     0.284 C 
BRANCH  12  13
HETATM   13  C5  UNL     1      29.012  13.784  20.380  1.00  0.00    -0.013 C 
HETATM   14  C6  UNL     1      30.044  14.768  19.779  1.00  0.00     0.016 C 
HETATM   15  C7  UNL     1      30.382  15.861  20.734  1.00  0.00    -0.013 C 
HETATM   16  C8  UNL     1      31.024  15.223  21.948  1.00  0.00     0.009 C 
HETATM   17  C12 UNL     1      29.160  16.651  21.067  1.00  0.00     0.009 C 
HETATM   18  C9  UNL     1      29.980  14.374  22.603  1.00  0.00    -0.013 C 
HETATM   19  C10 UNL     1      28.731  15.150  22.937  1.00  0.00     0.009 C 
HETATM   20  C14 UNL     1      29.545  13.230  21.664  1.00  0.00     0.016 C 
HETATM   21  C11 UNL     1      28.138  15.695  21.648  1.00  0.00    -0.013 C 
HETATM   22  C13 UNL     1      27.777  14.604  20.694  1.00  0.00     0.016 C 
ENDBRANCH  12  13
ENDBRANCH   9  12
BRANCH  10  23
HETATM   23  N5  UNL     1      30.274   9.638  19.457  1.00  0.00    -0.046 N 
ATOM     24  H53 UNL     1      30.479   9.993  20.391  1.00  0.00     0.277 HD
ATOM     25  H52 UNL     1      29.831   8.765  19.744  1.00  0.00     0.277 HD
ATOM     26  H51 UNL     1      31.109   9.496  18.889  1.00  0.00     0.277 HD
ENDBRANCH  10  23
TORSDOF 3
ENDMDL
MODEL 2
REMARK VINA RESULT: -6.092560834      0.163      1.646
REMARK  3 active torsions:
REMARK  status: ('A' for Active; 'I' for Inactive)
REMARK       I    between atoms: C1_4  and  N3_6 
REMARK    1  A    between atoms: N4_9  and  C4_10 
REMARK    2  A    between atoms: C4_10  and  C5_11 
REMARK    3  A    between atoms: C15_21  and  N5_22 
ROOT
HETATM    1  N1  UNL     1      26.741   7.399  17.165  1.00  0.00    -0.374 N 
ATOM      2  H11 UNL     1      27.319   7.932  16.516  1.00  0.00     0.158 HD
ATOM      3  H12 UNL     1      26.241   6.573  16.835  1.00  0.00     0.158 HD
HETATM    4  C1  UNL     1      26.706   7.830  18.375  1.00  0.00     0.184 C 
HETATM    5  N2  UNL     1      25.886   7.072  19.296  1.00  0.00    -0.064 NA
HETATM    6  N3  UNL     1      27.394   8.965  18.828  1.00  0.00    -0.350 N 
HETATM    7  C2  UNL     1      27.148   9.570  20.139  1.00  0.00     0.156 C 
HETATM    8  C3  UNL     1      27.188  11.061  19.845  1.00  0.00     0.295 C 
HETATM    9  N4  UNL     1      28.610  11.479  19.694  1.00  0.00     0.123 N 
HETATM   10  C15 UNL     1      29.241  10.617  18.784  1.00  0.00     0.434 C 
HETATM   11  C16 UNL     1      28.371   9.628  18.023  1.00  0.00     0.190 C 
ENDROOT
BRANCH   9  12
HETATM   12  C4  UNL     1      28.552  12.856  19.418  1.00  0.00     0.284 C 
BRANCH  12  13
HETATM   13  C5  UNL     1      29.079  13.848  20.380  1.00  0.00    -0.013 C 
HETATM   14  C6  UNL     1      27.837  14.617  20.891  1.00  0.00     0.016 C 
HETATM   15  C7  UNL     1      28.206  15.647  21.903  1.00  0.00    -0.013 C 
HETATM   16  C8  UNL     1      29.108  16.654  21.221  1.00  0.00     0.009 C 
HETATM   17  C12 UNL     1      28.843  15.000  23.087  1.00  0.00     0.009 C 
HETATM   18  C9  UNL     1      30.366  15.935  20.846  1.00  0.00    -0.013 C 
HETATM   19  C10 UNL     1      31.021  15.263  22.027  1.00  0.00     0.009 C 
HETATM   20  C14 UNL     1      30.069  14.821  19.820  1.00  0.00     0.016 C 
HETATM   21  C11 UNL     1      30.057  14.236  22.598  1.00  0.00    -0.013 C 
HETATM   22  C13 UNL     1      29.698  13.188  21.595  1.00  0.00     0.016 C 
ENDBRANCH  12  13
ENDBRANCH   9  12
BRANCH  10  23
HETATM   23  N5  UNL     1      30.166   9.757  19.573  1.00  0.00    -0.046 N 
ATOM     24  H53 UNL     1      30.981  10.260  19.923  1.00  0.00     0.277 HD
ATOM     25  H52 UNL     1      29.784   9.482  20.477  1.00  0.00     0.277 HD
ATOM     26  H51 UNL     1      30.409   8.962  18.981  1.00  0.00     0.277 HD
ENDBRANCH  10  23
TORSDOF 3
ENDMDL
MODEL 3
REMARK VINA RESULT: -6.049343002      1.228      2.672
REMARK  3 active torsions:
REMARK  status: ('A' for Active; 'I' for Inactive)
REMARK       I    between atoms: C1_4  and  N3_6 
REMARK    1  A    between atoms: N4_9  and  C4_10 
REMARK    2  A    between atoms: C4_10  and  C5_11 
REMARK    3  A    between atoms: C15_21  and  N5_22 
ROOT
HETATM    1  N1  UNL     1      26.706   7.821  18.472  1.00  0.00    -0.374 N 
ATOM      2  H11 UNL     1      26.249   8.121  19.333  1.00  0.00     0.158 HD
ATOM      3  H12 UNL     1      26.465   6.919  18.060  1.00  0.00     0.158 HD
HETATM    4  C1  UNL     1      27.562   8.638  17.972  1.00  0.00     0.184 C 
HETATM    5  N2  UNL     1      28.210   8.211  16.750  1.00  0.00    -0.064 NA
HETATM    6  N3  UNL     1      27.894   9.878  18.538  1.00  0.00    -0.350 N 
HETATM    7  C2  UNL     1      29.035  10.676  18.088  1.00  0.00     0.156 C 
HETATM    8  C3  UNL     1      29.621  11.205  19.386  1.00  0.00     0.295 C 
HETATM    9  N4  UNL     1      28.770  12.328  19.871  1.00  0.00     0.123 N 
HETATM   10  C15 UNL     1      27.431  11.909  19.882  1.00  0.00     0.434 C 
HETATM   11  C16 UNL     1      27.146  10.438  19.621  1.00  0.00     0.190 C 
ENDROOT
BRANCH   9  12
HETATM   12  C4  UNL     1      29.376  12.747  21.069  1.00  0.00     0.284 C 
BRANCH  12  13
HETATM   13  C5  UNL     1      29.596  14.182  21.349  1.00  0.00    -0.013 C 
HETATM   14  C6  UNL     1      28.580  14.539  22.460  1.00  0.00     0.016 C 
HETATM   15  C7  UNL     1      28.700  15.965  22.877  1.00  0.00    -0.013 C 
HETATM   16  C8  UNL     1      28.368  16.821  21.673  1.00  0.00     0.009 C 
HETATM   17  C12 UNL     1      30.063  16.230  23.423  1.00  0.00     0.009 C 
HETATM   18  C9  UNL     1      29.430  16.572  20.649  1.00  0.00    -0.013 C 
HETATM   19  C10 UNL     1      30.818  16.821  21.183  1.00  0.00     0.009 C 
HETATM   20  C14 UNL     1      29.400  15.101  20.184  1.00  0.00     0.016 C 
HETATM   21  C11 UNL     1      31.068  15.875  22.346  1.00  0.00    -0.013 C 
HETATM   22  C13 UNL     1      30.971  14.443  21.931  1.00  0.00     0.016 C 
ENDBRANCH  12  13
ENDBRANCH   9  12
BRANCH  10  23
HETATM   23  N5  UNL     1      26.747  12.616  18.765  1.00  0.00    -0.046 N 
ATOM     24  H53 UNL     1      27.300  12.644  17.909  1.00  0.00     0.277 HD
ATOM     25  H52 UNL     1      25.952  12.099  18.390  1.00  0.00     0.277 HD
ATOM     26  H51 UNL     1      26.495  13.542  19.111  1.00  0.00     0.277 HD
ENDBRANCH  10  23
TORSDOF 3
ENDMDL
MODEL 4
REMARK VINA RESULT: -6.046439391      1.143      1.967
REMARK  3 active torsions:
REMARK  status: ('A' for Active; 'I' for Inactive)
REMARK       I    between atoms: C1_4  and  N3_6 
REMARK    1  A    between atoms: N4_9  and  C4_10 
REMARK    2  A    between atoms: C4_10  and  C5_11 
REMARK    3  A    between atoms: C15_21  and  N5_22 
ROOT
HETATM    1  N1  UNL     1      26.853   7.749  18.141  1.00  0.00    -0.374 N 
ATOM      2  H11 UNL     1      26.347   7.999  18.990  1.00  0.00     0.158 HD
ATOM      3  H12 UNL     1      26.650   6.866  17.673  1.00  0.00     0.158 HD
HETATM    4  C1  UNL     1      27.717   8.605  17.726  1.00  0.00     0.184 C 
HETATM    5  N2  UNL     1      28.433   8.250  16.519  1.00  0.00    -0.064 NA
HETATM    6  N3  UNL     1      27.995   9.820  18.368  1.00  0.00    -0.350 N 
HETATM    7  C2  UNL     1      29.143  10.659  18.017  1.00  0.00     0.156 C 
HETATM    8  C3  UNL     1      29.652  11.133  19.368  1.00  0.00     0.295 C 
HETATM    9  N4  UNL     1      28.756  12.216  19.862  1.00  0.00     0.123 N 
HETATM   10  C15 UNL     1      27.426  11.774  19.784  1.00  0.00     0.434 C 
HETATM   11  C16 UNL     1      27.184  10.313  19.437  1.00  0.00     0.190 C 
ENDROOT
BRANCH   9  12
HETATM   12  C4  UNL     1      29.292  12.584  21.109  1.00  0.00     0.284 C 
BRANCH  12  13
HETATM   13  C5  UNL     1      29.327  14.001  21.533  1.00  0.00    -0.013 C 
HETATM   14  C6  UNL     1      30.332  14.686  20.578  1.00  0.00     0.016 C 
HETATM   15  C7  UNL     1      30.457  16.144  20.864  1.00  0.00    -0.013 C 
HETATM   16  C8  UNL     1      31.004  16.286  22.269  1.00  0.00     0.009 C 
HETATM   17  C12 UNL     1      29.140  16.820  20.679  1.00  0.00     0.009 C 
HETATM   18  C9  UNL     1      29.969  15.741  23.202  1.00  0.00    -0.013 C 
HETATM   19  C10 UNL     1      28.625  16.403  23.024  1.00  0.00     0.009 C 
HETATM   20  C14 UNL     1      29.750  14.235  22.950  1.00  0.00     0.016 C 
HETATM   21  C11 UNL     1      28.144  16.150  21.604  1.00  0.00    -0.013 C 
HETATM   22  C13 UNL     1      27.996  14.692  21.316  1.00  0.00     0.016 C 
ENDBRANCH  12  13
ENDBRANCH   9  12
BRANCH  10  23
HETATM   23  N5  UNL     1      26.786  12.524  18.670  1.00  0.00    -0.046 N 
ATOM     24  H53 UNL     1      27.460  12.934  18.023  1.00  0.00     0.277 HD
ATOM     25  H52 UNL     1      26.312  11.919  17.999  1.00  0.00     0.277 HD
ATOM     26  H51 UNL     1      26.167  13.215  19.094  1.00  0.00     0.277 HD
ENDBRANCH  10  23
TORSDOF 3
ENDMDL
MODEL 5
REMARK VINA RESULT: -5.952321721      0.698      1.356
REMARK  3 active torsions:
REMARK  status: ('A' for Active; 'I' for Inactive)
REMARK       I    between atoms: C1_4  and  N3_6 
REMARK    1  A    between atoms: N4_9  and  C4_10 
REMARK    2  A    between atoms: C4_10  and  C5_11 
REMARK    3  A    between atoms: C15_21  and  N5_22 
ROOT
HETATM    1  N1  UNL     1      27.191   7.827  16.922  1.00  0.00    -0.374 N 
ATOM      2  H11 UNL     1      27.750   8.401  16.292  1.00  0.00     0.158 HD
ATOM      3  H12 UNL     1      26.718   6.998  16.564  1.00  0.00     0.158 HD
HETATM    4  C1  UNL     1      27.143   8.215  18.146  1.00  0.00     0.184 C 
HETATM    5  N2  UNL     1      26.349   7.399  19.041  1.00  0.00    -0.064 NA
HETATM    6  N3  UNL     1      27.794   9.356  18.639  1.00  0.00    -0.350 N 
HETATM    7  C2  UNL     1      27.531   9.907  19.969  1.00  0.00     0.156 C 
HETATM    8  C3  UNL     1      27.522  11.407  19.727  1.00  0.00     0.295 C 
HETATM    9  N4  UNL     1      28.929  11.876  19.590  1.00  0.00     0.123 N 
HETATM   10  C15 UNL     1      29.587  11.067  18.651  1.00  0.00     0.434 C 
HETATM   11  C16 UNL     1      28.748  10.077  17.856  1.00  0.00     0.190 C 
ENDROOT
BRANCH   9  12
HETATM   12  C4  UNL     1      28.826  13.260  19.361  1.00  0.00     0.284 C 
BRANCH  12  13
HETATM   13  C5  UNL     1      29.136  14.234  20.431  1.00  0.00    -0.013 C 
HETATM   14  C6  UNL     1      30.392  13.673  21.138  1.00  0.00     0.016 C 
HETATM   15  C7  UNL     1      30.851  14.570  22.237  1.00  0.00    -0.013 C 
HETATM   16  C8  UNL     1      29.744  14.628  23.269  1.00  0.00     0.009 C 
HETATM   17  C12 UNL     1      31.212  15.911  21.691  1.00  0.00     0.009 C 
HETATM   18  C9  UNL     1      28.571  15.293  22.618  1.00  0.00    -0.013 C 
HETATM   19  C10 UNL     1      28.917  16.646  22.048  1.00  0.00     0.009 C 
HETATM   20  C14 UNL     1      28.051  14.444  21.440  1.00  0.00     0.016 C 
HETATM   21  C11 UNL     1      29.990  16.466  20.987  1.00  0.00    -0.013 C 
HETATM   22  C13 UNL     1      29.531  15.585  19.872  1.00  0.00     0.016 C 
ENDBRANCH  12  13
ENDBRANCH   9  12
BRANCH  10  23
HETATM   23  N5  UNL     1      30.540  10.212  19.409  1.00  0.00    -0.046 N 
ATOM     24  H53 UNL     1      30.664  10.509  20.376  1.00  0.00     0.277 HD
ATOM     25  H52 UNL     1      30.174   9.280  19.604  1.00  0.00     0.277 HD
ATOM     26  H51 UNL     1      31.412  10.197  18.879  1.00  0.00     0.277 HD
ENDBRANCH  10  23
TORSDOF 3
ENDMDL
