MODEL 1
REMARK VINA RESULT: -8.355910343      0.000      0.000
REMARK  11 active torsions:
REMARK  status: ('A' for Active; 'I' for Inactive)
REMARK    1  A    between atoms: O1_2  and  C2_3 
REMARK    2  A    between atoms: C2_3  and  N2_7 
REMARK    3  A    between atoms: N2_7  and  C3_9 
REMARK    4  A    between atoms: C3_9  and  C4_10 
REMARK    5  A    between atoms: C4_10  and  C5_11 
REMARK    6  A    between atoms: C5_11  and  C6_12 
REMARK    7  A    between atoms: C6_12  and  N3_13 
REMARK       I    between atoms: N3_13  and  C7_15 
REMARK       I    between atoms: C7_15  and  N4_17 
REMARK    8  A    between atoms: C11_21  and  C12_22 
REMARK    9  A    between atoms: C12_22  and  C13_23 
REMARK   10  A    between atoms: C13_23  and  N5_24 
REMARK       I    between atoms: N5_24  and  C14_26 
REMARK   11  A    between atoms: C14_26  and  C15_28 
ROOT
HETATM    1  N3  UNL     1       1.105  18.050  16.272  1.00  0.00    -0.343 N 
ATOM      2  H3  UNL     1       1.509  17.390  15.608  1.00  0.00     0.164 HD
HETATM    3  C7  UNL     1      -0.306  18.117  16.438  1.00  0.00     0.318 C 
HETATM    4  O2  UNL     1      -0.776  18.939  17.260  1.00  0.00    -0.247 OA
HETATM    5  N4  UNL     1      -1.139  17.276  15.692  1.00  0.00    -0.326 N 
HETATM    6  C8  UNL     1      -0.773  16.295  14.726  1.00  0.00     0.128 C 
HETATM    7  C9  UNL     1      -1.766  15.168  15.001  1.00  0.00     0.022 C 
HETATM    8  C10 UNL     1      -3.024  15.912  15.298  1.00  0.00     0.031 C 
HETATM    9  C11 UNL     1      -2.624  17.291  15.819  1.00  0.00     0.113 C 
ENDROOT
BRANCH   9  10
HETATM   10  C12 UNL     1      -3.145  18.344  14.916  1.00  0.00     0.015 C 
BRANCH  10  11
HETATM   11  C13 UNL     1      -3.698  19.619  15.342  1.00  0.00     0.089 C 
BRANCH  11  12
HETATM   12  N5  UNL     1      -2.946  20.718  15.793  1.00  0.00    -0.337 N 
HETATM   13  C14 UNL     1      -3.156  21.551  16.894  1.00  0.00     0.225 C 
HETATM   14  O3  UNL     1      -4.111  21.361  17.681  1.00  0.00    -0.273 OA
ATOM     15  H5  UNL     1      -2.123  20.940  15.232  1.00  0.00     0.168 HD
BRANCH  13  16
HETATM   16  C15 UNL     1      -2.279  22.711  17.212  1.00  0.00     0.078 C 
HETATM   17  C16 UNL     1      -3.039  23.989  17.413  1.00  0.00     0.014 C 
HETATM   18  C17 UNL     1      -2.056  25.104  17.596  1.00  0.00     0.001 C 
HETATM   19  C18 UNL     1      -0.966  24.835  18.564  1.00  0.00     0.000 C 
HETATM   20  C19 UNL     1      -0.472  23.436  18.643  1.00  0.00     0.001 C 
HETATM   21  C20 UNL     1      -1.596  22.398  18.542  1.00  0.00     0.014 C 
ENDBRANCH  13  16
ENDBRANCH  11  12
ENDBRANCH  10  11
ENDBRANCH   9  10
BRANCH   1  22
HETATM   22  C6  UNL     1       1.971  18.920  17.047  1.00  0.00     0.124 C 
BRANCH  22  23
HETATM   23  C5  UNL     1       3.403  18.537  16.828  1.00  0.00     0.021 C 
BRANCH  23  24
HETATM   24  C4  UNL     1       3.466  17.785  15.513  1.00  0.00     0.021 C 
BRANCH  24  25
HETATM   25  C3  UNL     1       4.246  18.512  14.458  1.00  0.00     0.123 C 
BRANCH  25  26
HETATM   26  N2  UNL     1       3.452  18.471  13.241  1.00  0.00    -0.357 N 
ATOM     27  H2  UNL     1       2.487  18.144  13.292  1.00  0.00     0.163 HD
BRANCH  26  28
HETATM   28  C2  UNL     1       3.980  18.872  11.983  1.00  0.00     0.212 C 
HETATM   29  N1  UNL     1       3.373  18.761  10.870  1.00  0.00    -0.366 N 
ATOM     30  H12 UNL     1       3.752  19.048   9.967  1.00  0.00     0.159 HD
ATOM     31  H11 UNL     1       2.437  18.356  10.853  1.00  0.00     0.159 HD
BRANCH  28  32
HETATM   32  O1  UNL     1       5.260  19.424  12.006  1.00  0.00    -0.328 OA
HETATM   33  C1  UNL     1       5.570  20.511  11.152  1.00  0.00     0.213 C 
ENDBRANCH  28  32
ENDBRANCH  26  28
ENDBRANCH  25  26
ENDBRANCH  24  25
ENDBRANCH  23  24
ENDBRANCH  22  23
ENDBRANCH   1  22
TORSDOF 11
ENDMDL
MODEL 2
REMARK VINA RESULT: -8.169856008      1.145      1.217
REMARK  11 active torsions:
REMARK  status: ('A' for Active; 'I' for Inactive)
REMARK    1  A    between atoms: O1_2  and  C2_3 
REMARK    2  A    between atoms: C2_3  and  N2_7 
REMARK    3  A    between atoms: N2_7  and  C3_9 
REMARK    4  A    between atoms: C3_9  and  C4_10 
REMARK    5  A    between atoms: C4_10  and  C5_11 
REMARK    6  A    between atoms: C5_11  and  C6_12 
REMARK    7  A    between atoms: C6_12  and  N3_13 
REMARK       I    between atoms: N3_13  and  C7_15 
REMARK       I    between atoms: C7_15  and  N4_17 
REMARK    8  A    between atoms: C11_21  and  C12_22 
REMARK    9  A    between atoms: C12_22  and  C13_23 
REMARK   10  A    between atoms: C13_23  and  N5_24 
REMARK       I    between atoms: N5_24  and  C14_26 
REMARK   11  A    between atoms: C14_26  and  C15_28 
ROOT
HETATM    1  N3  UNL     1       1.182  17.617  15.279  1.00  0.00    -0.343 N 
ATOM      2  H3  UNL     1       1.351  16.890  14.584  1.00  0.00     0.164 HD
HETATM    3  C7  UNL     1      -0.095  17.724  15.898  1.00  0.00     0.318 C 
HETATM    4  O2  UNL     1      -0.276  18.629  16.748  1.00  0.00    -0.247 OA
HETATM    5  N4  UNL     1      -1.115  16.832  15.556  1.00  0.00    -0.326 N 
HETATM    6  C8  UNL     1      -1.079  15.757  14.621  1.00  0.00     0.128 C 
HETATM    7  C9  UNL     1      -1.906  14.679  15.318  1.00  0.00     0.022 C 
HETATM    8  C10 UNL     1      -3.005  15.470  15.944  1.00  0.00     0.031 C 
HETATM    9  C11 UNL     1      -2.474  16.884  16.169  1.00  0.00     0.113 C 
ENDROOT
BRANCH   9  10
HETATM   10  C12 UNL     1      -3.281  17.857  15.395  1.00  0.00     0.015 C 
BRANCH  10  11
HETATM   11  C13 UNL     1      -3.892  19.061  15.934  1.00  0.00     0.089 C 
BRANCH  11  12
HETATM   12  N5  UNL     1      -3.200  20.100  16.581  1.00  0.00    -0.337 N 
HETATM   13  C14 UNL     1      -2.605  21.244  16.045  1.00  0.00     0.225 C 
HETATM   14  O3  UNL     1      -2.663  21.495  14.820  1.00  0.00    -0.273 OA
ATOM     15  H5  UNL     1      -3.122  20.004  17.593  1.00  0.00     0.168 HD
BRANCH  13  16
HETATM   16  C15 UNL     1      -1.866  22.236  16.872  1.00  0.00     0.078 C 
HETATM   17  C16 UNL     1      -2.629  23.510  17.090  1.00  0.00     0.014 C 
HETATM   18  C17 UNL     1      -1.746  24.476  17.816  1.00  0.00     0.001 C 
HETATM   19  C18 UNL     1      -1.044  23.926  19.001  1.00  0.00     0.000 C 
HETATM   20  C19 UNL     1      -0.627  22.503  18.929  1.00  0.00     0.001 C 
HETATM   21  C20 UNL     1      -1.669  21.607  18.249  1.00  0.00     0.014 C 
ENDBRANCH  13  16
ENDBRANCH  11  12
ENDBRANCH  10  11
ENDBRANCH   9  10
BRANCH   1  22
HETATM   22  C6  UNL     1       2.244  18.540  15.635  1.00  0.00     0.124 C 
BRANCH  22  23
HETATM   23  C5  UNL     1       3.553  17.814  15.679  1.00  0.00     0.021 C 
BRANCH  23  24
HETATM   24  C4  UNL     1       4.512  18.569  14.780  1.00  0.00     0.021 C 
BRANCH  24  25
HETATM   25  C3  UNL     1       4.090  18.569  13.340  1.00  0.00     0.123 C 
BRANCH  25  26
HETATM   26  N2  UNL     1       4.777  19.677  12.698  1.00  0.00    -0.357 N 
ATOM     27  H2  UNL     1       5.280  20.349  13.277  1.00  0.00     0.163 HD
BRANCH  26  28
HETATM   28  C2  UNL     1       4.770  19.852  11.287  1.00  0.00     0.212 C 
HETATM   29  N1  UNL     1       3.893  19.373  10.497  1.00  0.00    -0.366 N 
ATOM     30  H12 UNL     1       3.888  19.498   9.485  1.00  0.00     0.159 HD
ATOM     31  H11 UNL     1       3.129  18.817  10.882  1.00  0.00     0.159 HD
BRANCH  28  32
HETATM   32  O1  UNL     1       5.814  20.611  10.760  1.00  0.00    -0.328 OA
HETATM   33  C1  UNL     1       6.508  21.522  11.592  1.00  0.00     0.213 C 
ENDBRANCH  28  32
ENDBRANCH  26  28
ENDBRANCH  25  26
ENDBRANCH  24  25
ENDBRANCH  23  24
ENDBRANCH  22  23
ENDBRANCH   1  22
TORSDOF 11
ENDMDL
MODEL 3
REMARK VINA RESULT: -8.130905515      2.677      3.708
REMARK  11 active torsions:
REMARK  status: ('A' for Active; 'I' for Inactive)
REMARK    1  A    between atoms: O1_2  and  C2_3 
REMARK    2  A    between atoms: C2_3  and  N2_7 
REMARK    3  A    between atoms: N2_7  and  C3_9 
REMARK    4  A    between atoms: C3_9  and  C4_10 
REMARK    5  A    between atoms: C4_10  and  C5_11 
REMARK    6  A    between atoms: C5_11  and  C6_12 
REMARK    7  A    between atoms: C6_12  and  N3_13 
REMARK       I    between atoms: N3_13  and  C7_15 
REMARK       I    between atoms: C7_15  and  N4_17 
REMARK    8  A    between atoms: C11_21  and  C12_22 
REMARK    9  A    between atoms: C12_22  and  C13_23 
REMARK   10  A    between atoms: C13_23  and  N5_24 
REMARK       I    between atoms: N5_24  and  C14_26 
REMARK   11  A    between atoms: C14_26  and  C15_28 
ROOT
HETATM    1  N3  UNL     1       2.367  17.436  15.485  1.00  0.00    -0.343 N 
ATOM      2  H3  UNL     1       2.967  16.651  15.736  1.00  0.00     0.164 HD
HETATM    3  C7  UNL     1       1.881  18.311  16.497  1.00  0.00     0.318 C 
HETATM    4  O2  UNL     1       1.143  19.267  16.161  1.00  0.00    -0.247 OA
HETATM    5  N4  UNL     1       2.231  18.095  17.834  1.00  0.00    -0.326 N 
HETATM    6  C8  UNL     1       3.051  17.067  18.382  1.00  0.00     0.128 C 
HETATM    7  C9  UNL     1       3.826  17.804  19.472  1.00  0.00     0.022 C 
HETATM    8  C10 UNL     1       2.794  18.719  20.040  1.00  0.00     0.031 C 
HETATM    9  C11 UNL     1       1.762  18.974  18.943  1.00  0.00     0.113 C 
ENDROOT
BRANCH   9  10
HETATM   10  C12 UNL     1       0.432  18.485  19.376  1.00  0.00     0.015 C 
BRANCH  10  11
HETATM   11  C13 UNL     1      -0.528  19.241  20.164  1.00  0.00     0.089 C 
BRANCH  11  12
HETATM   12  N5  UNL     1      -0.872  20.587  19.946  1.00  0.00    -0.337 N 
HETATM   13  C14 UNL     1      -1.546  21.173  18.873  1.00  0.00     0.225 C 
HETATM   14  O3  UNL     1      -1.979  20.484  17.922  1.00  0.00    -0.273 OA
ATOM     15  H5  UNL     1      -0.587  21.232  20.683  1.00  0.00     0.168 HD
BRANCH  13  16
HETATM   16  C15 UNL     1      -1.796  22.637  18.774  1.00  0.00     0.078 C 
HETATM   17  C16 UNL     1      -0.560  23.429  18.461  1.00  0.00     0.014 C 
HETATM   18  C17 UNL     1      -0.901  24.885  18.516  1.00  0.00     0.001 C 
HETATM   19  C18 UNL     1      -2.130  25.277  17.782  1.00  0.00     0.000 C 
HETATM   20  C19 UNL     1      -3.239  24.290  17.763  1.00  0.00     0.001 C 
HETATM   21  C20 UNL     1      -2.753  22.845  17.602  1.00  0.00     0.014 C 
ENDBRANCH  13  16
ENDBRANCH  11  12
ENDBRANCH  10  11
ENDBRANCH   9  10
BRANCH   1  22
HETATM   22  C6  UNL     1       2.008  17.660  14.096  1.00  0.00     0.124 C 
BRANCH  22  23
HETATM   23  C5  UNL     1       3.247  17.700  13.253  1.00  0.00     0.021 C 
BRANCH  23  24
HETATM   24  C4  UNL     1       4.376  18.181  14.142  1.00  0.00     0.021 C 
BRANCH  24  25
HETATM   25  C3  UNL     1       5.522  18.766  13.371  1.00  0.00     0.123 C 
BRANCH  25  26
HETATM   26  N2  UNL     1       5.013  19.941  12.683  1.00  0.00    -0.357 N 
ATOM     27  H2  UNL     1       4.580  20.685  13.230  1.00  0.00     0.163 HD
BRANCH  26  28
HETATM   28  C2  UNL     1       5.099  20.084  11.271  1.00  0.00     0.212 C 
HETATM   29  N1  UNL     1       4.308  19.541  10.434  1.00  0.00    -0.366 N 
ATOM     30  H12 UNL     1       4.370  19.644   9.420  1.00  0.00     0.159 HD
ATOM     31  H11 UNL     1       3.547  18.955  10.778  1.00  0.00     0.159 HD
BRANCH  28  32
HETATM   32  O1  UNL     1       6.139  20.885  10.800  1.00  0.00    -0.328 OA
HETATM   33  C1  UNL     1       6.715  21.858  11.652  1.00  0.00     0.213 C 
ENDBRANCH  28  32
ENDBRANCH  26  28
ENDBRANCH  25  26
ENDBRANCH  24  25
ENDBRANCH  23  24
ENDBRANCH  22  23
ENDBRANCH   1  22
TORSDOF 11
ENDMDL
MODEL 4
REMARK VINA RESULT: -8.030856156      2.402      3.620
REMARK  11 active torsions:
REMARK  status: ('A' for Active; 'I' for Inactive)
REMARK    1  A    between atoms: O1_2  and  C2_3 
REMARK    2  A    between atoms: C2_3  and  N2_7 
REMARK    3  A    between atoms: N2_7  and  C3_9 
REMARK    4  A    between atoms: C3_9  and  C4_10 
REMARK    5  A    between atoms: C4_10  and  C5_11 
REMARK    6  A    between atoms: C5_11  and  C6_12 
REMARK    7  A    between atoms: C6_12  and  N3_13 
REMARK       I    between atoms: N3_13  and  C7_15 
REMARK       I    between atoms: C7_15  and  N4_17 
REMARK    8  A    between atoms: C11_21  and  C12_22 
REMARK    9  A    between atoms: C12_22  and  C13_23 
REMARK   10  A    between atoms: C13_23  and  N5_24 
REMARK       I    between atoms: N5_24  and  C14_26 
REMARK   11  A    between atoms: C14_26  and  C15_28 
ROOT
HETATM    1  N3  UNL     1       1.003  17.346  13.984  1.00  0.00    -0.343 N 
ATOM      2  H3  UNL     1       0.544  16.828  13.235  1.00  0.00     0.164 HD
HETATM    3  C7  UNL     1       0.478  17.299  15.305  1.00  0.00     0.318 C 
HETATM    4  O2  UNL     1       1.061  17.947  16.206  1.00  0.00    -0.247 OA
HETATM    5  N4  UNL     1      -0.664  16.539  15.578  1.00  0.00    -0.326 N 
HETATM    6  C8  UNL     1      -1.440  15.750  14.680  1.00  0.00     0.128 C 
HETATM    7  C9  UNL     1      -1.803  14.535  15.530  1.00  0.00     0.022 C 
HETATM    8  C10 UNL     1      -2.064  15.142  16.867  1.00  0.00     0.031 C 
HETATM    9  C11 UNL     1      -1.264  16.441  16.939  1.00  0.00     0.113 C 
ENDROOT
BRANCH   9  10
HETATM   10  C12 UNL     1      -2.181  17.592  17.113  1.00  0.00     0.015 C 
BRANCH  10  11
HETATM   11  C13 UNL     1      -2.039  18.637  18.113  1.00  0.00     0.089 C 
BRANCH  11  12
HETATM   12  N5  UNL     1      -2.040  20.018  17.847  1.00  0.00    -0.337 N 
HETATM   13  C14 UNL     1      -1.044  20.970  18.071  1.00  0.00     0.225 C 
HETATM   14  O3  UNL     1       0.068  20.649  18.547  1.00  0.00    -0.273 OA
ATOM     15  H5  UNL     1      -2.898  20.378  17.427  1.00  0.00     0.168 HD
BRANCH  13  16
HETATM   16  C15 UNL     1      -1.222  22.416  17.768  1.00  0.00     0.078 C 
HETATM   17  C16 UNL     1      -2.641  22.784  17.447  1.00  0.00     0.014 C 
HETATM   18  C17 UNL     1      -2.679  24.222  17.034  1.00  0.00     0.001 C 
HETATM   19  C18 UNL     1      -1.950  25.157  17.925  1.00  0.00     0.000 C 
HETATM   20  C19 UNL     1      -0.718  24.639  18.571  1.00  0.00     0.001 C 
HETATM   21  C20 UNL     1      -0.851  23.183  19.036  1.00  0.00     0.014 C 
ENDBRANCH  13  16
ENDBRANCH  11  12
ENDBRANCH  10  11
ENDBRANCH   9  10
BRANCH   1  22
HETATM   22  C6  UNL     1       2.190  18.132  13.700  1.00  0.00     0.124 C 
BRANCH  22  23
HETATM   23  C5  UNL     1       3.415  17.304  13.941  1.00  0.00     0.021 C 
BRANCH  23  24
HETATM   24  C4  UNL     1       4.379  18.155  14.743  1.00  0.00     0.021 C 
BRANCH  24  25
HETATM   25  C3  UNL     1       4.420  17.784  16.196  1.00  0.00     0.123 C 
BRANCH  25  26
HETATM   26  N2  UNL     1       3.889  18.915  16.937  1.00  0.00    -0.357 N 
ATOM     27  H2  UNL     1       3.733  19.797  16.449  1.00  0.00     0.163 HD
BRANCH  26  28
HETATM   28  C2  UNL     1       3.579  18.830  18.322  1.00  0.00     0.212 C 
HETATM   29  N1  UNL     1       2.541  19.326  18.869  1.00  0.00    -0.366 N 
ATOM     30  H12 UNL     1       2.319  19.265  19.863  1.00  0.00     0.159 HD
ATOM     31  H11 UNL     1       1.867  19.827  18.291  1.00  0.00     0.159 HD
BRANCH  28  32
HETATM   32  O1  UNL     1       4.500  18.145  19.114  1.00  0.00    -0.328 OA
HETATM   33  C1  UNL     1       4.176  16.862  19.616  1.00  0.00     0.213 C 
ENDBRANCH  28  32
ENDBRANCH  26  28
ENDBRANCH  25  26
ENDBRANCH  24  25
ENDBRANCH  23  24
ENDBRANCH  22  23
ENDBRANCH   1  22
TORSDOF 11
ENDMDL
MODEL 5
REMARK VINA RESULT: -7.964317823      1.647      2.443
REMARK  11 active torsions:
REMARK  status: ('A' for Active; 'I' for Inactive)
REMARK    1  A    between atoms: O1_2  and  C2_3 
REMARK    2  A    between atoms: C2_3  and  N2_7 
REMARK    3  A    between atoms: N2_7  and  C3_9 
REMARK    4  A    between atoms: C3_9  and  C4_10 
REMARK    5  A    between atoms: C4_10  and  C5_11 
REMARK    6  A    between atoms: C5_11  and  C6_12 
REMARK    7  A    between atoms: C6_12  and  N3_13 
REMARK       I    between atoms: N3_13  and  C7_15 
REMARK       I    between atoms: C7_15  and  N4_17 
REMARK    8  A    between atoms: C11_21  and  C12_22 
REMARK    9  A    between atoms: C12_22  and  C13_23 
REMARK   10  A    between atoms: C13_23  and  N5_24 
REMARK       I    between atoms: N5_24  and  C14_26 
REMARK   11  A    between atoms: C14_26  and  C15_28 
ROOT
HETATM    1  N3  UNL     1       0.564  18.464  15.820  1.00  0.00    -0.343 N 
ATOM      2  H3  UNL     1       0.578  19.427  15.486  1.00  0.00     0.164 HD
HETATM    3  C7  UNL     1      -0.631  17.920  16.368  1.00  0.00     0.318 C 
HETATM    4  O2  UNL     1      -0.620  16.733  16.774  1.00  0.00    -0.247 OA
HETATM    5  N4  UNL     1      -1.786  18.704  16.444  1.00  0.00    -0.326 N 
HETATM    6  C8  UNL     1      -1.970  20.056  16.032  1.00  0.00     0.128 C 
HETATM    7  C9  UNL     1      -3.379  20.038  15.444  1.00  0.00     0.022 C 
HETATM    8  C10 UNL     1      -4.107  19.132  16.378  1.00  0.00     0.031 C 
HETATM    9  C11 UNL     1      -3.073  18.197  17.002  1.00  0.00     0.113 C 
ENDROOT
BRANCH   9  10
HETATM   10  C12 UNL     1      -3.036  18.390  18.470  1.00  0.00     0.015 C 
BRANCH  10  11
HETATM   11  C13 UNL     1      -3.664  19.485  19.191  1.00  0.00     0.089 C 
BRANCH  11  12
HETATM   12  N5  UNL     1      -3.414  20.850  18.969  1.00  0.00    -0.337 N 
HETATM   13  C14 UNL     1      -2.294  21.617  19.299  1.00  0.00     0.225 C 
HETATM   14  O3  UNL     1      -1.294  21.104  19.850  1.00  0.00    -0.273 OA
ATOM     15  H5  UNL     1      -4.162  21.357  18.496  1.00  0.00     0.168 HD
BRANCH  13  16
HETATM   16  C15 UNL     1      -2.203  23.077  19.028  1.00  0.00     0.078 C 
HETATM   17  C16 UNL     1      -0.838  23.512  18.580  1.00  0.00     0.014 C 
HETATM   18  C17 UNL     1      -0.828  25.005  18.464  1.00  0.00     0.001 C 
HETATM   19  C18 UNL     1      -1.973  25.592  17.727  1.00  0.00     0.000 C 
HETATM   20  C19 UNL     1      -3.281  24.902  17.866  1.00  0.00     0.001 C 
HETATM   21  C20 UNL     1      -3.154  23.374  17.870  1.00  0.00     0.014 C 
ENDBRANCH  13  16
ENDBRANCH  11  12
ENDBRANCH  10  11
ENDBRANCH   9  10
BRANCH   1  22
HETATM   22  C6  UNL     1       1.763  17.650  15.738  1.00  0.00     0.124 C 
BRANCH  22  23
HETATM   23  C5  UNL     1       2.976  18.517  15.885  1.00  0.00     0.021 C 
BRANCH  23  24
HETATM   24  C4  UNL     1       3.878  18.226  14.703  1.00  0.00     0.021 C 
BRANCH  24  25
HETATM   25  C3  UNL     1       3.160  18.285  13.387  1.00  0.00     0.123 C 
BRANCH  25  26
HETATM   26  N2  UNL     1       4.176  18.247  12.348  1.00  0.00    -0.357 N 
ATOM     27  H2  UNL     1       4.624  17.357  12.127  1.00  0.00     0.163 HD
BRANCH  26  28
HETATM   28  C2  UNL     1       4.564  19.412  11.631  1.00  0.00     0.212 C 
HETATM   29  N1  UNL     1       4.073  19.777  10.514  1.00  0.00    -0.366 N 
ATOM     30  H12 UNL     1       4.352  20.613   9.999  1.00  0.00     0.159 HD
ATOM     31  H11 UNL     1       3.345  19.208  10.082  1.00  0.00     0.159 HD
BRANCH  28  32
HETATM   32  O1  UNL     1       5.559  20.190  12.221  1.00  0.00    -0.328 OA
HETATM   33  C1  UNL     1       6.190  21.210  11.469  1.00  0.00     0.213 C 
ENDBRANCH  28  32
ENDBRANCH  26  28
ENDBRANCH  25  26
ENDBRANCH  24  25
ENDBRANCH  23  24
ENDBRANCH  22  23
ENDBRANCH   1  22
TORSDOF 11
ENDMDL
