MODEL 1
REMARK VINA RESULT: -7.526967303      0.000      0.000
REMARK  15 active torsions:
REMARK  status: ('A' for Active; 'I' for Inactive)
REMARK    1  A    between atoms: C2_2  and  C3_3 
REMARK    2  A    between atoms: C3_3  and  C4_4 
REMARK    3  A    between atoms: C4_4  and  C5_5 
REMARK    4  A    between atoms: C5_5  and  C6_6 
REMARK    5  A    between atoms: C6_6  and  O2_8 
REMARK    6  A    between atoms: O2_8  and  C7_9 
REMARK    7  A    between atoms: C9_11  and  O3_12 
REMARK    8  A    between atoms: O3_12  and  C10_13 
REMARK    9  A    between atoms: C14_18  and  O5_19 
REMARK   10  A    between atoms: C16_23  and  N1_24 
REMARK   11  A    between atoms: N1_24  and  C17_25 
REMARK   12  A    between atoms: N1_24  and  C19_27 
REMARK   13  A    between atoms: C19_27  and  C20_28 
REMARK   14  A    between atoms: C20_28  and  C21_29 
REMARK   15  A    between atoms: C23_32  and  O6_33 
ROOT
HETATM    1  C7  UNL     1      19.148  33.567  38.814  1.00  0.00     0.142 C 
HETATM    2  C8  UNL     1      20.491  32.996  39.060  1.00  0.00     0.066 C 
HETATM    3  C9  UNL     1      21.596  33.497  38.135  1.00  0.00     0.139 C 
HETATM    4  C12 UNL     1      21.202  33.636  36.725  1.00  0.00     0.030 C 
HETATM    5  C13 UNL     1      19.781  33.210  36.423  1.00  0.00     0.034 C 
HETATM    6  C14 UNL     1      19.649  31.743  36.363  1.00  0.00     0.159 C 
HETATM    7  C15 UNL     1      19.388  31.263  34.929  1.00  0.00     0.232 C 
HETATM    8  F1  UNL     1      18.815  29.983  34.994  1.00  0.00    -0.244 F 
HETATM    9  C16 UNL     1      20.707  31.119  34.159  1.00  0.00     0.262 C 
HETATM   10  C22 UNL     1      20.994  32.441  33.552  1.00  0.00     0.077 C 
HETATM   11  C23 UNL     1      21.846  33.371  34.306  1.00  0.00     0.067 C 
HETATM   12  C24 UNL     1      23.217  33.399  33.624  1.00  0.00     0.016 C 
HETATM   13  C25 UNL     1      23.194  34.141  32.311  1.00  0.00     0.013 C 
HETATM   14  C26 UNL     1      24.172  33.962  34.606  1.00  0.00     0.007 C 
HETATM   15  C27 UNL     1      23.459  33.881  35.911  1.00  0.00     0.009 C 
HETATM   16  C28 UNL     1      22.183  33.079  35.719  1.00  0.00     0.027 C 
HETATM   17  C29 UNL     1      18.845  33.902  37.384  1.00  0.00    -0.014 C 
HETATM   18  C30 UNL     1      18.928  35.386  37.072  1.00  0.00     0.018 C 
HETATM   19  C31 UNL     1      17.408  33.528  37.070  1.00  0.00     0.018 C 
ENDROOT
BRANCH   1  20
HETATM   20  O2  UNL     1      18.754  34.601  39.669  1.00  0.00    -0.315 OA
BRANCH  20  21
HETATM   21  C6  UNL     1      17.737  34.616  40.555  1.00  0.00     0.259 C 
HETATM   22  O1  UNL     1      17.516  35.648  41.173  1.00  0.00    -0.265 OA
BRANCH  21  23
HETATM   23  C5  UNL     1      16.915  33.418  40.770  1.00  0.00     0.111 C 
BRANCH  23  24
HETATM   24  C4  UNL     1      15.747  33.569  41.672  1.00  0.00     0.010 C 
BRANCH  24  25
HETATM   25  C3  UNL     1      15.396  32.333  42.446  1.00  0.00     0.000 C 
BRANCH  25  26
HETATM   26  C2  UNL     1      14.947  32.744  43.851  1.00  0.00    -0.005 C 
HETATM   27  C1  UNL     1      15.657  34.022  44.244  1.00  0.00     0.005 C 
ENDBRANCH  25  26
ENDBRANCH  24  25
ENDBRANCH  23  24
ENDBRANCH  21  23
ENDBRANCH  20  21
ENDBRANCH   1  20
BRANCH   3  28
HETATM   28  O3  UNL     1      22.085  34.698  38.694  1.00  0.00    -0.316 OA
BRANCH  28  29
HETATM   29  C10 UNL     1      23.207  34.716  39.480  1.00  0.00     0.255 C 
HETATM   30  C11 UNL     1      24.527  35.217  38.989  1.00  0.00     0.126 C 
HETATM   31  O4  UNL     1      23.168  34.304  40.665  1.00  0.00    -0.266 OA
ENDBRANCH  28  29
ENDBRANCH   3  28
BRANCH   6  32
HETATM   32  O5  UNL     1      18.567  31.226  37.078  1.00  0.00    -0.392 OA
ATOM     33  H5  UNL     1      17.920  30.776  36.547  1.00  0.00     0.210 HD
ENDBRANCH   6  32
BRANCH  11  34
HETATM   34  O6  UNL     1      21.383  34.698  34.231  1.00  0.00    -0.389 OA
ATOM     35  H6  UNL     1      22.090  35.319  34.099  1.00  0.00     0.210 HD
ENDBRANCH  11  34
BRANCH   9  36
HETATM   36  N1  UNL     1      20.376  30.168  33.093  1.00  0.00     0.095 N 
BRANCH  36  37
HETATM   37  C17 UNL     1      19.595  30.805  32.060  1.00  0.00     0.268 C 
HETATM   38  C18 UNL     1      19.216  29.758  31.039  1.00  0.00     0.037 C 
ENDBRANCH  36  37
BRANCH  36  39
HETATM   39  C19 UNL     1      21.495  29.519  32.532  1.00  0.00     0.274 C 
BRANCH  39  40
HETATM   40  C20 UNL     1      22.734  29.542  33.402  1.00  0.00     0.045 C 
BRANCH  40  41
HETATM   41  C21 UNL     1      23.879  29.984  32.478  1.00  0.00     0.116 C 
HETATM   42 CL1  UNL     1      23.273  30.751  31.012  1.00  0.00    -0.130 Cl
ENDBRANCH  40  41
ENDBRANCH  39  40
ENDBRANCH  36  39
ENDBRANCH   9  36
TORSDOF 15
ENDMDL
MODEL 2
REMARK VINA RESULT: -7.210038526      2.875      5.705
REMARK  15 active torsions:
REMARK  status: ('A' for Active; 'I' for Inactive)
REMARK    1  A    between atoms: C2_2  and  C3_3 
REMARK    2  A    between atoms: C3_3  and  C4_4 
REMARK    3  A    between atoms: C4_4  and  C5_5 
REMARK    4  A    between atoms: C5_5  and  C6_6 
REMARK    5  A    between atoms: C6_6  and  O2_8 
REMARK    6  A    between atoms: O2_8  and  C7_9 
REMARK    7  A    between atoms: C9_11  and  O3_12 
REMARK    8  A    between atoms: O3_12  and  C10_13 
REMARK    9  A    between atoms: C14_18  and  O5_19 
REMARK   10  A    between atoms: C16_23  and  N1_24 
REMARK   11  A    between atoms: N1_24  and  C17_25 
REMARK   12  A    between atoms: N1_24  and  C19_27 
REMARK   13  A    between atoms: C19_27  and  C20_28 
REMARK   14  A    between atoms: C20_28  and  C21_29 
REMARK   15  A    between atoms: C23_32  and  O6_33 
ROOT
HETATM    1  C7  UNL     1      18.380  33.468  36.388  1.00  0.00     0.142 C 
HETATM    2  C8  UNL     1      18.408  33.797  34.945  1.00  0.00     0.066 C 
HETATM    3  C9  UNL     1      19.019  32.731  34.041  1.00  0.00     0.139 C 
HETATM    4  C12 UNL     1      20.227  32.088  34.580  1.00  0.00     0.030 C 
HETATM    5  C13 UNL     1      20.686  32.627  35.917  1.00  0.00     0.034 C 
HETATM    6  C14 UNL     1      21.381  33.920  35.778  1.00  0.00     0.159 C 
HETATM    7  C15 UNL     1      22.881  33.782  36.073  1.00  0.00     0.232 C 
HETATM    8  F1  UNL     1      23.382  35.055  36.389  1.00  0.00    -0.244 F 
HETATM    9  C16 UNL     1      23.636  33.306  34.824  1.00  0.00     0.262 C 
HETATM   10  C22 UNL     1      23.603  31.824  34.845  1.00  0.00     0.077 C 
HETATM   11  C23 UNL     1      22.518  31.152  34.117  1.00  0.00     0.067 C 
HETATM   12  C24 UNL     1      23.117  30.551  32.843  1.00  0.00     0.016 C 
HETATM   13  C25 UNL     1      23.974  29.342  33.122  1.00  0.00     0.013 C 
HETATM   14  C26 UNL     1      21.988  30.278  31.925  1.00  0.00     0.007 C 
HETATM   15  C27 UNL     1      20.850  31.056  32.490  1.00  0.00     0.009 C 
HETATM   16  C28 UNL     1      21.374  31.944  33.607  1.00  0.00     0.027 C 
HETATM   17  C29 UNL     1      19.519  32.624  36.876  1.00  0.00    -0.014 C 
HETATM   18  C30 UNL     1      19.151  31.167  37.100  1.00  0.00     0.018 C 
HETATM   19  C31 UNL     1      19.966  33.116  38.240  1.00  0.00     0.018 C 
ENDROOT
BRANCH   1  20
HETATM   20  O2  UNL     1      17.159  33.005  36.890  1.00  0.00    -0.315 OA
BRANCH  20  21
HETATM   21  C6  UNL     1      16.389  33.546  37.856  1.00  0.00     0.259 C 
HETATM   22  O1  UNL     1      16.757  34.586  38.383  1.00  0.00    -0.265 OA
BRANCH  21  23
HETATM   23  C5  UNL     1      15.135  32.898  38.262  1.00  0.00     0.111 C 
BRANCH  23  24
HETATM   24  C4  UNL     1      14.370  32.207  37.195  1.00  0.00     0.010 C 
BRANCH  24  25
HETATM   25  C3  UNL     1      13.603  33.124  36.288  1.00  0.00     0.000 C 
BRANCH  25  26
HETATM   26  C2  UNL     1      14.159  32.988  34.869  1.00  0.00    -0.005 C 
HETATM   27  C1  UNL     1      14.715  31.593  34.685  1.00  0.00     0.005 C 
ENDBRANCH  25  26
ENDBRANCH  24  25
ENDBRANCH  23  24
ENDBRANCH  21  23
ENDBRANCH  20  21
ENDBRANCH   1  20
BRANCH   3  28
HETATM   28  O3  UNL     1      17.991  31.813  33.736  1.00  0.00    -0.316 OA
BRANCH  28  29
HETATM   29  C10 UNL     1      17.633  31.545  32.441  1.00  0.00     0.255 C 
HETATM   30  C11 UNL     1      17.089  30.219  32.015  1.00  0.00     0.126 C 
HETATM   31  O4  UNL     1      17.749  32.418  31.548  1.00  0.00    -0.266 OA
ENDBRANCH  28  29
ENDBRANCH   3  28
BRANCH   6  32
HETATM   32  O5  UNL     1      20.966  34.905  36.675  1.00  0.00    -0.392 OA
ATOM     33  H5  UNL     1      21.465  35.712  36.638  1.00  0.00     0.210 HD
ENDBRANCH   6  32
BRANCH  11  34
HETATM   34  O6  UNL     1      22.006  30.048  34.825  1.00  0.00    -0.389 OA
ATOM     35  H6  UNL     1      22.528  29.838  35.590  1.00  0.00     0.210 HD
ENDBRANCH  11  34
BRANCH   9  36
HETATM   36  N1  UNL     1      25.010  33.756  35.067  1.00  0.00     0.095 N 
BRANCH  36  37
HETATM   37  C17 UNL     1      25.616  33.001  36.137  1.00  0.00     0.268 C 
HETATM   38  C18 UNL     1      26.548  33.918  36.895  1.00  0.00     0.037 C 
ENDBRANCH  36  37
BRANCH  36  39
HETATM   39  C19 UNL     1      25.833  33.732  33.923  1.00  0.00     0.274 C 
BRANCH  39  40
HETATM   40  C20 UNL     1      25.424  34.702  32.835  1.00  0.00     0.045 C 
BRANCH  40  41
HETATM   41  C21 UNL     1      25.033  33.832  31.631  1.00  0.00     0.116 C 
HETATM   42 CL1  UNL     1      23.320  33.986  31.249  1.00  0.00    -0.130 Cl
ENDBRANCH  40  41
ENDBRANCH  39  40
ENDBRANCH  36  39
ENDBRANCH   9  36
TORSDOF 15
ENDMDL
MODEL 3
REMARK VINA RESULT: -7.174939470      1.216      1.784
REMARK  15 active torsions:
REMARK  status: ('A' for Active; 'I' for Inactive)
REMARK    1  A    between atoms: C2_2  and  C3_3 
REMARK    2  A    between atoms: C3_3  and  C4_4 
REMARK    3  A    between atoms: C4_4  and  C5_5 
REMARK    4  A    between atoms: C5_5  and  C6_6 
REMARK    5  A    between atoms: C6_6  and  O2_8 
REMARK    6  A    between atoms: O2_8  and  C7_9 
REMARK    7  A    between atoms: C9_11  and  O3_12 
REMARK    8  A    between atoms: O3_12  and  C10_13 
REMARK    9  A    between atoms: C14_18  and  O5_19 
REMARK   10  A    between atoms: C16_23  and  N1_24 
REMARK   11  A    between atoms: N1_24  and  C17_25 
REMARK   12  A    between atoms: N1_24  and  C19_27 
REMARK   13  A    between atoms: C19_27  and  C20_28 
REMARK   14  A    between atoms: C20_28  and  C21_29 
REMARK   15  A    between atoms: C23_32  and  O6_33 
ROOT
HETATM    1  C7  UNL     1      19.320  33.548  38.578  1.00  0.00     0.142 C 
HETATM    2  C8  UNL     1      20.664  33.021  38.902  1.00  0.00     0.066 C 
HETATM    3  C9  UNL     1      21.796  33.520  38.010  1.00  0.00     0.139 C 
HETATM    4  C12 UNL     1      21.462  33.601  36.580  1.00  0.00     0.030 C 
HETATM    5  C13 UNL     1      20.068  33.129  36.231  1.00  0.00     0.034 C 
HETATM    6  C14 UNL     1      19.975  31.657  36.216  1.00  0.00     0.159 C 
HETATM    7  C15 UNL     1      19.790  31.123  34.789  1.00  0.00     0.232 C 
HETATM    8  F1  UNL     1      19.247  29.831  34.874  1.00  0.00    -0.244 F 
HETATM    9  C16 UNL     1      21.146  30.988  34.083  1.00  0.00     0.262 C 
HETATM   10  C22 UNL     1      21.426  32.296  33.445  1.00  0.00     0.077 C 
HETATM   11  C23 UNL     1      22.220  33.273  34.202  1.00  0.00     0.067 C 
HETATM   12  C24 UNL     1      23.618  33.315  33.581  1.00  0.00     0.016 C 
HETATM   13  C25 UNL     1      23.636  34.012  32.243  1.00  0.00     0.013 C 
HETATM   14  C26 UNL     1      24.515  33.936  34.583  1.00  0.00     0.007 C 
HETATM   15  C27 UNL     1      23.747  33.879  35.858  1.00  0.00     0.009 C 
HETATM   16  C28 UNL     1      22.500  33.038  35.638  1.00  0.00     0.027 C 
HETATM   17  C29 UNL     1      19.072  33.827  37.126  1.00  0.00    -0.014 C 
HETATM   18  C30 UNL     1      19.132  35.302  36.767  1.00  0.00     0.018 C 
HETATM   19  C31 UNL     1      17.660  33.405  36.762  1.00  0.00     0.018 C 
ENDROOT
BRANCH   1  20
HETATM   20  O2  UNL     1      18.861  34.599  39.379  1.00  0.00    -0.315 OA
BRANCH  20  21
HETATM   21  C6  UNL     1      17.892  34.580  40.316  1.00  0.00     0.259 C 
HETATM   22  O1  UNL     1      18.213  34.423  41.485  1.00  0.00    -0.265 OA
BRANCH  21  23
HETATM   23  C5  UNL     1      16.482  34.747  39.937  1.00  0.00     0.111 C 
BRANCH  23  24
HETATM   24  C4  UNL     1      15.678  33.507  39.817  1.00  0.00     0.010 C 
BRANCH  24  25
HETATM   25  C3  UNL     1      14.450  33.644  38.966  1.00  0.00     0.000 C 
BRANCH  25  26
HETATM   26  C2  UNL     1      14.563  32.683  37.780  1.00  0.00    -0.005 C 
HETATM   27  C1  UNL     1      13.545  33.070  36.729  1.00  0.00     0.005 C 
ENDBRANCH  25  26
ENDBRANCH  24  25
ENDBRANCH  23  24
ENDBRANCH  21  23
ENDBRANCH  20  21
ENDBRANCH   1  20
BRANCH   3  28
HETATM   28  O3  UNL     1      22.230  34.752  38.548  1.00  0.00    -0.316 OA
BRANCH  28  29
HETATM   29  C10 UNL     1      23.296  34.822  39.406  1.00  0.00     0.255 C 
HETATM   30  C11 UNL     1      24.616  35.396  39.004  1.00  0.00     0.126 C 
HETATM   31  O4  UNL     1      23.202  34.398  40.583  1.00  0.00    -0.266 OA
ENDBRANCH  28  29
ENDBRANCH   3  28
BRANCH   6  32
HETATM   32  O5  UNL     1      18.876  31.135  36.900  1.00  0.00    -0.392 OA
ATOM     33  H5  UNL     1      19.092  30.643  37.684  1.00  0.00     0.210 HD
ENDBRANCH   6  32
BRANCH  11  34
HETATM   34  O6  UNL     1      21.728  34.584  34.061  1.00  0.00    -0.389 OA
ATOM     35  H6  UNL     1      22.391  35.186  33.744  1.00  0.00     0.210 HD
ENDBRANCH  11  34
BRANCH   9  36
HETATM   36  N1  UNL     1      20.886  29.993  33.038  1.00  0.00     0.095 N 
BRANCH  36  37
HETATM   37  C17 UNL     1      20.220  30.596  31.908  1.00  0.00     0.268 C 
HETATM   38  C18 UNL     1      19.236  29.596  31.349  1.00  0.00     0.037 C 
ENDBRANCH  36  37
BRANCH  36  39
HETATM   39  C19 UNL     1      22.033  29.292  32.613  1.00  0.00     0.274 C 
BRANCH  39  40
HETATM   40  C20 UNL     1      23.213  29.390  33.557  1.00  0.00     0.045 C 
BRANCH  40  41
HETATM   41  C21 UNL     1      24.410  29.791  32.681  1.00  0.00     0.116 C 
HETATM   42 CL1  UNL     1      23.890  30.517  31.162  1.00  0.00    -0.130 Cl
ENDBRANCH  40  41
ENDBRANCH  39  40
ENDBRANCH  36  39
ENDBRANCH   9  36
TORSDOF 15
ENDMDL
MODEL 4
REMARK VINA RESULT: -7.112265068      2.635      5.419
REMARK  15 active torsions:
REMARK  status: ('A' for Active; 'I' for Inactive)
REMARK    1  A    between atoms: C2_2  and  C3_3 
REMARK    2  A    between atoms: C3_3  and  C4_4 
REMARK    3  A    between atoms: C4_4  and  C5_5 
REMARK    4  A    between atoms: C5_5  and  C6_6 
REMARK    5  A    between atoms: C6_6  and  O2_8 
REMARK    6  A    between atoms: O2_8  and  C7_9 
REMARK    7  A    between atoms: C9_11  and  O3_12 
REMARK    8  A    between atoms: O3_12  and  C10_13 
REMARK    9  A    between atoms: C14_18  and  O5_19 
REMARK   10  A    between atoms: C16_23  and  N1_24 
REMARK   11  A    between atoms: N1_24  and  C17_25 
REMARK   12  A    between atoms: N1_24  and  C19_27 
REMARK   13  A    between atoms: C19_27  and  C20_28 
REMARK   14  A    between atoms: C20_28  and  C21_29 
REMARK   15  A    between atoms: C23_32  and  O6_33 
ROOT
HETATM    1  C7  UNL     1      17.525  32.791  35.755  1.00  0.00     0.142 C 
HETATM    2  C8  UNL     1      17.564  33.022  34.294  1.00  0.00     0.066 C 
HETATM    3  C9  UNL     1      18.348  31.991  33.488  1.00  0.00     0.139 C 
HETATM    4  C12 UNL     1      19.610  31.557  34.107  1.00  0.00     0.030 C 
HETATM    5  C13 UNL     1      19.940  32.244  35.414  1.00  0.00     0.034 C 
HETATM    6  C14 UNL     1      20.460  33.607  35.201  1.00  0.00     0.159 C 
HETATM    7  C15 UNL     1      21.952  33.697  35.549  1.00  0.00     0.232 C 
HETATM    8  F1  UNL     1      22.265  35.045  35.785  1.00  0.00    -0.244 F 
HETATM    9  C16 UNL     1      22.811  33.245  34.361  1.00  0.00     0.262 C 
HETATM   10  C22 UNL     1      22.977  31.777  34.488  1.00  0.00     0.077 C 
HETATM   11  C23 UNL     1      22.022  30.914  33.781  1.00  0.00     0.067 C 
HETATM   12  C24 UNL     1      22.745  30.316  32.572  1.00  0.00     0.016 C 
HETATM   13  C25 UNL     1      23.745  29.256  32.963  1.00  0.00     0.013 C 
HETATM   14  C26 UNL     1      21.699  29.828  31.644  1.00  0.00     0.007 C 
HETATM   15  C27 UNL     1      20.446  30.480  32.117  1.00  0.00     0.009 C 
HETATM   16  C28 UNL     1      20.803  31.505  33.181  1.00  0.00     0.027 C 
HETATM   17  C29 UNL     1      18.748  32.146  36.336  1.00  0.00    -0.014 C 
HETATM   18  C30 UNL     1      18.571  30.672  36.656  1.00  0.00     0.018 C 
HETATM   19  C31 UNL     1      19.072  32.787  37.674  1.00  0.00     0.018 C 
ENDROOT
BRANCH   1  20
HETATM   20  O2  UNL     1      16.359  32.201  36.255  1.00  0.00    -0.315 OA
BRANCH  20  21
HETATM   21  C6  UNL     1      15.368  32.773  36.969  1.00  0.00     0.259 C 
HETATM   22  O1  UNL     1      14.416  33.250  36.369  1.00  0.00    -0.265 OA
BRANCH  21  23
HETATM   23  C5  UNL     1      15.434  32.818  38.436  1.00  0.00     0.111 C 
BRANCH  23  24
HETATM   24  C4  UNL     1      15.949  34.073  39.037  1.00  0.00     0.010 C 
BRANCH  24  25
HETATM   25  C3  UNL     1      15.654  34.226  40.500  1.00  0.00     0.000 C 
BRANCH  25  26
HETATM   26  C2  UNL     1      16.430  33.157  41.273  1.00  0.00    -0.005 C 
HETATM   27  C1  UNL     1      15.480  32.429  42.201  1.00  0.00     0.005 C 
ENDBRANCH  25  26
ENDBRANCH  24  25
ENDBRANCH  23  24
ENDBRANCH  21  23
ENDBRANCH  20  21
ENDBRANCH   1  20
BRANCH   3  28
HETATM   28  O3  UNL     1      17.465  30.922  33.222  1.00  0.00    -0.316 OA
BRANCH  28  29
HETATM   29  C10 UNL     1      16.924  30.734  31.977  1.00  0.00     0.255 C 
HETATM   30  C11 UNL     1      17.357  31.523  30.784  1.00  0.00     0.126 C 
HETATM   31  O4  UNL     1      16.027  29.877  31.789  1.00  0.00    -0.266 OA
ENDBRANCH  28  29
ENDBRANCH   3  28
BRANCH   6  32
HETATM   32  O5  UNL     1      19.881  34.585  36.012  1.00  0.00    -0.392 OA
ATOM     33  H5  UNL     1      19.073  34.953  35.675  1.00  0.00     0.210 HD
ENDBRANCH   6  32
BRANCH  11  34
HETATM   34  O6  UNL     1      21.636  29.802  34.552  1.00  0.00    -0.389 OA
ATOM     35  H6  UNL     1      22.382  29.333  34.907  1.00  0.00     0.210 HD
ENDBRANCH  11  34
BRANCH   9  36
HETATM   36  N1  UNL     1      24.102  33.893  34.609  1.00  0.00     0.095 N 
BRANCH  36  37
HETATM   37  C17 UNL     1      24.880  33.141  35.565  1.00  0.00     0.268 C 
HETATM   38  C18 UNL     1      26.333  33.520  35.396  1.00  0.00     0.037 C 
ENDBRANCH  36  37
BRANCH  36  39
HETATM   39  C19 UNL     1      24.858  34.136  33.444  1.00  0.00     0.274 C 
BRANCH  39  40
HETATM   40  C20 UNL     1      24.039  34.241  32.176  1.00  0.00     0.045 C 
BRANCH  40  41
HETATM   41  C21 UNL     1      24.692  33.270  31.180  1.00  0.00     0.116 C 
HETATM   42 CL1  UNL     1      25.813  32.173  31.983  1.00  0.00    -0.130 Cl
ENDBRANCH  40  41
ENDBRANCH  39  40
ENDBRANCH  36  39
ENDBRANCH   9  36
TORSDOF 15
ENDMDL
MODEL 5
REMARK VINA RESULT: -7.010736454      2.618      5.349
REMARK  15 active torsions:
REMARK  status: ('A' for Active; 'I' for Inactive)
REMARK    1  A    between atoms: C2_2  and  C3_3 
REMARK    2  A    between atoms: C3_3  and  C4_4 
REMARK    3  A    between atoms: C4_4  and  C5_5 
REMARK    4  A    between atoms: C5_5  and  C6_6 
REMARK    5  A    between atoms: C6_6  and  O2_8 
REMARK    6  A    between atoms: O2_8  and  C7_9 
REMARK    7  A    between atoms: C9_11  and  O3_12 
REMARK    8  A    between atoms: O3_12  and  C10_13 
REMARK    9  A    between atoms: C14_18  and  O5_19 
REMARK   10  A    between atoms: C16_23  and  N1_24 
REMARK   11  A    between atoms: N1_24  and  C17_25 
REMARK   12  A    between atoms: N1_24  and  C19_27 
REMARK   13  A    between atoms: C19_27  and  C20_28 
REMARK   14  A    between atoms: C20_28  and  C21_29 
REMARK   15  A    between atoms: C23_32  and  O6_33 
ROOT
HETATM    1  C7  UNL     1      18.806  32.910  36.206  1.00  0.00     0.142 C 
HETATM    2  C8  UNL     1      18.832  33.265  34.770  1.00  0.00     0.066 C 
HETATM    3  C9  UNL     1      19.567  32.281  33.865  1.00  0.00     0.139 C 
HETATM    4  C12 UNL     1      20.821  31.751  34.423  1.00  0.00     0.030 C 
HETATM    5  C13 UNL     1      21.194  32.311  35.778  1.00  0.00     0.034 C 
HETATM    6  C14 UNL     1      21.759  33.669  35.674  1.00  0.00     0.159 C 
HETATM    7  C15 UNL     1      23.259  33.676  36.003  1.00  0.00     0.232 C 
HETATM    8  F1  UNL     1      23.623  34.987  36.349  1.00  0.00    -0.244 F 
HETATM    9  C16 UNL     1      24.084  33.298  34.766  1.00  0.00     0.262 C 
HETATM   10  C22 UNL     1      24.199  31.820  34.764  1.00  0.00     0.077 C 
HETATM   11  C23 UNL     1      23.203  31.056  34.001  1.00  0.00     0.067 C 
HETATM   12  C24 UNL     1      23.888  30.540  32.733  1.00  0.00     0.016 C 
HETATM   13  C25 UNL     1      24.854  29.416  33.014  1.00  0.00     0.013 C 
HETATM   14  C26 UNL     1      22.812  30.171  31.784  1.00  0.00     0.007 C 
HETATM   15  C27 UNL     1      21.590  30.822  32.333  1.00  0.00     0.009 C 
HETATM   16  C28 UNL     1      21.998  31.739  33.475  1.00  0.00     0.027 C 
HETATM   17  C29 UNL     1      20.012  32.175  36.709  1.00  0.00    -0.014 C 
HETATM   18  C30 UNL     1      19.786  30.686  36.902  1.00  0.00     0.018 C 
HETATM   19  C31 UNL     1      20.378  32.686  38.090  1.00  0.00     0.018 C 
ENDROOT
BRANCH   1  20
HETATM   20  O2  UNL     1      17.626  32.320  36.672  1.00  0.00    -0.315 OA
BRANCH  20  21
HETATM   21  C6  UNL     1      16.578  32.908  37.284  1.00  0.00     0.259 C 
HETATM   22  O1  UNL     1      15.453  32.683  36.861  1.00  0.00    -0.265 OA
BRANCH  21  23
HETATM   23  C5  UNL     1      16.786  33.798  38.434  1.00  0.00     0.111 C 
BRANCH  23  24
HETATM   24  C4  UNL     1      16.166  33.381  39.716  1.00  0.00     0.010 C 
BRANCH  24  25
HETATM   25  C3  UNL     1      17.077  33.473  40.905  1.00  0.00     0.000 C 
BRANCH  25  26
HETATM   26  C2  UNL     1      16.226  33.468  42.177  1.00  0.00    -0.005 C 
HETATM   27  C1  UNL     1      15.392  32.205  42.210  1.00  0.00     0.005 C 
ENDBRANCH  25  26
ENDBRANCH  24  25
ENDBRANCH  23  24
ENDBRANCH  21  23
ENDBRANCH  20  21
ENDBRANCH   1  20
BRANCH   3  28
HETATM   28  O3  UNL     1      18.643  31.270  33.522  1.00  0.00    -0.316 OA
BRANCH  28  29
HETATM   29  C10 UNL     1      17.472  31.562  32.872  1.00  0.00     0.255 C 
HETATM   30  C11 UNL     1      16.130  31.280  33.466  1.00  0.00     0.126 C 
HETATM   31  O4  UNL     1      17.484  32.085  31.732  1.00  0.00    -0.266 OA
ENDBRANCH  28  29
ENDBRANCH   3  28
BRANCH   6  32
HETATM   32  O5  UNL     1      21.228  34.592  36.576  1.00  0.00    -0.392 OA
ATOM     33  H5  UNL     1      21.434  35.499  36.384  1.00  0.00     0.210 HD
ENDBRANCH   6  32
BRANCH  11  34
HETATM   34  O6  UNL     1      22.788  29.895  34.680  1.00  0.00    -0.389 OA
ATOM     35  H6  UNL     1      23.110  29.102  34.268  1.00  0.00     0.210 HD
ENDBRANCH  11  34
BRANCH   9  36
HETATM   36  N1  UNL     1      25.401  33.878  35.048  1.00  0.00     0.095 N 
BRANCH  36  37
HETATM   37  C17 UNL     1      26.079  33.135  36.083  1.00  0.00     0.268 C 
HETATM   38  C18 UNL     1      26.932  34.098  36.876  1.00  0.00     0.037 C 
ENDBRANCH  36  37
BRANCH  36  39
HETATM   39  C19 UNL     1      26.229  34.004  33.913  1.00  0.00     0.274 C 
BRANCH  39  40
HETATM   40  C20 UNL     1      25.644  34.847  32.801  1.00  0.00     0.045 C 
BRANCH  40  41
HETATM   41  C21 UNL     1      25.478  33.896  31.605  1.00  0.00     0.116 C 
HETATM   42 CL1  UNL     1      23.798  33.794  31.084  1.00  0.00    -0.130 Cl
ENDBRANCH  40  41
ENDBRANCH  39  40
ENDBRANCH  36  39
ENDBRANCH   9  36
TORSDOF 15
ENDMDL
