MODEL 1
REMARK VINA RESULT: -8.234497734      0.000      0.000
REMARK  15 active torsions:
REMARK  status: ('A' for Active; 'I' for Inactive)
REMARK    1  A    between atoms: N1_2  and  C2_3 
REMARK    2  A    between atoms: N1_2  and  C25_34 
REMARK    3  A    between atoms: C2_3  and  C3_4 
REMARK    4  A    between atoms: N2_7  and  C6_8 
REMARK    5  A    between atoms: C6_8  and  C7_9 
REMARK    6  A    between atoms: C7_9  and  O1_10 
REMARK    7  A    between atoms: O1_10  and  C8_11 
REMARK    8  A    between atoms: C8_11  and  C9_12 
REMARK    9  A    between atoms: C9_12  and  O2_13 
REMARK   10  A    between atoms: O2_13  and  C10_14 
REMARK       I    between atoms: N3_21  and  C17_22 
REMARK   11  A    between atoms: C17_22  and  O4_24 
REMARK   12  A    between atoms: O4_24  and  C18_25 
REMARK   13  A    between atoms: C24_31  and  O5_32 
REMARK   14  A    between atoms: C25_34  and  C26_35 
REMARK   15  A    between atoms: C26_35  and  C28_38 
ROOT
HETATM    1  O1  UNL     1      21.080  33.776  37.873  1.00  0.00    -0.387 OA
ENDROOT
BRANCH   1   2
HETATM    2  C7  UNL     1      22.021  33.776  37.071  1.00  0.00     0.198 C 
BRANCH   2   3
HETATM    3  C6  UNL     1      21.740  33.696  35.581  1.00  0.00     0.301 C 
BRANCH   3   4
HETATM    4  N2  UNL     1      22.395  32.587  34.952  1.00  0.00     0.119 N 
HETATM    5  C5  UNL     1      22.039  31.280  35.424  1.00  0.00     0.276 C 
HETATM    6  C4  UNL     1      20.617  31.125  34.873  1.00  0.00     0.041 C 
HETATM    7  C3  UNL     1      20.805  31.581  33.470  1.00  0.00     0.075 C 
HETATM    8  C24 UNL     1      21.971  32.529  33.532  1.00  0.00     0.362 C 
BRANCH   7   9
HETATM    9  C2  UNL     1      19.660  31.988  32.658  1.00  0.00     0.281 C 
BRANCH   9  10
HETATM   10  N1  UNL     1      18.403  31.344  32.729  1.00  0.00     0.087 N 
HETATM   11  C1  UNL     1      17.872  31.309  31.348  1.00  0.00     0.310 C 
BRANCH  10  12
HETATM   12  C25 UNL     1      17.470  32.206  33.440  1.00  0.00     0.316 C 
BRANCH  12  13
HETATM   13  C26 UNL     1      16.765  31.593  34.590  1.00  0.00     0.146 C 
HETATM   14  C27 UNL     1      15.268  31.456  34.337  1.00  0.00     0.055 C 
HETATM   15  F1  UNL     1      17.188  30.323  34.902  1.00  0.00    -0.239 F 
BRANCH  13  16
HETATM   16  C28 UNL     1      17.061  32.422  35.829  1.00  0.00     0.067 C 
HETATM   17  C29 UNL     1      15.751  32.917  36.384  1.00  0.00     0.036 C 
HETATM   18  C30 UNL     1      17.724  31.612  36.910  1.00  0.00     0.036 C 
HETATM   19 CL1  UNL     1      18.106  33.795  35.420  1.00  0.00    -0.116 Cl
ENDBRANCH  13  16
ENDBRANCH  12  13
ENDBRANCH  10  12
ENDBRANCH   9  10
ENDBRANCH   7   9
BRANCH   8  20
HETATM   20  O5  UNL     1      23.035  31.980  32.832  1.00  0.00    -0.367 OA
ATOM     21  H5  UNL     1      23.445  32.660  32.310  1.00  0.00     0.212 HD
ENDBRANCH   8  20
ENDBRANCH   3   4
ENDBRANCH   2   3
ENDBRANCH   1   2
BRANCH   1  22
HETATM   22  C8  UNL     1      20.175  33.776  38.723  1.00  0.00     0.194 C 
BRANCH  22  23
HETATM   23  C9  UNL     1      19.131  34.912  38.580  1.00  0.00     0.201 C 
BRANCH  23  24
HETATM   24  O2  UNL     1      17.890  34.477  38.941  1.00  0.00    -0.349 OA
BRANCH  24  25
HETATM   25  C10 UNL     1      17.187  34.189  40.034  1.00  0.00     0.069 A 
HETATM   26  C11 UNL     1      16.022  33.467  40.052  1.00  0.00     0.037 A 
HETATM   27  C12 UNL     1      15.398  33.227  41.262  1.00  0.00     0.010 A 
HETATM   28  C13 UNL     1      15.900  33.690  42.453  1.00  0.00    -0.049 A 
HETATM   29  C14 UNL     1      17.073  34.427  42.436  1.00  0.00    -0.031 A 
HETATM   30  C23 UNL     1      15.276  33.412  43.769  1.00  0.00     0.059 C 
HETATM   31  C15 UNL     1      17.691  34.664  41.263  1.00  0.00     0.046 A 
HETATM   32  C16 UNL     1      17.530  34.949  43.777  1.00  0.00     0.167 C 
HETATM   33  N3  UNL     1      16.303  35.516  44.356  1.00  0.00    -0.323 N 
HETATM   34  C17 UNL     1      16.239  36.867  44.751  1.00  0.00     0.363 C 
HETATM   35  C22 UNL     1      15.118  34.697  44.517  1.00  0.00     0.133 C 
HETATM   36  O3  UNL     1      17.250  37.590  44.632  1.00  0.00    -0.238 OA
BRANCH  34  37
HETATM   37  O4  UNL     1      15.073  37.409  45.268  1.00  0.00    -0.294 OA
BRANCH  37  38
HETATM   38  C18 UNL     1      14.242  38.342  44.633  1.00  0.00     0.061 C 
HETATM   39  C19 UNL     1      13.546  39.100  45.784  1.00  0.00     0.046 C 
HETATM   40  C20 UNL     1      13.161  37.682  43.841  1.00  0.00     0.046 C 
HETATM   41  C21 UNL     1      14.994  39.407  43.870  1.00  0.00     0.046 C 
ENDBRANCH  37  38
ENDBRANCH  34  37
ENDBRANCH  24  25
ENDBRANCH  23  24
ENDBRANCH  22  23
ENDBRANCH   1  22
TORSDOF 15
ENDMDL
MODEL 2
REMARK VINA RESULT: -8.114201095      1.952      3.206
REMARK  15 active torsions:
REMARK  status: ('A' for Active; 'I' for Inactive)
REMARK    1  A    between atoms: N1_2  and  C2_3 
REMARK    2  A    between atoms: N1_2  and  C25_34 
REMARK    3  A    between atoms: C2_3  and  C3_4 
REMARK    4  A    between atoms: N2_7  and  C6_8 
REMARK    5  A    between atoms: C6_8  and  C7_9 
REMARK    6  A    between atoms: C7_9  and  O1_10 
REMARK    7  A    between atoms: O1_10  and  C8_11 
REMARK    8  A    between atoms: C8_11  and  C9_12 
REMARK    9  A    between atoms: C9_12  and  O2_13 
REMARK   10  A    between atoms: O2_13  and  C10_14 
REMARK       I    between atoms: N3_21  and  C17_22 
REMARK   11  A    between atoms: C17_22  and  O4_24 
REMARK   12  A    between atoms: O4_24  and  C18_25 
REMARK   13  A    between atoms: C24_31  and  O5_32 
REMARK   14  A    between atoms: C25_34  and  C26_35 
REMARK   15  A    between atoms: C26_35  and  C28_38 
ROOT
HETATM    1  O1  UNL     1      24.137  34.438  37.762  1.00  0.00    -0.387 OA
ENDROOT
BRANCH   1   2
HETATM    2  C7  UNL     1      24.970  33.942  36.996  1.00  0.00     0.198 C 
BRANCH   2   3
HETATM    3  C6  UNL     1      24.507  33.079  35.835  1.00  0.00     0.301 C 
BRANCH   3   4
HETATM    4  N2  UNL     1      23.725  33.807  34.881  1.00  0.00     0.119 N 
HETATM    5  C5  UNL     1      23.854  33.410  33.508  1.00  0.00     0.276 C 
HETATM    6  C4  UNL     1      23.130  32.059  33.505  1.00  0.00     0.041 C 
HETATM    7  C3  UNL     1      21.892  32.397  34.255  1.00  0.00     0.075 C 
HETATM    8  C24 UNL     1      22.290  33.542  35.145  1.00  0.00     0.362 C 
BRANCH   7   9
HETATM    9  C2  UNL     1      21.071  31.346  34.852  1.00  0.00     0.281 C 
BRANCH   9  10
HETATM   10  N1  UNL     1      20.101  31.603  35.849  1.00  0.00     0.087 N 
HETATM   11  C1  UNL     1      20.576  30.929  37.078  1.00  0.00     0.310 C 
BRANCH  10  12
HETATM   12  C25 UNL     1      18.876  30.893  35.512  1.00  0.00     0.316 C 
BRANCH  12  13
HETATM   13  C26 UNL     1      17.810  31.699  34.874  1.00  0.00     0.146 C 
HETATM   14  C27 UNL     1      16.561  31.790  35.742  1.00  0.00     0.055 C 
HETATM   15  F1  UNL     1      18.162  33.005  34.622  1.00  0.00    -0.239 F 
BRANCH  13  16
HETATM   16  C28 UNL     1      17.514  31.103  33.507  1.00  0.00     0.067 C 
HETATM   17  C29 UNL     1      18.065  32.035  32.461  1.00  0.00     0.036 C 
HETATM   18  C30 UNL     1      18.182  29.769  33.311  1.00  0.00     0.036 C 
HETATM   19 CL1  UNL     1      15.766  30.905  33.285  1.00  0.00    -0.116 Cl
ENDBRANCH  13  16
ENDBRANCH  12  13
ENDBRANCH  10  12
ENDBRANCH   9  10
ENDBRANCH   7   9
BRANCH   8  20
HETATM   20  O5  UNL     1      21.606  34.681  34.744  1.00  0.00    -0.367 OA
ATOM     21  H5  UNL     1      22.114  35.446  34.986  1.00  0.00     0.212 HD
ENDBRANCH   8  20
ENDBRANCH   3   4
ENDBRANCH   2   3
ENDBRANCH   1   2
BRANCH   1  22
HETATM   22  C8  UNL     1      23.265  34.888  38.524  1.00  0.00     0.194 C 
BRANCH  22  23
HETATM   23  C9  UNL     1      22.085  33.929  38.820  1.00  0.00     0.201 C 
BRANCH  23  24
HETATM   24  O2  UNL     1      20.935  34.387  38.248  1.00  0.00    -0.349 OA
BRANCH  24  25
HETATM   25  C10 UNL     1      19.617  34.358  38.438  1.00  0.00     0.069 A 
HETATM   26  C11 UNL     1      18.680  34.712  37.503  1.00  0.00     0.037 A 
HETATM   27  C12 UNL     1      17.339  34.622  37.827  1.00  0.00     0.010 A 
HETATM   28  C13 UNL     1      16.907  34.192  39.057  1.00  0.00    -0.049 A 
HETATM   29  C14 UNL     1      17.854  33.841  40.006  1.00  0.00    -0.031 A 
HETATM   30  C23 UNL     1      15.477  34.044  39.418  1.00  0.00     0.059 C 
HETATM   31  C15 UNL     1      19.163  33.923  39.701  1.00  0.00     0.046 A 
HETATM   32  C16 UNL     1      17.302  33.434  41.352  1.00  0.00     0.167 C 
HETATM   33  N3  UNL     1      16.309  34.480  41.641  1.00  0.00    -0.323 N 
HETATM   34  C17 UNL     1      16.394  35.263  42.810  1.00  0.00     0.363 C 
HETATM   35  C22 UNL     1      15.224  34.742  40.717  1.00  0.00     0.133 C 
HETATM   36  O3  UNL     1      17.313  35.049  43.627  1.00  0.00    -0.238 OA
BRANCH  34  37
HETATM   37  O4  UNL     1      15.476  36.269  43.067  1.00  0.00    -0.294 OA
BRANCH  37  38
HETATM   38  C18 UNL     1      14.948  36.607  44.320  1.00  0.00     0.061 C 
HETATM   39  C19 UNL     1      15.801  37.801  44.800  1.00  0.00     0.046 C 
HETATM   40  C20 UNL     1      15.139  35.516  45.322  1.00  0.00     0.046 C 
HETATM   41  C21 UNL     1      13.536  37.141  44.262  1.00  0.00     0.046 C 
ENDBRANCH  37  38
ENDBRANCH  34  37
ENDBRANCH  24  25
ENDBRANCH  23  24
ENDBRANCH  22  23
ENDBRANCH   1  22
TORSDOF 15
ENDMDL
MODEL 3
REMARK VINA RESULT: -8.085829608      1.725      2.657
REMARK  15 active torsions:
REMARK  status: ('A' for Active; 'I' for Inactive)
REMARK    1  A    between atoms: N1_2  and  C2_3 
REMARK    2  A    between atoms: N1_2  and  C25_34 
REMARK    3  A    between atoms: C2_3  and  C3_4 
REMARK    4  A    between atoms: N2_7  and  C6_8 
REMARK    5  A    between atoms: C6_8  and  C7_9 
REMARK    6  A    between atoms: C7_9  and  O1_10 
REMARK    7  A    between atoms: O1_10  and  C8_11 
REMARK    8  A    between atoms: C8_11  and  C9_12 
REMARK    9  A    between atoms: C9_12  and  O2_13 
REMARK   10  A    between atoms: O2_13  and  C10_14 
REMARK       I    between atoms: N3_21  and  C17_22 
REMARK   11  A    between atoms: C17_22  and  O4_24 
REMARK   12  A    between atoms: O4_24  and  C18_25 
REMARK   13  A    between atoms: C24_31  and  O5_32 
REMARK   14  A    between atoms: C25_34  and  C26_35 
REMARK   15  A    between atoms: C26_35  and  C28_38 
ROOT
HETATM    1  O1  UNL     1      21.941  32.237  38.492  1.00  0.00    -0.387 OA
ENDROOT
BRANCH   1   2
HETATM    2  C7  UNL     1      21.737  31.270  37.750  1.00  0.00     0.198 C 
BRANCH   2   3
HETATM    3  C6  UNL     1      22.259  31.292  36.324  1.00  0.00     0.301 C 
BRANCH   3   4
HETATM    4  N2  UNL     1      22.514  32.619  35.847  1.00  0.00     0.119 N 
HETATM    5  C5  UNL     1      23.717  32.808  35.088  1.00  0.00     0.276 C 
HETATM    6  C4  UNL     1      23.374  32.092  33.777  1.00  0.00     0.041 C 
HETATM    7  C3  UNL     1      22.015  32.631  33.505  1.00  0.00     0.075 C 
HETATM    8  C24 UNL     1      21.466  32.977  34.860  1.00  0.00     0.362 C 
BRANCH   7   9
HETATM    9  C2  UNL     1      21.115  31.950  32.577  1.00  0.00     0.281 C 
BRANCH   9  10
HETATM   10  N1  UNL     1      20.167  30.989  32.996  1.00  0.00     0.087 N 
HETATM   11  C1  UNL     1      20.275  29.854  32.052  1.00  0.00     0.310 C 
BRANCH  10  12
HETATM   12  C25 UNL     1      18.828  31.512  32.761  1.00  0.00     0.316 C 
BRANCH  12  13
HETATM   13  C26 UNL     1      17.737  30.880  33.538  1.00  0.00     0.146 C 
HETATM   14  C27 UNL     1      16.503  30.615  32.683  1.00  0.00     0.055 C 
HETATM   15  F1  UNL     1      18.061  29.658  34.079  1.00  0.00    -0.239 F 
BRANCH  13  16
HETATM   16  C28 UNL     1      17.424  31.767  34.732  1.00  0.00     0.067 C 
HETATM   17  C29 UNL     1      17.751  33.188  34.356  1.00  0.00     0.036 C 
HETATM   18  C30 UNL     1      15.966  31.730  35.102  1.00  0.00     0.036 C 
HETATM   19 CL1  UNL     1      18.383  31.273  36.139  1.00  0.00    -0.116 Cl
ENDBRANCH  13  16
ENDBRANCH  12  13
ENDBRANCH  10  12
ENDBRANCH   9  10
ENDBRANCH   7   9
BRANCH   8  20
HETATM   20  O5  UNL     1      21.310  34.354  34.944  1.00  0.00    -0.367 OA
ATOM     21  H5  UNL     1      21.252  34.602  35.859  1.00  0.00     0.212 HD
ENDBRANCH   8  20
ENDBRANCH   3   4
ENDBRANCH   2   3
ENDBRANCH   1   2
BRANCH   1  22
HETATM   22  C8  UNL     1      22.203  33.208  39.222  1.00  0.00     0.194 C 
BRANCH  22  23
HETATM   23  C9  UNL     1      21.909  34.598  38.605  1.00  0.00     0.201 C 
BRANCH  23  24
HETATM   24  O2  UNL     1      20.700  34.603  37.977  1.00  0.00    -0.349 OA
BRANCH  24  25
HETATM   25  C10 UNL     1      19.403  34.483  38.256  1.00  0.00     0.069 A 
HETATM   26  C11 UNL     1      18.383  34.726  37.373  1.00  0.00     0.037 A 
HETATM   27  C12 UNL     1      17.077  34.548  37.789  1.00  0.00     0.010 A 
HETATM   28  C13 UNL     1      16.759  34.140  39.060  1.00  0.00    -0.049 A 
HETATM   29  C14 UNL     1      17.789  33.902  39.957  1.00  0.00    -0.031 A 
HETATM   30  C23 UNL     1      15.370  33.901  39.521  1.00  0.00     0.059 C 
HETATM   31  C15 UNL     1      19.065  34.069  39.562  1.00  0.00     0.046 A 
HETATM   32  C16 UNL     1      17.357  33.513  41.351  1.00  0.00     0.167 C 
HETATM   33  N3  UNL     1      16.306  34.492  41.666  1.00  0.00    -0.323 N 
HETATM   34  C17 UNL     1      16.405  35.329  42.796  1.00  0.00     0.363 C 
HETATM   35  C22 UNL     1      15.148  34.632  40.807  1.00  0.00     0.133 C 
HETATM   36  O3  UNL     1      17.388  35.220  43.557  1.00  0.00    -0.238 OA
BRANCH  34  37
HETATM   37  O4  UNL     1      15.429  36.273  43.076  1.00  0.00    -0.294 OA
BRANCH  37  38
HETATM   38  C18 UNL     1      14.967  36.633  44.349  1.00  0.00     0.061 C 
HETATM   39  C19 UNL     1      15.802  37.873  44.736  1.00  0.00     0.046 C 
HETATM   40  C20 UNL     1      15.262  35.584  45.370  1.00  0.00     0.046 C 
HETATM   41  C21 UNL     1      13.535  37.114  44.364  1.00  0.00     0.046 C 
ENDBRANCH  37  38
ENDBRANCH  34  37
ENDBRANCH  24  25
ENDBRANCH  23  24
ENDBRANCH  22  23
ENDBRANCH   1  22
TORSDOF 15
ENDMDL
MODEL 4
REMARK VINA RESULT: -8.058188805      1.469      2.219
REMARK  15 active torsions:
REMARK  status: ('A' for Active; 'I' for Inactive)
REMARK    1  A    between atoms: N1_2  and  C2_3 
REMARK    2  A    between atoms: N1_2  and  C25_34 
REMARK    3  A    between atoms: C2_3  and  C3_4 
REMARK    4  A    between atoms: N2_7  and  C6_8 
REMARK    5  A    between atoms: C6_8  and  C7_9 
REMARK    6  A    between atoms: C7_9  and  O1_10 
REMARK    7  A    between atoms: O1_10  and  C8_11 
REMARK    8  A    between atoms: C8_11  and  C9_12 
REMARK    9  A    between atoms: C9_12  and  O2_13 
REMARK   10  A    between atoms: O2_13  and  C10_14 
REMARK       I    between atoms: N3_21  and  C17_22 
REMARK   11  A    between atoms: C17_22  and  O4_24 
REMARK   12  A    between atoms: O4_24  and  C18_25 
REMARK   13  A    between atoms: C24_31  and  O5_32 
REMARK   14  A    between atoms: C25_34  and  C26_35 
REMARK   15  A    between atoms: C26_35  and  C28_38 
ROOT
HETATM    1  O1  UNL     1      21.152  34.795  37.496  1.00  0.00    -0.387 OA
ENDROOT
BRANCH   1   2
HETATM    2  C7  UNL     1      22.269  35.120  37.079  1.00  0.00     0.198 C 
BRANCH   2   3
HETATM    3  C6  UNL     1      23.312  34.050  36.807  1.00  0.00     0.301 C 
BRANCH   3   4
HETATM    4  N2  UNL     1      23.651  33.946  35.419  1.00  0.00     0.119 N 
HETATM    5  C5  UNL     1      24.655  32.982  35.074  1.00  0.00     0.276 C 
HETATM    6  C4  UNL     1      23.907  31.661  35.288  1.00  0.00     0.041 C 
HETATM    7  C3  UNL     1      22.623  31.946  34.594  1.00  0.00     0.075 C 
HETATM    8  C24 UNL     1      22.469  33.439  34.680  1.00  0.00     0.362 C 
BRANCH   7   9
HETATM    9  C2  UNL     1      21.435  31.139  34.862  1.00  0.00     0.281 C 
BRANCH   9  10
HETATM   10  N1  UNL     1      20.436  31.528  35.785  1.00  0.00     0.087 N 
HETATM   11  C1  UNL     1      20.843  30.979  37.098  1.00  0.00     0.310 C 
BRANCH  10  12
HETATM   12  C25 UNL     1      19.204  30.817  35.476  1.00  0.00     0.316 C 
BRANCH  12  13
HETATM   13  C26 UNL     1      18.022  31.660  35.184  1.00  0.00     0.146 C 
HETATM   14  C27 UNL     1      16.983  31.596  36.298  1.00  0.00     0.055 C 
HETATM   15  F1  UNL     1      18.302  32.999  35.039  1.00  0.00    -0.239 F 
BRANCH  13  16
HETATM   16  C28 UNL     1      17.447  31.232  33.844  1.00  0.00     0.067 C 
HETATM   17  C29 UNL     1      15.952  31.127  33.988  1.00  0.00     0.036 C 
HETATM   18  C30 UNL     1      17.720  32.240  32.760  1.00  0.00     0.036 C 
HETATM   19 CL1  UNL     1      18.123  29.668  33.353  1.00  0.00    -0.116 Cl
ENDBRANCH  13  16
ENDBRANCH  12  13
ENDBRANCH  10  12
ENDBRANCH   9  10
ENDBRANCH   7   9
BRANCH   8  20
HETATM   20  O5  UNL     1      22.553  33.974  33.402  1.00  0.00    -0.367 OA
ATOM     21  H5  UNL     1      23.457  33.940  33.113  1.00  0.00     0.212 HD
ENDBRANCH   8  20
ENDBRANCH   3   4
ENDBRANCH   2   3
ENDBRANCH   1   2
BRANCH   1  22
HETATM   22  C8  UNL     1      20.042  34.412  37.903  1.00  0.00     0.194 C 
BRANCH  22  23
HETATM   23  C9  UNL     1      18.916  35.475  37.854  1.00  0.00     0.201 C 
BRANCH  23  24
HETATM   24  O2  UNL     1      17.723  34.933  38.231  1.00  0.00    -0.349 OA
BRANCH  24  25
HETATM   25  C10 UNL     1      17.106  34.478  39.319  1.00  0.00     0.069 A 
HETATM   26  C11 UNL     1      15.988  33.686  39.316  1.00  0.00     0.037 A 
HETATM   27  C12 UNL     1      15.455  33.269  40.521  1.00  0.00     0.010 A 
HETATM   28  C13 UNL     1      16.003  33.622  41.729  1.00  0.00    -0.049 A 
HETATM   29  C14 UNL     1      17.129  34.429  41.735  1.00  0.00    -0.031 A 
HETATM   30  C23 UNL     1      15.479  33.155  43.035  1.00  0.00     0.059 C 
HETATM   31  C15 UNL     1      17.659  34.839  40.566  1.00  0.00     0.046 A 
HETATM   32  C16 UNL     1      17.638  34.821  43.102  1.00  0.00     0.167 C 
HETATM   33  N3  UNL     1      16.419  35.238  43.811  1.00  0.00    -0.323 N 
HETATM   34  C17 UNL     1      16.304  36.528  44.366  1.00  0.00     0.363 C 
HETATM   35  C22 UNL     1      15.295  34.333  43.938  1.00  0.00     0.133 C 
HETATM   36  O3  UNL     1      17.263  37.323  44.278  1.00  0.00    -0.238 OA
BRANCH  34  37
HETATM   37  O4  UNL     1      15.143  36.931  45.007  1.00  0.00    -0.294 OA
BRANCH  37  38
HETATM   38  C18 UNL     1      14.374  38.061  44.693  1.00  0.00     0.061 C 
HETATM   39  C19 UNL     1      13.819  38.550  46.049  1.00  0.00     0.046 C 
HETATM   40  C20 UNL     1      13.194  37.717  43.846  1.00  0.00     0.046 C 
HETATM   41  C21 UNL     1      15.185  39.222  44.168  1.00  0.00     0.046 C 
ENDBRANCH  37  38
ENDBRANCH  34  37
ENDBRANCH  24  25
ENDBRANCH  23  24
ENDBRANCH  22  23
ENDBRANCH   1  22
TORSDOF 15
ENDMDL
MODEL 5
REMARK VINA RESULT: -8.049019272      1.167      1.635
REMARK  15 active torsions:
REMARK  status: ('A' for Active; 'I' for Inactive)
REMARK    1  A    between atoms: N1_2  and  C2_3 
REMARK    2  A    between atoms: N1_2  and  C25_34 
REMARK    3  A    between atoms: C2_3  and  C3_4 
REMARK    4  A    between atoms: N2_7  and  C6_8 
REMARK    5  A    between atoms: C6_8  and  C7_9 
REMARK    6  A    between atoms: C7_9  and  O1_10 
REMARK    7  A    between atoms: O1_10  and  C8_11 
REMARK    8  A    between atoms: C8_11  and  C9_12 
REMARK    9  A    between atoms: C9_12  and  O2_13 
REMARK   10  A    between atoms: O2_13  and  C10_14 
REMARK       I    between atoms: N3_21  and  C17_22 
REMARK   11  A    between atoms: C17_22  and  O4_24 
REMARK   12  A    between atoms: O4_24  and  C18_25 
REMARK   13  A    between atoms: C24_31  and  O5_32 
REMARK   14  A    between atoms: C25_34  and  C26_35 
REMARK   15  A    between atoms: C26_35  and  C28_38 
ROOT
HETATM    1  O1  UNL     1      21.368  33.986  38.621  1.00  0.00    -0.387 OA
ENDROOT
BRANCH   1   2
HETATM    2  C7  UNL     1      22.528  34.324  38.360  1.00  0.00     0.198 C 
BRANCH   2   3
HETATM    3  C6  UNL     1      23.304  33.584  37.285  1.00  0.00     0.301 C 
BRANCH   3   4
HETATM    4  N2  UNL     1      23.117  34.144  35.980  1.00  0.00     0.119 N 
HETATM    5  C5  UNL     1      24.006  33.685  34.952  1.00  0.00     0.276 C 
HETATM    6  C4  UNL     1      23.508  32.254  34.724  1.00  0.00     0.041 C 
HETATM    7  C3  UNL     1      22.039  32.472  34.646  1.00  0.00     0.075 C 
HETATM    8  C24 UNL     1      21.797  33.711  35.463  1.00  0.00     0.362 C 
BRANCH   7   9
HETATM    9  C2  UNL     1      21.109  31.361  34.832  1.00  0.00     0.281 C 
BRANCH   9  10
HETATM   10  N1  UNL     1      20.247  30.903  33.808  1.00  0.00     0.087 N 
HETATM   11  C1  UNL     1      20.979  31.084  32.533  1.00  0.00     0.310 C 
BRANCH  10  12
HETATM   12  C25 UNL     1      19.120  31.817  33.695  1.00  0.00     0.316 C 
BRANCH  12  13
HETATM   13  C26 UNL     1      17.819  31.310  34.190  1.00  0.00     0.146 C 
HETATM   14  C27 UNL     1      16.768  31.254  33.088  1.00  0.00     0.055 C 
HETATM   15  F1  UNL     1      17.866  30.034  34.700  1.00  0.00    -0.239 F 
BRANCH  13  16
HETATM   16  C28 UNL     1      17.378  32.182  35.355  1.00  0.00     0.067 C 
HETATM   17  C29 UNL     1      17.774  31.490  36.632  1.00  0.00     0.036 C 
HETATM   18  C30 UNL     1      18.056  33.525  35.348  1.00  0.00     0.036 C 
HETATM   19 CL1  UNL     1      15.622  32.427  35.314  1.00  0.00    -0.116 Cl
ENDBRANCH  13  16
ENDBRANCH  12  13
ENDBRANCH  10  12
ENDBRANCH   9  10
ENDBRANCH   7   9
BRANCH   8  20
HETATM   20  O5  UNL     1      21.358  34.725  34.623  1.00  0.00    -0.367 OA
ATOM     21  H5  UNL     1      20.756  34.359  33.987  1.00  0.00     0.212 HD
ENDBRANCH   8  20
ENDBRANCH   3   4
ENDBRANCH   2   3
ENDBRANCH   1   2
BRANCH   1  22
HETATM   22  C8  UNL     1      20.194  33.699  38.910  1.00  0.00     0.194 C 
BRANCH  22  23
HETATM   23  C9  UNL     1      19.152  34.811  38.631  1.00  0.00     0.201 C 
BRANCH  23  24
HETATM   24  O2  UNL     1      17.902  34.402  38.988  1.00  0.00    -0.349 OA
BRANCH  24  25
HETATM   25  C10 UNL     1      17.189  34.127  40.079  1.00  0.00     0.069 A 
HETATM   26  C11 UNL     1      16.021  33.412  40.095  1.00  0.00     0.037 A 
HETATM   27  C12 UNL     1      15.387  33.185  41.303  1.00  0.00     0.010 A 
HETATM   28  C13 UNL     1      15.884  33.655  42.493  1.00  0.00    -0.049 A 
HETATM   29  C14 UNL     1      17.061  34.385  42.478  1.00  0.00    -0.031 A 
HETATM   30  C23 UNL     1      15.249  33.392  43.807  1.00  0.00     0.059 C 
HETATM   31  C15 UNL     1      17.688  34.610  41.307  1.00  0.00     0.046 A 
HETATM   32  C16 UNL     1      17.512  34.916  43.818  1.00  0.00     0.167 C 
HETATM   33  N3  UNL     1      16.284  35.494  44.384  1.00  0.00    -0.323 N 
HETATM   34  C17 UNL     1      16.226  36.850  44.768  1.00  0.00     0.363 C 
HETATM   35  C22 UNL     1      15.094  34.684  44.544  1.00  0.00     0.133 C 
HETATM   36  O3  UNL     1      17.241  37.565  44.649  1.00  0.00    -0.238 OA
BRANCH  34  37
HETATM   37  O4  UNL     1      15.059  37.401  45.272  1.00  0.00    -0.294 OA
BRANCH  37  38
HETATM   38  C18 UNL     1      14.237  38.334  44.624  1.00  0.00     0.061 C 
HETATM   39  C19 UNL     1      13.529  39.097  45.764  1.00  0.00     0.046 C 
HETATM   40  C20 UNL     1      13.165  37.673  43.821  1.00  0.00     0.046 C 
HETATM   41  C21 UNL     1      15.001  39.395  43.866  1.00  0.00     0.046 C 
ENDBRANCH  37  38
ENDBRANCH  34  37
ENDBRANCH  24  25
ENDBRANCH  23  24
ENDBRANCH  22  23
ENDBRANCH   1  22
TORSDOF 15
ENDMDL
