MODEL 1
REMARK VINA RESULT: -8.626318245      0.000      0.000
REMARK  17 active torsions:
REMARK  status: ('A' for Active; 'I' for Inactive)
REMARK    1  A    between atoms: O1_2  and  C2_3 
REMARK    2  A    between atoms: C2_3  and  C3_5 
REMARK    3  A    between atoms: C3_5  and  C5_7 
REMARK    4  A    between atoms: C7_9  and  C8_10 
REMARK    5  A    between atoms: C8_10  and  O3_11 
REMARK    6  A    between atoms: N1_13  and  O4_15 
REMARK       I    between atoms: N2_17  and  C9_18 
REMARK    7  A    between atoms: C9_18  and  C10_20 
REMARK    8  A    between atoms: C10_20  and  N3_23 
REMARK    9  A    between atoms: N3_23  and  N4_25 
REMARK   10  A    between atoms: N4_25  and  N5_26 
REMARK   11  A    between atoms: C14_30  and  C15_31 
REMARK   12  A    between atoms: C15_31  and  C16_32 
REMARK   13  A    between atoms: C16_32  and  C17_33 
REMARK   14  A    between atoms: C17_33  and  C18_34 
REMARK   15  A    between atoms: C21_37  and  S1_38 
REMARK   16  A    between atoms: S1_38  and  C22_39 
REMARK   17  A    between atoms: C22_39  and  C23_40 
ROOT
HETATM    1  C5  UNL     1      22.868  34.759  37.356  1.00  0.00     0.015 C 
HETATM    2  C6  UNL     1      21.647  34.646  36.891  1.00  0.00     0.037 C 
HETATM    3  C7  UNL     1      21.213  34.384  35.441  1.00  0.00     0.215 C 
HETATM    4  N2  UNL     1      20.252  33.298  35.770  1.00  0.00    -0.310 N 
HETATM    5  C9  UNL     1      20.112  32.196  34.898  1.00  0.00     0.252 C 
HETATM    6  O5  UNL     1      20.720  32.274  33.761  1.00  0.00    -0.270 OA
HETATM    7  C13 UNL     1      19.587  33.612  36.988  1.00  0.00     0.196 C 
HETATM    8  C14 UNL     1      18.499  34.598  37.100  1.00  0.00     0.046 C 
HETATM    9  C27 UNL     1      19.262  35.043  38.423  1.00  0.00     0.133 C 
HETATM   10  N6  UNL     1      20.431  34.742  37.583  1.00  0.00    -0.360 N 
ENDROOT
BRANCH   8  11
HETATM   11  C15 UNL     1      17.117  34.318  37.504  1.00  0.00     0.010 C 
BRANCH  11  12
HETATM   12  C16 UNL     1      16.807  33.055  38.219  1.00  0.00     0.005 C 
BRANCH  12  13
HETATM   13  C17 UNL     1      15.437  33.159  38.867  1.00  0.00     0.038 C 
BRANCH  13  14
HETATM   14  C18 UNL     1      15.467  33.653  40.247  1.00  0.00    -0.058 A 
HETATM   15  C19 UNL     1      15.885  32.819  41.259  1.00  0.00     0.008 A 
HETATM   16  C20 UNL     1      15.902  33.307  42.557  1.00  0.00     0.019 A 
HETATM   17  C21 UNL     1      15.528  34.575  42.918  1.00  0.00     0.000 A 
HETATM   18  C25 UNL     1      15.104  35.415  41.874  1.00  0.00     0.019 A 
HETATM   19  C26 UNL     1      15.082  34.951  40.586  1.00  0.00     0.008 A 
BRANCH  17  20
HETATM   20  S1  UNL     1      15.508  35.178  44.588  1.00  0.00    -0.124 SA
BRANCH  20  21
HETATM   21  C22 UNL     1      15.596  36.935  44.784  1.00  0.00     0.158 C 
BRANCH  21  22
HETATM   22  C23 UNL     1      14.298  37.650  44.974  1.00  0.00     0.248 C 
HETATM   23  C24 UNL     1      14.253  38.951  44.177  1.00  0.00     0.091 C 
HETATM   24  F1  UNL     1      13.233  36.889  44.438  1.00  0.00    -0.206 F 
HETATM   25  F2  UNL     1      14.074  37.916  46.291  1.00  0.00    -0.206 F 
ENDBRANCH  21  22
ENDBRANCH  20  21
ENDBRANCH  17  20
ENDBRANCH  13  14
ENDBRANCH  12  13
ENDBRANCH  11  12
ENDBRANCH   8  11
BRANCH   3  26
HETATM   26  C8  UNL     1      22.345  33.976  34.644  1.00  0.00     0.165 C 
HETATM   27  N1  UNL     1      22.547  34.486  33.485  1.00  0.00    -0.249 N 
ATOM     28  H1  UNL     1      21.892  35.185  33.136  1.00  0.00     0.196 HD
BRANCH  26  29
HETATM   29  O3  UNL     1      23.238  33.031  35.107  1.00  0.00    -0.346 OA
ATOM     30  H3  UNL     1      23.110  32.107  34.927  1.00  0.00     0.219 HD
ENDBRANCH  26  29
BRANCH  27  31
HETATM   31  O4  UNL     1      23.599  34.130  32.704  1.00  0.00    -0.288 OA
ATOM     32  H4  UNL     1      23.951  34.699  32.029  1.00  0.00     0.244 HD
ENDBRANCH  27  31
ENDBRANCH   3  26
BRANCH   5  33
HETATM   33  C10 UNL     1      19.350  30.953  35.135  1.00  0.00     0.133 C 
HETATM   34  C11 UNL     1      19.632  30.455  36.547  1.00  0.00     0.051 C 
HETATM   35  C12 UNL     1      17.836  31.252  35.126  1.00  0.00     0.051 C 
BRANCH  33  36
HETATM   36  N3  UNL     1      19.543  29.913  34.189  1.00  0.00    -0.234 N 
ATOM     37  H3  UNL     1      20.409  29.378  34.263  1.00  0.00     0.198 HD
BRANCH  36  38
HETATM   38  N4  UNL     1      18.774  29.597  33.296  1.00  0.00    -0.247 NA
BRANCH  38  39
HETATM   39  N5  UNL     1      18.127  28.894  32.498  1.00  0.00    -0.261 N 
ATOM     40  H52 UNL     1      18.787  28.116  32.471  1.00  0.00     0.193 HD
ATOM     41  H51 UNL     1      17.386  28.590  31.866  1.00  0.00     0.193 HD
ENDBRANCH  38  39
ENDBRANCH  36  38
ENDBRANCH  33  36
ENDBRANCH   5  33
BRANCH   1  42
HETATM   42  C3  UNL     1      23.109  35.011  38.777  1.00  0.00     0.106 C 
HETATM   43  C4  UNL     1      22.975  33.762  39.629  1.00  0.00     0.025 C 
BRANCH  42  44
HETATM   44  C2  UNL     1      24.474  35.537  38.959  1.00  0.00     0.265 C 
HETATM   45  O2  UNL     1      24.662  36.794  38.981  1.00  0.00    -0.265 OA
BRANCH  44  46
HETATM   46  O1  UNL     1      25.584  34.734  39.109  1.00  0.00    -0.326 OA
HETATM   47  C1  UNL     1      26.616  34.771  38.135  1.00  0.00     0.213 C 
ENDBRANCH  44  46
ENDBRANCH  42  44
ENDBRANCH   1  42
TORSDOF 17
ENDMDL
MODEL 2
REMARK VINA RESULT: -8.559049769      2.735      6.165
REMARK  17 active torsions:
REMARK  status: ('A' for Active; 'I' for Inactive)
REMARK    1  A    between atoms: O1_2  and  C2_3 
REMARK    2  A    between atoms: C2_3  and  C3_5 
REMARK    3  A    between atoms: C3_5  and  C5_7 
REMARK    4  A    between atoms: C7_9  and  C8_10 
REMARK    5  A    between atoms: C8_10  and  O3_11 
REMARK    6  A    between atoms: N1_13  and  O4_15 
REMARK       I    between atoms: N2_17  and  C9_18 
REMARK    7  A    between atoms: C9_18  and  C10_20 
REMARK    8  A    between atoms: C10_20  and  N3_23 
REMARK    9  A    between atoms: N3_23  and  N4_25 
REMARK   10  A    between atoms: N4_25  and  N5_26 
REMARK   11  A    between atoms: C14_30  and  C15_31 
REMARK   12  A    between atoms: C15_31  and  C16_32 
REMARK   13  A    between atoms: C16_32  and  C17_33 
REMARK   14  A    between atoms: C17_33  and  C18_34 
REMARK   15  A    between atoms: C21_37  and  S1_38 
REMARK   16  A    between atoms: S1_38  and  C22_39 
REMARK   17  A    between atoms: C22_39  and  C23_40 
ROOT
HETATM    1  C5  UNL     1      18.279  30.882  31.715  1.00  0.00     0.015 C 
HETATM    2  C6  UNL     1      18.333  30.874  33.025  1.00  0.00     0.037 C 
HETATM    3  C7  UNL     1      19.506  30.438  33.916  1.00  0.00     0.215 C 
HETATM    4  N2  UNL     1      19.474  31.636  34.797  1.00  0.00    -0.310 N 
HETATM    5  C9  UNL     1      20.681  32.181  35.286  1.00  0.00     0.252 C 
HETATM    6  O5  UNL     1      21.757  31.500  35.067  1.00  0.00    -0.270 OA
HETATM    7  C13 UNL     1      18.122  32.021  35.016  1.00  0.00     0.196 C 
HETATM    8  C14 UNL     1      17.208  31.328  35.938  1.00  0.00     0.046 C 
HETATM    9  C27 UNL     1      16.150  31.511  34.764  1.00  0.00     0.133 C 
HETATM   10  N6  UNL     1      17.346  31.247  33.948  1.00  0.00    -0.360 N 
ENDROOT
BRANCH   8  11
HETATM   11  C15 UNL     1      16.587  31.905  37.136  1.00  0.00     0.010 C 
BRANCH  11  12
HETATM   12  C16 UNL     1      17.372  32.827  37.993  1.00  0.00     0.005 C 
BRANCH  12  13
HETATM   13  C17 UNL     1      16.463  33.917  38.535  1.00  0.00     0.038 C 
BRANCH  13  14
HETATM   14  C18 UNL     1      16.508  34.058  39.994  1.00  0.00    -0.058 A 
HETATM   15  C19 UNL     1      15.722  33.247  40.780  1.00  0.00     0.008 A 
HETATM   16  C20 UNL     1      15.779  33.401  42.157  1.00  0.00     0.019 A 
HETATM   17  C21 UNL     1      16.567  34.313  42.808  1.00  0.00     0.000 A 
HETATM   18  C25 UNL     1      17.365  35.135  41.992  1.00  0.00     0.019 A 
HETATM   19  C26 UNL     1      17.323  34.996  40.629  1.00  0.00     0.008 A 
BRANCH  17  20
HETATM   20  S1  UNL     1      16.600  34.536  44.569  1.00  0.00    -0.124 SA
BRANCH  20  21
HETATM   21  C22 UNL     1      15.315  35.544  45.251  1.00  0.00     0.158 C 
BRANCH  21  22
HETATM   22  C23 UNL     1      14.958  36.778  44.488  1.00  0.00     0.248 C 
HETATM   23  C24 UNL     1      14.200  37.776  45.357  1.00  0.00     0.091 C 
HETATM   24  F1  UNL     1      16.127  37.478  44.110  1.00  0.00    -0.206 F 
HETATM   25  F2  UNL     1      14.212  36.474  43.388  1.00  0.00    -0.206 F 
ENDBRANCH  21  22
ENDBRANCH  20  21
ENDBRANCH  17  20
ENDBRANCH  13  14
ENDBRANCH  12  13
ENDBRANCH  11  12
ENDBRANCH   8  11
BRANCH   3  26
HETATM   26  C8  UNL     1      20.707  30.292  33.129  1.00  0.00     0.165 C 
HETATM   27  N1  UNL     1      21.063  31.204  32.301  1.00  0.00    -0.249 N 
ATOM     28  H1  UNL     1      20.481  32.037  32.209  1.00  0.00     0.196 HD
BRANCH  26  29
HETATM   29  O3  UNL     1      21.503  29.170  33.246  1.00  0.00    -0.346 OA
ATOM     30  H3  UNL     1      21.361  28.409  32.696  1.00  0.00     0.219 HD
ENDBRANCH  26  29
BRANCH  27  31
HETATM   31  O4  UNL     1      22.185  31.106  31.543  1.00  0.00    -0.288 OA
ATOM     32  H4  UNL     1      23.056  31.071  31.921  1.00  0.00     0.244 HD
ENDBRANCH  27  31
ENDBRANCH   3  26
BRANCH   5  33
HETATM   33  C10 UNL     1      20.863  33.451  36.019  1.00  0.00     0.133 C 
HETATM   34  C11 UNL     1      21.126  33.147  37.488  1.00  0.00     0.051 C 
HETATM   35  C12 UNL     1      22.146  34.160  35.535  1.00  0.00     0.051 C 
BRANCH  33  36
HETATM   36  N3  UNL     1      19.822  34.405  35.882  1.00  0.00    -0.234 N 
ATOM     37  H3  UNL     1      19.399  34.497  34.959  1.00  0.00     0.198 HD
BRANCH  36  38
HETATM   38  N4  UNL     1      19.382  35.126  36.764  1.00  0.00    -0.247 NA
BRANCH  38  39
HETATM   39  N5  UNL     1      19.271  36.084  37.550  1.00  0.00    -0.261 N 
ATOM     40  H52 UNL     1      20.014  36.652  37.142  1.00  0.00     0.193 HD
ATOM     41  H51 UNL     1      18.933  36.665  38.317  1.00  0.00     0.193 HD
ENDBRANCH  38  39
ENDBRANCH  36  38
ENDBRANCH  33  36
ENDBRANCH   5  33
BRANCH   1  42
HETATM   42  C3  UNL     1      17.074  31.331  31.017  1.00  0.00     0.106 C 
HETATM   43  C4  UNL     1      17.377  32.011  29.695  1.00  0.00     0.025 C 
BRANCH  42  44
HETATM   44  C2  UNL     1      16.206  30.172  30.740  1.00  0.00     0.265 C 
HETATM   45  O2  UNL     1      15.068  30.357  30.203  1.00  0.00    -0.265 OA
BRANCH  44  46
HETATM   46  O1  UNL     1      16.558  28.872  31.033  1.00  0.00    -0.326 OA
HETATM   47  C1  UNL     1      16.125  27.817  30.187  1.00  0.00     0.213 C 
ENDBRANCH  44  46
ENDBRANCH  42  44
ENDBRANCH   1  42
TORSDOF 17
ENDMDL
MODEL 3
REMARK VINA RESULT: -8.544399568      2.766      6.224
REMARK  17 active torsions:
REMARK  status: ('A' for Active; 'I' for Inactive)
REMARK    1  A    between atoms: O1_2  and  C2_3 
REMARK    2  A    between atoms: C2_3  and  C3_5 
REMARK    3  A    between atoms: C3_5  and  C5_7 
REMARK    4  A    between atoms: C7_9  and  C8_10 
REMARK    5  A    between atoms: C8_10  and  O3_11 
REMARK    6  A    between atoms: N1_13  and  O4_15 
REMARK       I    between atoms: N2_17  and  C9_18 
REMARK    7  A    between atoms: C9_18  and  C10_20 
REMARK    8  A    between atoms: C10_20  and  N3_23 
REMARK    9  A    between atoms: N3_23  and  N4_25 
REMARK   10  A    between atoms: N4_25  and  N5_26 
REMARK   11  A    between atoms: C14_30  and  C15_31 
REMARK   12  A    between atoms: C15_31  and  C16_32 
REMARK   13  A    between atoms: C16_32  and  C17_33 
REMARK   14  A    between atoms: C17_33  and  C18_34 
REMARK   15  A    between atoms: C21_37  and  S1_38 
REMARK   16  A    between atoms: S1_38  and  C22_39 
REMARK   17  A    between atoms: C22_39  and  C23_40 
ROOT
HETATM    1  C5  UNL     1      18.429  30.715  31.602  1.00  0.00     0.015 C 
HETATM    2  C6  UNL     1      18.654  30.699  32.894  1.00  0.00     0.037 C 
HETATM    3  C7  UNL     1      19.888  30.152  33.628  1.00  0.00     0.215 C 
HETATM    4  N2  UNL     1      20.086  31.346  34.492  1.00  0.00    -0.310 N 
HETATM    5  C9  UNL     1      21.394  31.772  34.812  1.00  0.00     0.252 C 
HETATM    6  O5  UNL     1      22.361  30.991  34.462  1.00  0.00    -0.270 OA
HETATM    7  C13 UNL     1      18.818  31.859  34.883  1.00  0.00     0.196 C 
HETATM    8  C14 UNL     1      17.971  31.255  35.925  1.00  0.00     0.046 C 
HETATM    9  C27 UNL     1      16.790  31.540  34.897  1.00  0.00     0.133 C 
HETATM   10  N6  UNL     1      17.837  31.164  33.935  1.00  0.00    -0.360 N 
ENDROOT
BRANCH   8  11
HETATM   11  C15 UNL     1      17.571  31.886  37.187  1.00  0.00     0.010 C 
BRANCH  11  12
HETATM   12  C16 UNL     1      16.799  33.153  37.157  1.00  0.00     0.005 C 
BRANCH  12  13
HETATM   13  C17 UNL     1      15.681  33.093  38.184  1.00  0.00     0.038 C 
BRANCH  13  14
HETATM   14  C18 UNL     1      16.042  33.652  39.490  1.00  0.00    -0.058 A 
HETATM   15  C19 UNL     1      15.451  33.156  40.629  1.00  0.00     0.008 A 
HETATM   16  C20 UNL     1      15.804  33.703  41.853  1.00  0.00     0.019 A 
HETATM   17  C21 UNL     1      16.711  34.717  42.021  1.00  0.00     0.000 A 
HETATM   18  C25 UNL     1      17.307  35.213  40.849  1.00  0.00     0.019 A 
HETATM   19  C26 UNL     1      16.970  34.684  39.631  1.00  0.00     0.008 A 
BRANCH  17  20
HETATM   20  S1  UNL     1      17.125  35.443  43.587  1.00  0.00    -0.124 SA
BRANCH  20  21
HETATM   21  C22 UNL     1      16.003  36.667  44.200  1.00  0.00     0.158 C 
BRANCH  21  22
HETATM   22  C23 UNL     1      14.549  36.324  44.150  1.00  0.00     0.248 C 
HETATM   23  C24 UNL     1      13.708  37.329  44.931  1.00  0.00     0.091 C 
HETATM   24  F1  UNL     1      14.063  36.431  42.827  1.00  0.00    -0.206 F 
HETATM   25  F2  UNL     1      14.326  35.070  44.636  1.00  0.00    -0.206 F 
ENDBRANCH  21  22
ENDBRANCH  20  21
ENDBRANCH  17  20
ENDBRANCH  13  14
ENDBRANCH  12  13
ENDBRANCH  11  12
ENDBRANCH   8  11
BRANCH   3  26
HETATM   26  C8  UNL     1      20.955  29.893  32.692  1.00  0.00     0.165 C 
HETATM   27  N1  UNL     1      21.497  28.733  32.621  1.00  0.00    -0.249 N 
ATOM     28  H1  UNL     1      21.160  27.995  33.240  1.00  0.00     0.196 HD
BRANCH  26  29
HETATM   29  O3  UNL     1      21.420  30.883  31.849  1.00  0.00    -0.346 OA
ATOM     30  H3  UNL     1      21.011  31.040  31.006  1.00  0.00     0.219 HD
ENDBRANCH  26  29
BRANCH  27  31
HETATM   31  O4  UNL     1      22.503  28.448  31.755  1.00  0.00    -0.288 OA
ATOM     32  H4  UNL     1      22.351  28.284  30.831  1.00  0.00     0.244 HD
ENDBRANCH  27  31
ENDBRANCH   3  26
BRANCH   5  33
HETATM   33  C10 UNL     1      21.791  33.017  35.501  1.00  0.00     0.133 C 
HETATM   34  C11 UNL     1      23.291  32.987  35.762  1.00  0.00     0.051 C 
HETATM   35  C12 UNL     1      21.586  34.226  34.564  1.00  0.00     0.051 C 
BRANCH  33  36
HETATM   36  N3  UNL     1      21.081  33.326  36.690  1.00  0.00    -0.234 N 
ATOM     37  H3  UNL     1      20.711  32.540  37.223  1.00  0.00     0.198 HD
BRANCH  36  38
HETATM   38  N4  UNL     1      20.870  34.443  37.136  1.00  0.00    -0.247 NA
BRANCH  38  39
HETATM   39  N5  UNL     1      20.368  35.363  37.805  1.00  0.00    -0.261 N 
ATOM     40  H52 UNL     1      19.507  35.441  37.263  1.00  0.00     0.193 HD
ATOM     41  H51 UNL     1      20.252  36.077  38.525  1.00  0.00     0.193 HD
ENDBRANCH  38  39
ENDBRANCH  36  38
ENDBRANCH  33  36
ENDBRANCH   5  33
BRANCH   1  42
HETATM   42  C3  UNL     1      17.191  31.278  31.064  1.00  0.00     0.106 C 
HETATM   43  C4  UNL     1      17.399  32.014  29.753  1.00  0.00     0.025 C 
BRANCH  42  44
HETATM   44  C2  UNL     1      16.222  30.194  30.824  1.00  0.00     0.265 C 
HETATM   45  O2  UNL     1      15.119  30.458  30.248  1.00  0.00    -0.265 OA
BRANCH  44  46
HETATM   46  O1  UNL     1      16.440  28.884  31.193  1.00  0.00    -0.326 OA
HETATM   47  C1  UNL     1      16.225  27.843  30.252  1.00  0.00     0.213 C 
ENDBRANCH  44  46
ENDBRANCH  42  44
ENDBRANCH   1  42
TORSDOF 17
ENDMDL
MODEL 4
REMARK VINA RESULT: -8.524975439      6.721     10.154
REMARK  17 active torsions:
REMARK  status: ('A' for Active; 'I' for Inactive)
REMARK    1  A    between atoms: O1_2  and  C2_3 
REMARK    2  A    between atoms: C2_3  and  C3_5 
REMARK    3  A    between atoms: C3_5  and  C5_7 
REMARK    4  A    between atoms: C7_9  and  C8_10 
REMARK    5  A    between atoms: C8_10  and  O3_11 
REMARK    6  A    between atoms: N1_13  and  O4_15 
REMARK       I    between atoms: N2_17  and  C9_18 
REMARK    7  A    between atoms: C9_18  and  C10_20 
REMARK    8  A    between atoms: C10_20  and  N3_23 
REMARK    9  A    between atoms: N3_23  and  N4_25 
REMARK   10  A    between atoms: N4_25  and  N5_26 
REMARK   11  A    between atoms: C14_30  and  C15_31 
REMARK   12  A    between atoms: C15_31  and  C16_32 
REMARK   13  A    between atoms: C16_32  and  C17_33 
REMARK   14  A    between atoms: C17_33  and  C18_34 
REMARK   15  A    between atoms: C21_37  and  S1_38 
REMARK   16  A    between atoms: S1_38  and  C22_39 
REMARK   17  A    between atoms: C22_39  and  C23_40 
ROOT
HETATM    1  C5  UNL     1      17.268  34.236  39.747  1.00  0.00     0.015 C 
HETATM    2  C6  UNL     1      17.266  34.005  38.456  1.00  0.00     0.037 C 
HETATM    3  C7  UNL     1      18.325  34.420  37.424  1.00  0.00     0.215 C 
HETATM    4  N2  UNL     1      18.431  33.085  36.778  1.00  0.00    -0.310 N 
HETATM    5  C9  UNL     1      19.684  32.625  36.315  1.00  0.00     0.252 C 
HETATM    6  O5  UNL     1      20.657  33.475  36.334  1.00  0.00    -0.270 OA
HETATM    7  C13 UNL     1      17.142  32.485  36.724  1.00  0.00     0.196 C 
HETATM    8  C14 UNL     1      16.099  32.862  35.756  1.00  0.00     0.046 C 
HETATM    9  C27 UNL     1      15.129  32.763  37.013  1.00  0.00     0.133 C 
HETATM   10  N6  UNL     1      16.306  33.334  37.685  1.00  0.00    -0.360 N 
ENDROOT
BRANCH   8  11
HETATM   11  C15 UNL     1      15.520  31.992  34.726  1.00  0.00     0.010 C 
BRANCH  11  12
HETATM   12  C16 UNL     1      16.216  31.837  33.426  1.00  0.00     0.005 C 
BRANCH  12  13
HETATM   13  C17 UNL     1      16.185  30.379  33.001  1.00  0.00     0.038 C 
BRANCH  13  14
HETATM   14  C18 UNL     1      16.569  30.158  31.604  1.00  0.00    -0.058 A 
HETATM   15  C19 UNL     1      17.205  31.159  30.906  1.00  0.00     0.008 A 
HETATM   16  C20 UNL     1      17.555  30.928  29.585  1.00  0.00     0.019 A 
HETATM   17  C21 UNL     1      17.315  29.762  28.907  1.00  0.00     0.000 A 
HETATM   18  C25 UNL     1      16.666  28.748  29.632  1.00  0.00     0.019 A 
HETATM   19  C26 UNL     1      16.312  28.958  30.939  1.00  0.00     0.008 A 
BRANCH  17  20
HETATM   20  S1  UNL     1      17.726  29.490  27.201  1.00  0.00    -0.124 SA
BRANCH  20  21
HETATM   21  C22 UNL     1      17.814  30.933  26.181  1.00  0.00     0.158 C 
BRANCH  21  22
HETATM   22  C23 UNL     1      16.534  31.670  25.955  1.00  0.00     0.248 C 
HETATM   23  C24 UNL     1      16.660  33.143  26.333  1.00  0.00     0.091 C 
HETATM   24  F1  UNL     1      16.219  31.700  24.577  1.00  0.00    -0.206 F 
HETATM   25  F2  UNL     1      15.514  31.106  26.661  1.00  0.00    -0.206 F 
ENDBRANCH  21  22
ENDBRANCH  20  21
ENDBRANCH  17  20
ENDBRANCH  13  14
ENDBRANCH  12  13
ENDBRANCH  11  12
ENDBRANCH   8  11
BRANCH   3  26
HETATM   26  C8  UNL     1      19.524  34.872  38.089  1.00  0.00     0.165 C 
HETATM   27  N1  UNL     1      20.094  34.146  38.979  1.00  0.00    -0.249 N 
ATOM     28  H1  UNL     1      19.684  33.241  39.208  1.00  0.00     0.196 HD
BRANCH  26  29
HETATM   29  O3  UNL     1      20.088  36.095  37.785  1.00  0.00    -0.346 OA
ATOM     30  H3  UNL     1      20.809  36.443  38.297  1.00  0.00     0.219 HD
ENDBRANCH  26  29
BRANCH  27  31
HETATM   31  O4  UNL     1      21.222  34.535  39.626  1.00  0.00    -0.288 OA
ATOM     32  H4  UNL     1      21.290  34.544  40.574  1.00  0.00     0.244 HD
ENDBRANCH  27  31
ENDBRANCH   3  26
BRANCH   5  33
HETATM   33  C10 UNL     1      20.018  31.277  35.813  1.00  0.00     0.133 C 
HETATM   34  C11 UNL     1      21.531  31.154  35.678  1.00  0.00     0.051 C 
HETATM   35  C12 UNL     1      19.636  30.213  36.864  1.00  0.00     0.051 C 
BRANCH  33  36
HETATM   36  N3  UNL     1      19.375  30.881  34.612  1.00  0.00    -0.234 N 
ATOM     37  H3  UNL     1      18.429  31.231  34.459  1.00  0.00     0.198 HD
BRANCH  36  38
HETATM   38  N4  UNL     1      19.843  30.162  33.745  1.00  0.00    -0.247 NA
BRANCH  38  39
HETATM   39  N5  UNL     1      19.921  29.439  32.734  1.00  0.00    -0.261 N 
ATOM     40  H52 UNL     1      19.748  28.555  33.214  1.00  0.00     0.193 HD
ATOM     41  H51 UNL     1      20.041  29.154  31.762  1.00  0.00     0.193 HD
ENDBRANCH  38  39
ENDBRANCH  36  38
ENDBRANCH  33  36
ENDBRANCH   5  33
BRANCH   1  42
HETATM   42  C3  UNL     1      16.171  33.768  40.594  1.00  0.00     0.106 C 
HETATM   43  C4  UNL     1      16.638  32.857  41.714  1.00  0.00     0.025 C 
BRANCH  42  44
HETATM   44  C2  UNL     1      15.494  34.925  41.206  1.00  0.00     0.265 C 
HETATM   45  O2  UNL     1      14.485  35.439  40.627  1.00  0.00    -0.265 OA
BRANCH  44  46
HETATM   46  O1  UNL     1      15.895  35.499  42.393  1.00  0.00    -0.326 OA
HETATM   47  C1  UNL     1      14.999  35.541  43.494  1.00  0.00     0.213 C 
ENDBRANCH  44  46
ENDBRANCH  42  44
ENDBRANCH   1  42
TORSDOF 17
ENDMDL
MODEL 5
REMARK VINA RESULT: -8.451762824      2.889      6.391
REMARK  17 active torsions:
REMARK  status: ('A' for Active; 'I' for Inactive)
REMARK    1  A    between atoms: O1_2  and  C2_3 
REMARK    2  A    between atoms: C2_3  and  C3_5 
REMARK    3  A    between atoms: C3_5  and  C5_7 
REMARK    4  A    between atoms: C7_9  and  C8_10 
REMARK    5  A    between atoms: C8_10  and  O3_11 
REMARK    6  A    between atoms: N1_13  and  O4_15 
REMARK       I    between atoms: N2_17  and  C9_18 
REMARK    7  A    between atoms: C9_18  and  C10_20 
REMARK    8  A    between atoms: C10_20  and  N3_23 
REMARK    9  A    between atoms: N3_23  and  N4_25 
REMARK   10  A    between atoms: N4_25  and  N5_26 
REMARK   11  A    between atoms: C14_30  and  C15_31 
REMARK   12  A    between atoms: C15_31  and  C16_32 
REMARK   13  A    between atoms: C16_32  and  C17_33 
REMARK   14  A    between atoms: C17_33  and  C18_34 
REMARK   15  A    between atoms: C21_37  and  S1_38 
REMARK   16  A    between atoms: S1_38  and  C22_39 
REMARK   17  A    between atoms: C22_39  and  C23_40 
ROOT
HETATM    1  C5  UNL     1      18.013  31.086  31.345  1.00  0.00     0.015 C 
HETATM    2  C6  UNL     1      17.934  31.061  32.653  1.00  0.00     0.037 C 
HETATM    3  C7  UNL     1      19.012  30.617  33.653  1.00  0.00     0.215 C 
HETATM    4  N2  UNL     1      18.887  31.803  34.541  1.00  0.00    -0.310 N 
HETATM    5  C9  UNL     1      20.037  32.344  35.157  1.00  0.00     0.252 C 
HETATM    6  O5  UNL     1      21.131  31.668  35.040  1.00  0.00    -0.270 OA
HETATM    7  C13 UNL     1      17.518  32.183  34.627  1.00  0.00     0.196 C 
HETATM    8  C14 UNL     1      16.518  31.477  35.443  1.00  0.00     0.046 C 
HETATM    9  C27 UNL     1      15.584  31.672  34.169  1.00  0.00     0.133 C 
HETATM   10  N6  UNL     1      16.857  31.421  33.476  1.00  0.00    -0.360 N 
ENDROOT
BRANCH   8  11
HETATM   11  C15 UNL     1      15.777  32.037  36.578  1.00  0.00     0.010 C 
BRANCH  11  12
HETATM   12  C16 UNL     1      16.508  32.412  37.813  1.00  0.00     0.005 C 
BRANCH  12  13
HETATM   13  C17 UNL     1      16.299  33.889  38.100  1.00  0.00     0.038 C 
BRANCH  13  14
HETATM   14  C18 UNL     1      16.425  34.244  39.517  1.00  0.00    -0.058 A 
HETATM   15  C19 UNL     1      15.293  34.374  40.288  1.00  0.00     0.008 A 
HETATM   16  C20 UNL     1      15.436  34.713  41.625  1.00  0.00     0.019 A 
HETATM   17  C21 UNL     1      16.636  34.935  42.249  1.00  0.00     0.000 A 
HETATM   18  C25 UNL     1      17.783  34.798  41.449  1.00  0.00     0.019 A 
HETATM   19  C26 UNL     1      17.661  34.462  40.126  1.00  0.00     0.008 A 
BRANCH  17  20
HETATM   20  S1  UNL     1      16.809  35.414  43.950  1.00  0.00    -0.124 SA
BRANCH  20  21
HETATM   21  C22 UNL     1      15.307  35.766  44.817  1.00  0.00     0.158 C 
BRANCH  21  22
HETATM   22  C23 UNL     1      14.809  37.173  44.747  1.00  0.00     0.248 C 
HETATM   23  C24 UNL     1      13.540  37.277  43.906  1.00  0.00     0.091 C 
HETATM   24  F1  UNL     1      14.404  37.617  46.027  1.00  0.00    -0.206 F 
HETATM   25  F2  UNL     1      15.761  38.003  44.237  1.00  0.00    -0.206 F 
ENDBRANCH  21  22
ENDBRANCH  20  21
ENDBRANCH  17  20
ENDBRANCH  13  14
ENDBRANCH  12  13
ENDBRANCH  11  12
ENDBRANCH   8  11
BRANCH   3  26
HETATM   26  C8  UNL     1      20.287  30.483  32.990  1.00  0.00     0.165 C 
HETATM   27  N1  UNL     1      20.979  29.410  33.111  1.00  0.00    -0.249 N 
ATOM     28  H1  UNL     1      20.611  28.652  33.685  1.00  0.00     0.196 HD
BRANCH  26  29
HETATM   29  O3  UNL     1      20.794  31.502  32.210  1.00  0.00    -0.346 OA
ATOM     30  H3  UNL     1      20.827  31.425  31.264  1.00  0.00     0.219 HD
ENDBRANCH  26  29
BRANCH  27  31
HETATM   31  O4  UNL     1      22.182  29.244  32.504  1.00  0.00    -0.288 OA
ATOM     32  H4  UNL     1      22.477  28.404  32.174  1.00  0.00     0.244 HD
ENDBRANCH  27  31
ENDBRANCH   3  26
BRANCH   5  33
HETATM   33  C10 UNL     1      20.140  33.605  35.920  1.00  0.00     0.133 C 
HETATM   34  C11 UNL     1      18.915  34.464  35.633  1.00  0.00     0.051 C 
HETATM   35  C12 UNL     1      20.061  33.313  37.433  1.00  0.00     0.051 C 
BRANCH  33  36
HETATM   36  N3  UNL     1      21.331  34.352  35.733  1.00  0.00    -0.234 N 
ATOM     37  H3  UNL     1      21.581  34.588  34.773  1.00  0.00     0.198 HD
BRANCH  36  38
HETATM   38  N4  UNL     1      22.085  34.741  36.610  1.00  0.00    -0.247 NA
BRANCH  38  39
HETATM   39  N5  UNL     1      22.798  35.496  37.296  1.00  0.00    -0.261 N 
ATOM     40  H52 UNL     1      22.361  36.368  36.995  1.00  0.00     0.193 HD
ATOM     41  H51 UNL     1      23.516  35.812  37.947  1.00  0.00     0.193 HD
ENDBRANCH  38  39
ENDBRANCH  36  38
ENDBRANCH  33  36
ENDBRANCH   5  33
BRANCH   1  42
HETATM   42  C3  UNL     1      16.884  31.542  30.534  1.00  0.00     0.106 C 
HETATM   43  C4  UNL     1      17.317  32.278  29.280  1.00  0.00     0.025 C 
BRANCH  42  44
HETATM   44  C2  UNL     1      16.077  30.380  30.119  1.00  0.00     0.265 C 
HETATM   45  O2  UNL     1      14.808  30.461  30.138  1.00  0.00    -0.265 OA
BRANCH  44  46
HETATM   46  O1  UNL     1      16.623  29.186  29.701  1.00  0.00    -0.326 OA
HETATM   47  C1  UNL     1      16.164  27.966  30.265  1.00  0.00     0.213 C 
ENDBRANCH  44  46
ENDBRANCH  42  44
ENDBRANCH   1  42
TORSDOF 17
ENDMDL
