MODEL 1
REMARK VINA RESULT: -11.034437430      0.000      0.000
REMARK  5 active torsions:
REMARK  status: ('A' for Active; 'I' for Inactive)
REMARK    1  A    between atoms: C2_2  and  N1_3 
REMARK    2  A    between atoms: C3_6  and  C4_7 
REMARK    3  A    between atoms: C4_7  and  O1_8 
REMARK    4  A    between atoms: C4_7  and  C5_10 
REMARK    5  A    between atoms: C8_13  and  C9_14 
ROOT
HETATM    1  N1  UNL     1      89.145   2.412  62.158  1.00  0.00    -0.275 N 
HETATM    2  N2  UNL     1      88.797   2.487  60.848  1.00  0.00    -0.283 N 
ATOM      3  H2  UNL     1      89.390   2.873  60.114  1.00  0.00     0.188 HD
HETATM    4  C3  UNL     1      87.580   1.989  60.651  1.00  0.00     0.131 A 
HETATM    5  N3  UNL     1      87.155   1.596  61.844  1.00  0.00    -0.327 N 
ATOM      6  H3  UNL     1      86.249   1.167  62.035  1.00  0.00     0.169 HD
HETATM    7  C17 UNL     1      88.123   1.855  62.784  1.00  0.00     0.134 A 
HETATM    8  C18 UNL     1      87.882   1.547  64.176  1.00  0.00     0.010 A 
HETATM    9  C19 UNL     1      88.797   1.627  65.180  1.00  0.00     0.018 A 
HETATM   10  C20 UNL     1      88.480   1.345  66.526  1.00  0.00     0.043 A 
HETATM   11  C21 UNL     1      87.210   0.974  66.876  1.00  0.00     0.116 A 
HETATM   12  F2  UNL     1      86.948   0.712  68.182  1.00  0.00    -0.206 F 
HETATM   13  C22 UNL     1      86.270   0.884  65.890  1.00  0.00     0.043 A 
HETATM   14  C23 UNL     1      86.590   1.160  64.583  1.00  0.00     0.018 A 
ENDROOT
BRANCH   4  15
HETATM   15  C4  UNL     1      86.814   1.877  59.361  1.00  0.00     0.220 C 
BRANCH  15  16
HETATM   16  O1  UNL     1      87.384   2.718  58.407  1.00  0.00    -0.383 OA
ATOM     17  H1  UNL     1      87.273   3.623  58.674  1.00  0.00     0.211 HD
ENDBRANCH  15  16
BRANCH  15  18
HETATM   18  C5  UNL     1      85.450   2.393  59.641  1.00  0.00    -0.022 A 
HETATM   19  C6  UNL     1      84.410   1.861  58.910  1.00  0.00     0.011 A 
HETATM   20  C7  UNL     1      83.124   2.301  59.128  1.00  0.00     0.013 A 
HETATM   21  C8  UNL     1      82.819   3.269  60.062  1.00  0.00    -0.023 A 
HETATM   22  C15 UNL     1      83.898   3.778  60.777  1.00  0.00     0.013 A 
HETATM   23  C16 UNL     1      85.175   3.349  60.569  1.00  0.00     0.011 A 
BRANCH  21  24
HETATM   24  C9  UNL     1      81.455   3.739  60.298  1.00  0.00     0.013 A 
HETATM   25  C10 UNL     1      80.604   2.990  61.094  1.00  0.00     0.015 A 
HETATM   26  C11 UNL     1      79.327   3.451  61.303  1.00  0.00     0.001 A 
HETATM   27  C12 UNL     1      78.844   4.627  60.761  1.00  0.00     0.003 A 
HETATM   28  C13 UNL     1      79.691   5.364  59.975  1.00  0.00     0.043 A 
HETATM   29  C14 UNL     1      80.989   4.922  59.746  1.00  0.00     0.127 A 
HETATM   30  F1  UNL     1      81.798   5.688  58.957  1.00  0.00    -0.205 F 
ENDBRANCH  21  24
ENDBRANCH  15  18
ENDBRANCH   4  15
BRANCH   1  31
HETATM   31  C2  UNL     1      90.428   2.892  62.660  1.00  0.00     0.146 C 
HETATM   32  C1  UNL     1      91.477   1.822  62.733  1.00  0.00     0.028 C 
ENDBRANCH   1  31
TORSDOF 5
ENDMDL
MODEL 2
REMARK VINA RESULT: -10.860750805      0.899      1.255
REMARK  5 active torsions:
REMARK  status: ('A' for Active; 'I' for Inactive)
REMARK    1  A    between atoms: C2_2  and  N1_3 
REMARK    2  A    between atoms: C3_6  and  C4_7 
REMARK    3  A    between atoms: C4_7  and  O1_8 
REMARK    4  A    between atoms: C4_7  and  C5_10 
REMARK    5  A    between atoms: C8_13  and  C9_14 
ROOT
HETATM    1  N1  UNL     1      89.175   2.393  62.207  1.00  0.00    -0.275 N 
HETATM    2  N2  UNL     1      88.817   2.494  60.901  1.00  0.00    -0.283 N 
ATOM      3  H2  UNL     1      89.408   2.889  60.169  1.00  0.00     0.188 HD
HETATM    4  C3  UNL     1      87.594   2.009  60.706  1.00  0.00     0.131 A 
HETATM    5  N3  UNL     1      87.176   1.598  61.896  1.00  0.00    -0.327 N 
ATOM      6  H3  UNL     1      86.269   1.173  62.087  1.00  0.00     0.169 HD
HETATM    7  C17 UNL     1      88.155   1.834  62.831  1.00  0.00     0.134 A 
HETATM    8  C18 UNL     1      87.923   1.503  64.220  1.00  0.00     0.010 A 
HETATM    9  C19 UNL     1      88.846   1.558  65.218  1.00  0.00     0.018 A 
HETATM   10  C20 UNL     1      88.538   1.255  66.561  1.00  0.00     0.043 A 
HETATM   11  C21 UNL     1      87.268   0.887  66.915  1.00  0.00     0.116 A 
HETATM   12  F2  UNL     1      87.015   0.605  68.218  1.00  0.00    -0.206 F 
HETATM   13  C22 UNL     1      86.319   0.822  65.935  1.00  0.00     0.043 A 
HETATM   14  C23 UNL     1      86.630   1.119  64.631  1.00  0.00     0.018 A 
ENDROOT
BRANCH   4  15
HETATM   15  C4  UNL     1      86.817   1.926  59.421  1.00  0.00     0.220 C 
BRANCH  15  16
HETATM   16  O1  UNL     1      87.387   2.778  58.476  1.00  0.00    -0.383 OA
ATOM     17  H1  UNL     1      88.192   2.396  58.149  1.00  0.00     0.211 HD
ENDBRANCH  15  16
BRANCH  15  18
HETATM   18  C5  UNL     1      85.460   2.448  59.721  1.00  0.00    -0.022 A 
HETATM   19  C6  UNL     1      84.409   1.930  58.997  1.00  0.00     0.011 A 
HETATM   20  C7  UNL     1      83.128   2.377  59.233  1.00  0.00     0.013 A 
HETATM   21  C8  UNL     1      82.840   3.339  60.179  1.00  0.00    -0.023 A 
HETATM   22  C15 UNL     1      83.931   3.834  60.886  1.00  0.00     0.013 A 
HETATM   23  C16 UNL     1      85.202   3.398  60.660  1.00  0.00     0.011 A 
BRANCH  21  24
HETATM   24  C9  UNL     1      81.483   3.816  60.434  1.00  0.00     0.013 A 
HETATM   25  C10 UNL     1      80.996   4.900  59.722  1.00  0.00     0.015 A 
HETATM   26  C11 UNL     1      79.717   5.331  59.978  1.00  0.00     0.001 A 
HETATM   27  C12 UNL     1      78.886   4.740  60.911  1.00  0.00     0.003 A 
HETATM   28  C13 UNL     1      79.374   3.667  61.612  1.00  0.00     0.043 A 
HETATM   29  C14 UNL     1      80.664   3.209  61.373  1.00  0.00     0.127 A 
HETATM   30  F1  UNL     1      81.109   2.139  62.095  1.00  0.00    -0.205 F 
ENDBRANCH  21  24
ENDBRANCH  15  18
ENDBRANCH   4  15
BRANCH   1  31
HETATM   31  C2  UNL     1      90.466   2.855  62.707  1.00  0.00     0.146 C 
HETATM   32  C1  UNL     1      91.512   1.780  62.736  1.00  0.00     0.028 C 
ENDBRANCH   1  31
TORSDOF 5
ENDMDL
MODEL 3
REMARK VINA RESULT: -10.259430583      3.186      8.293
REMARK  5 active torsions:
REMARK  status: ('A' for Active; 'I' for Inactive)
REMARK    1  A    between atoms: C2_2  and  N1_3 
REMARK    2  A    between atoms: C3_6  and  C4_7 
REMARK    3  A    between atoms: C4_7  and  O1_8 
REMARK    4  A    between atoms: C4_7  and  C5_10 
REMARK    5  A    between atoms: C8_13  and  C9_14 
ROOT
HETATM    1  N1  UNL     1      81.183   4.867  60.904  1.00  0.00    -0.275 N 
HETATM    2  N2  UNL     1      82.305   4.734  60.152  1.00  0.00    -0.283 N 
ATOM      3  H2  UNL     1      82.948   5.495  59.934  1.00  0.00     0.188 HD
HETATM    4  C3  UNL     1      82.453   3.479  59.738  1.00  0.00     0.131 A 
HETATM    5  N3  UNL     1      81.418   2.813  60.232  1.00  0.00    -0.327 N 
ATOM      6  H3  UNL     1      81.237   1.818  60.095  1.00  0.00     0.169 HD
HETATM    7  C17 UNL     1      80.626   3.670  60.958  1.00  0.00     0.134 A 
HETATM    8  C18 UNL     1      79.409   3.186  61.572  1.00  0.00     0.010 A 
HETATM    9  C19 UNL     1      78.612   3.888  62.422  1.00  0.00     0.018 A 
HETATM   10  C20 UNL     1      77.415   3.364  62.955  1.00  0.00     0.043 A 
HETATM   11  C21 UNL     1      77.006   2.099  62.627  1.00  0.00     0.116 A 
HETATM   12  F2  UNL     1      75.848   1.634  63.162  1.00  0.00    -0.206 F 
HETATM   13  C22 UNL     1      77.787   1.369  61.777  1.00  0.00     0.043 A 
HETATM   14  C23 UNL     1      78.949   1.890  61.263  1.00  0.00     0.018 A 
ENDROOT
BRANCH   4  15
HETATM   15  C4  UNL     1      83.550   2.899  58.889  1.00  0.00     0.220 C 
BRANCH  15  16
HETATM   16  O1  UNL     1      83.149   1.660  58.392  1.00  0.00    -0.383 OA
ATOM     17  H1  UNL     1      83.863   1.267  57.904  1.00  0.00     0.211 HD
ENDBRANCH  15  16
BRANCH  15  18
HETATM   18  C5  UNL     1      84.697   2.656  59.799  1.00  0.00    -0.022 A 
HETATM   19  C6  UNL     1      85.567   3.702  60.014  1.00  0.00     0.011 A 
HETATM   20  C7  UNL     1      86.648   3.535  60.850  1.00  0.00     0.013 A 
HETATM   21  C8  UNL     1      86.909   2.344  61.495  1.00  0.00    -0.023 A 
HETATM   22  C15 UNL     1      86.005   1.315  61.251  1.00  0.00     0.013 A 
HETATM   23  C16 UNL     1      84.933   1.471  60.426  1.00  0.00     0.011 A 
BRANCH  21  24
HETATM   24  C9  UNL     1      88.055   2.160  62.385  1.00  0.00     0.013 A 
HETATM   25  C10 UNL     1      89.338   2.285  61.877  1.00  0.00     0.015 A 
HETATM   26  C11 UNL     1      90.399   2.109  62.731  1.00  0.00     0.001 A 
HETATM   27  C12 UNL     1      90.257   1.814  64.074  1.00  0.00     0.003 A 
HETATM   28  C13 UNL     1      88.984   1.693  64.570  1.00  0.00     0.043 A 
HETATM   29  C14 UNL     1      87.891   1.866  63.729  1.00  0.00     0.127 A 
HETATM   30  F1  UNL     1      86.642   1.736  64.265  1.00  0.00    -0.205 F 
ENDBRANCH  21  24
ENDBRANCH  15  18
ENDBRANCH   4  15
BRANCH   1  31
HETATM   31  C2  UNL     1      80.771   6.140  61.485  1.00  0.00     0.146 C 
HETATM   32  C1  UNL     1      81.592   6.547  62.672  1.00  0.00     0.028 C 
ENDBRANCH   1  31
TORSDOF 5
ENDMDL
MODEL 4
REMARK VINA RESULT: -10.255268741      3.301      8.016
REMARK  5 active torsions:
REMARK  status: ('A' for Active; 'I' for Inactive)
REMARK    1  A    between atoms: C2_2  and  N1_3 
REMARK    2  A    between atoms: C3_6  and  C4_7 
REMARK    3  A    between atoms: C4_7  and  O1_8 
REMARK    4  A    between atoms: C4_7  and  C5_10 
REMARK    5  A    between atoms: C8_13  and  C9_14 
ROOT
HETATM    1  N1  UNL     1      80.781   4.394  59.777  1.00  0.00    -0.275 N 
HETATM    2  N2  UNL     1      81.845   4.162  58.966  1.00  0.00    -0.283 N 
ATOM      3  H2  UNL     1      82.099   4.742  58.167  1.00  0.00     0.188 HD
HETATM    4  C3  UNL     1      82.509   3.077  59.355  1.00  0.00     0.131 A 
HETATM    5  N3  UNL     1      81.862   2.621  60.418  1.00  0.00    -0.327 N 
ATOM      6  H3  UNL     1      82.121   1.793  60.955  1.00  0.00     0.169 HD
HETATM    7  C17 UNL     1      80.788   3.435  60.685  1.00  0.00     0.134 A 
HETATM    8  C18 UNL     1      79.900   3.125  61.784  1.00  0.00     0.010 A 
HETATM    9  C19 UNL     1      78.888   3.912  62.238  1.00  0.00     0.018 A 
HETATM   10  C20 UNL     1      78.035   3.527  63.294  1.00  0.00     0.043 A 
HETATM   11  C21 UNL     1      78.200   2.317  63.913  1.00  0.00     0.116 A 
HETATM   12  F2  UNL     1      77.358   1.986  64.924  1.00  0.00    -0.206 F 
HETATM   13  C22 UNL     1      79.209   1.505  63.480  1.00  0.00     0.043 A 
HETATM   14  C23 UNL     1      80.033   1.890  62.451  1.00  0.00     0.018 A 
ENDROOT
BRANCH   4  15
HETATM   15  C4  UNL     1      83.741   2.467  58.743  1.00  0.00     0.220 C 
BRANCH  15  16
HETATM   16  O1  UNL     1      83.428   1.214  58.219  1.00  0.00    -0.383 OA
ATOM     17  H1  UNL     1      84.133   0.607  58.407  1.00  0.00     0.211 HD
ENDBRANCH  15  16
BRANCH  15  18
HETATM   18  C5  UNL     1      84.696   2.250  59.858  1.00  0.00    -0.022 A 
HETATM   19  C6  UNL     1      85.242   3.368  60.449  1.00  0.00     0.011 A 
HETATM   20  C7  UNL     1      86.133   3.227  61.489  1.00  0.00     0.013 A 
HETATM   21  C8  UNL     1      86.515   1.995  61.977  1.00  0.00    -0.023 A 
HETATM   22  C15 UNL     1      85.940   0.894  61.351  1.00  0.00     0.013 A 
HETATM   23  C16 UNL     1      85.057   1.023  60.322  1.00  0.00     0.011 A 
BRANCH  21  24
HETATM   24  C9  UNL     1      87.461   1.839  63.081  1.00  0.00     0.013 A 
HETATM   25  C10 UNL     1      86.999   1.422  64.319  1.00  0.00     0.015 A 
HETATM   26  C11 UNL     1      87.905   1.281  65.342  1.00  0.00     0.001 A 
HETATM   27  C12 UNL     1      89.257   1.535  65.203  1.00  0.00     0.003 A 
HETATM   28  C13 UNL     1      89.707   1.947  63.974  1.00  0.00     0.043 A 
HETATM   29  C14 UNL     1      88.812   2.097  62.922  1.00  0.00     0.127 A 
HETATM   30  F1  UNL     1      89.304   2.511  61.717  1.00  0.00    -0.205 F 
ENDBRANCH  21  24
ENDBRANCH  15  18
ENDBRANCH   4  15
BRANCH   1  31
HETATM   31  C2  UNL     1      79.871   5.517  59.579  1.00  0.00     0.146 C 
HETATM   32  C1  UNL     1      80.005   6.161  58.231  1.00  0.00     0.028 C 
ENDBRANCH   1  31
TORSDOF 5
ENDMDL
MODEL 5
REMARK VINA RESULT: -10.139611475      3.042      7.774
REMARK  5 active torsions:
REMARK  status: ('A' for Active; 'I' for Inactive)
REMARK    1  A    between atoms: C2_2  and  N1_3 
REMARK    2  A    between atoms: C3_6  and  C4_7 
REMARK    3  A    between atoms: C4_7  and  O1_8 
REMARK    4  A    between atoms: C4_7  and  C5_10 
REMARK    5  A    between atoms: C8_13  and  C9_14 
ROOT
HETATM    1  N1  UNL     1      81.173   4.189  60.100  1.00  0.00    -0.275 N 
HETATM    2  N2  UNL     1      82.131   4.030  59.152  1.00  0.00    -0.283 N 
ATOM      3  H2  UNL     1      82.204   4.591  58.303  1.00  0.00     0.188 HD
HETATM    4  C3  UNL     1      82.962   3.044  59.479  1.00  0.00     0.131 A 
HETATM    5  N3  UNL     1      82.527   2.577  60.641  1.00  0.00    -0.327 N 
ATOM      6  H3  UNL     1      82.951   1.811  61.165  1.00  0.00     0.169 HD
HETATM    7  C17 UNL     1      81.416   3.285  61.032  1.00  0.00     0.134 A 
HETATM    8  C18 UNL     1      80.732   2.940  62.260  1.00  0.00     0.010 A 
HETATM    9  C19 UNL     1      79.712   3.639  62.827  1.00  0.00     0.018 A 
HETATM   10  C20 UNL     1      79.065   3.220  64.009  1.00  0.00     0.043 A 
HETATM   11  C21 UNL     1      79.452   2.069  64.641  1.00  0.00     0.116 A 
HETATM   12  F2  UNL     1      78.803   1.704  65.775  1.00  0.00    -0.206 F 
HETATM   13  C22 UNL     1      80.474   1.347  64.095  1.00  0.00     0.043 A 
HETATM   14  C23 UNL     1      81.097   1.763  62.944  1.00  0.00     0.018 A 
ENDROOT
BRANCH   4  15
HETATM   15  C4  UNL     1      84.155   2.537  58.716  1.00  0.00     0.220 C 
BRANCH  15  16
HETATM   16  O1  UNL     1      83.915   1.232  58.289  1.00  0.00    -0.383 OA
ATOM     17  H1  UNL     1      84.736   0.758  58.241  1.00  0.00     0.211 HD
ENDBRANCH  15  16
BRANCH  15  18
HETATM   18  C5  UNL     1      85.277   2.481  59.687  1.00  0.00    -0.022 A 
HETATM   19  C6  UNL     1      85.725   1.235  60.064  1.00  0.00     0.011 A 
HETATM   20  C7  UNL     1      86.763   1.122  60.961  1.00  0.00     0.013 A 
HETATM   21  C8  UNL     1      87.388   2.220  61.514  1.00  0.00    -0.023 A 
HETATM   22  C15 UNL     1      86.904   3.458  61.106  1.00  0.00     0.013 A 
HETATM   23  C16 UNL     1      85.878   3.580  60.218  1.00  0.00     0.011 A 
BRANCH  21  24
HETATM   24  C9  UNL     1      88.492   2.107  62.467  1.00  0.00     0.013 A 
HETATM   25  C10 UNL     1      89.790   2.325  62.034  1.00  0.00     0.015 A 
HETATM   26  C11 UNL     1      90.811   2.213  62.947  1.00  0.00     0.001 A 
HETATM   27  C12 UNL     1      90.613   1.896  64.277  1.00  0.00     0.003 A 
HETATM   28  C13 UNL     1      89.325   1.683  64.699  1.00  0.00     0.043 A 
HETATM   29  C14 UNL     1      88.273   1.789  63.797  1.00  0.00     0.127 A 
HETATM   30  F1  UNL     1      87.007   1.567  64.260  1.00  0.00    -0.205 F 
ENDBRANCH  21  24
ENDBRANCH  15  18
ENDBRANCH   4  15
BRANCH   1  31
HETATM   31  C2  UNL     1      80.123   5.198  59.996  1.00  0.00     0.146 C 
HETATM   32  C1  UNL     1      80.031   5.823  58.636  1.00  0.00     0.028 C 
ENDBRANCH   1  31
TORSDOF 5
ENDMDL
