MODEL 1
REMARK VINA RESULT: -7.192964182      0.000      0.000
REMARK  10 active torsions:
REMARK  status: ('A' for Active; 'I' for Inactive)
REMARK    1  A    between atoms: C3_3  and  C5_5 
REMARK    2  A    between atoms: C5_5  and  O2_7 
REMARK    3  A    between atoms: O2_7  and  C6_8 
REMARK    4  A    between atoms: C6_8  and  C8_10 
REMARK    5  A    between atoms: C8_10  and  O4_12 
REMARK    6  A    between atoms: O4_12  and  C9_13 
REMARK    7  A    between atoms: C9_13  and  C10_14 
REMARK    8  A    between atoms: C16_20  and  O5_21 
REMARK    9  A    between atoms: O5_21  and  C17_22 
REMARK   10  A    between atoms: C19_25  and  O7_26 
ROOT
HETATM    1  C10 UNL     1      22.254  32.101  19.999  1.00  0.00     0.010 C 
HETATM    2  C11 UNL     1      21.864  31.388  21.274  1.00  0.00     0.020 C 
HETATM    3  C12 UNL     1      22.318  33.562  20.290  1.00  0.00    -0.006 C 
HETATM    4  C13 UNL     1      22.191  34.416  19.036  1.00  0.00     0.011 C 
HETATM    5  C14 UNL     1      23.525  34.011  21.033  1.00  0.00     0.008 C 
HETATM    6  C15 UNL     1      24.485  32.901  21.360  1.00  0.00     0.035 C 
HETATM    7  C16 UNL     1      24.776  32.022  20.151  1.00  0.00     0.161 C 
HETATM    8  C19 UNL     1      23.536  31.496  19.505  1.00  0.00     0.158 C 
ENDROOT
BRANCH   1   9
HETATM    9  C9  UNL     1      21.194  31.811  18.956  1.00  0.00     0.191 C 
BRANCH   9  10
HETATM   10  O4  UNL     1      21.784  31.489  17.704  1.00  0.00    -0.319 OA
BRANCH  10  11
HETATM   11  C8  UNL     1      21.231  30.580  16.858  1.00  0.00     0.288 C 
HETATM   12  O3  UNL     1      20.089  30.819  16.378  1.00  0.00    -0.262 OA
BRANCH  11  13
HETATM   13  C6  UNL     1      21.972  29.318  16.506  1.00  0.00     0.227 C 
HETATM   14  C7  UNL     1      23.278  29.689  15.836  1.00  0.00     0.051 C 
BRANCH  13  15
HETATM   15  O2  UNL     1      22.252  28.549  17.641  1.00  0.00    -0.302 OA
BRANCH  15  16
HETATM   16  C5  UNL     1      21.518  27.429  18.022  1.00  0.00     0.289 C 
HETATM   17  O1  UNL     1      21.526  26.470  17.210  1.00  0.00    -0.260 OA
BRANCH  16  18
HETATM   18  C3  UNL     1      20.782  27.353  19.270  1.00  0.00     0.009 C 
HETATM   19  C2  UNL     1      20.694  26.240  19.960  1.00  0.00    -0.018 C 
HETATM   20  C1  UNL     1      19.940  26.172  21.230  1.00  0.00     0.036 C 
HETATM   21  C4  UNL     1      20.111  28.568  19.776  1.00  0.00     0.054 C 
ENDBRANCH  16  18
ENDBRANCH  15  16
ENDBRANCH  13  15
ENDBRANCH  11  13
ENDBRANCH  10  11
ENDBRANCH   9  10
ENDBRANCH   1   9
BRANCH   8  22
HETATM   22  O7  UNL     1      23.399  30.112  19.671  1.00  0.00    -0.392 OA
ATOM     23  H7  UNL     1      24.276  29.778  19.819  1.00  0.00     0.210 HD
ENDBRANCH   8  22
BRANCH   7  24
HETATM   24  O5  UNL     1      25.697  32.608  19.289  1.00  0.00    -0.314 OA
BRANCH  24  25
HETATM   25  C17 UNL     1      25.641  32.477  17.942  1.00  0.00     0.255 C 
HETATM   26  C18 UNL     1      25.170  33.509  16.985  1.00  0.00     0.126 C 
HETATM   27  O6  UNL     1      26.020  31.390  17.483  1.00  0.00    -0.266 OA
ENDBRANCH  24  25
ENDBRANCH   7  24
TORSDOF 10
ENDMDL
MODEL 2
REMARK VINA RESULT: -6.877163958      1.893      4.783
REMARK  10 active torsions:
REMARK  status: ('A' for Active; 'I' for Inactive)
REMARK    1  A    between atoms: C3_3  and  C5_5 
REMARK    2  A    between atoms: C5_5  and  O2_7 
REMARK    3  A    between atoms: O2_7  and  C6_8 
REMARK    4  A    between atoms: C6_8  and  C8_10 
REMARK    5  A    between atoms: C8_10  and  O4_12 
REMARK    6  A    between atoms: O4_12  and  C9_13 
REMARK    7  A    between atoms: C9_13  and  C10_14 
REMARK    8  A    between atoms: C16_20  and  O5_21 
REMARK    9  A    between atoms: O5_21  and  C17_22 
REMARK   10  A    between atoms: C19_25  and  O7_26 
ROOT
HETATM    1  C10 UNL     1      20.588  31.982  19.738  1.00  0.00     0.010 C 
HETATM    2  C11 UNL     1      19.261  32.637  20.050  1.00  0.00     0.020 C 
HETATM    3  C12 UNL     1      21.424  32.027  20.971  1.00  0.00    -0.006 C 
HETATM    4  C13 UNL     1      22.911  31.885  20.679  1.00  0.00     0.011 C 
HETATM    5  C14 UNL     1      21.064  31.037  22.020  1.00  0.00     0.008 C 
HETATM    6  C15 UNL     1      19.910  30.149  21.648  1.00  0.00     0.035 C 
HETATM    7  C16 UNL     1      20.068  29.563  20.251  1.00  0.00     0.161 C 
HETATM    8  C19 UNL     1      20.310  30.606  19.209  1.00  0.00     0.158 C 
ENDROOT
BRANCH   1   9
HETATM    9  C9  UNL     1      21.246  32.765  18.620  1.00  0.00     0.191 C 
BRANCH   9  10
HETATM   10  O4  UNL     1      21.296  32.000  17.422  1.00  0.00    -0.319 OA
BRANCH  10  11
HETATM   11  C8  UNL     1      22.239  32.216  16.468  1.00  0.00     0.288 C 
HETATM   12  O3  UNL     1      22.083  33.183  15.673  1.00  0.00    -0.262 OA
BRANCH  11  13
HETATM   13  C6  UNL     1      23.441  31.316  16.368  1.00  0.00     0.227 C 
HETATM   14  C7  UNL     1      24.557  31.896  17.211  1.00  0.00     0.051 C 
BRANCH  13  15
HETATM   15  O2  UNL     1      23.160  30.023  16.823  1.00  0.00    -0.302 OA
BRANCH  15  16
HETATM   16  C5  UNL     1      22.227  29.176  16.231  1.00  0.00     0.289 C 
HETATM   17  O1  UNL     1      21.341  28.721  16.998  1.00  0.00    -0.260 OA
BRANCH  16  18
HETATM   18  C3  UNL     1      22.258  28.826  14.825  1.00  0.00     0.009 C 
HETATM   19  C2  UNL     1      22.896  27.768  14.383  1.00  0.00    -0.018 C 
HETATM   20  C1  UNL     1      22.924  27.420  12.946  1.00  0.00     0.036 C 
HETATM   21  C4  UNL     1      21.548  29.691  13.859  1.00  0.00     0.054 C 
ENDBRANCH  16  18
ENDBRANCH  15  16
ENDBRANCH  13  15
ENDBRANCH  11  13
ENDBRANCH  10  11
ENDBRANCH   9  10
ENDBRANCH   1   9
BRANCH   8  22
HETATM   22  O7  UNL     1      19.227  30.740  18.332  1.00  0.00    -0.392 OA
ATOM     23  H7  UNL     1      19.587  30.651  17.456  1.00  0.00     0.210 HD
ENDBRANCH   8  22
BRANCH   7  24
HETATM   24  O5  UNL     1      20.944  28.483  20.233  1.00  0.00    -0.314 OA
BRANCH  24  25
HETATM   25  C17 UNL     1      20.556  27.216  19.955  1.00  0.00     0.255 C 
HETATM   26  C18 UNL     1      19.167  26.697  20.015  1.00  0.00     0.126 C 
HETATM   27  O6  UNL     1      21.455  26.431  19.621  1.00  0.00    -0.266 OA
ENDBRANCH  24  25
ENDBRANCH   7  24
TORSDOF 10
ENDMDL
MODEL 3
REMARK VINA RESULT: -6.829244415      2.455      4.026
REMARK  10 active torsions:
REMARK  status: ('A' for Active; 'I' for Inactive)
REMARK    1  A    between atoms: C3_3  and  C5_5 
REMARK    2  A    between atoms: C5_5  and  O2_7 
REMARK    3  A    between atoms: O2_7  and  C6_8 
REMARK    4  A    between atoms: C6_8  and  C8_10 
REMARK    5  A    between atoms: C8_10  and  O4_12 
REMARK    6  A    between atoms: O4_12  and  C9_13 
REMARK    7  A    between atoms: C9_13  and  C10_14 
REMARK    8  A    between atoms: C16_20  and  O5_21 
REMARK    9  A    between atoms: O5_21  and  C17_22 
REMARK   10  A    between atoms: C19_25  and  O7_26 
ROOT
HETATM    1  C10 UNL     1      22.500  32.019  17.438  1.00  0.00     0.010 C 
HETATM    2  C11 UNL     1      23.820  31.668  16.789  1.00  0.00     0.020 C 
HETATM    3  C12 UNL     1      22.786  32.865  18.632  1.00  0.00    -0.006 C 
HETATM    4  C13 UNL     1      21.646  32.861  19.641  1.00  0.00     0.011 C 
HETATM    5  C14 UNL     1      23.138  34.279  18.341  1.00  0.00     0.008 C 
HETATM    6  C15 UNL     1      23.139  34.616  16.876  1.00  0.00     0.035 C 
HETATM    7  C16 UNL     1      21.882  34.119  16.175  1.00  0.00     0.161 C 
HETATM    8  C19 UNL     1      21.631  32.664  16.398  1.00  0.00     0.158 C 
ENDROOT
BRANCH   1   9
HETATM    9  C9  UNL     1      21.820  30.729  17.849  1.00  0.00     0.191 C 
BRANCH   9  10
HETATM   10  O4  UNL     1      22.617  29.602  17.509  1.00  0.00    -0.319 OA
BRANCH  10  11
HETATM   11  C8  UNL     1      22.069  28.434  17.083  1.00  0.00     0.288 C 
HETATM   12  O3  UNL     1      21.696  28.344  15.881  1.00  0.00    -0.262 OA
BRANCH  11  13
HETATM   13  C6  UNL     1      21.914  27.275  18.031  1.00  0.00     0.227 C 
HETATM   14  C7  UNL     1      22.642  27.596  19.319  1.00  0.00     0.051 C 
BRANCH  13  15
HETATM   15  O2  UNL     1      20.570  27.022  18.326  1.00  0.00    -0.302 OA
BRANCH  15  16
HETATM   16  C5  UNL     1      20.141  26.229  19.386  1.00  0.00     0.289 C 
HETATM   17  O1  UNL     1      20.102  24.993  19.161  1.00  0.00    -0.260 OA
BRANCH  16  18
HETATM   18  C3  UNL     1      19.757  26.772  20.674  1.00  0.00     0.009 C 
HETATM   19  C2  UNL     1      19.379  28.020  20.820  1.00  0.00    -0.018 C 
HETATM   20  C1  UNL     1      18.990  28.566  22.138  1.00  0.00     0.036 C 
HETATM   21  C4  UNL     1      19.796  25.890  21.860  1.00  0.00     0.054 C 
ENDBRANCH  16  18
ENDBRANCH  15  16
ENDBRANCH  13  15
ENDBRANCH  11  13
ENDBRANCH  10  11
ENDBRANCH   9  10
ENDBRANCH   1   9
BRANCH   8  22
HETATM   22  O7  UNL     1      21.805  31.911  15.230  1.00  0.00    -0.392 OA
ATOM     23  H7  UNL     1      22.740  31.764  15.149  1.00  0.00     0.210 HD
ENDBRANCH   8  22
BRANCH   7  24
HETATM   24  O5  UNL     1      20.794  34.956  16.398  1.00  0.00    -0.314 OA
BRANCH  24  25
HETATM   25  C17 UNL     1      20.138  35.602  15.405  1.00  0.00     0.255 C 
HETATM   26  C18 UNL     1      20.766  36.303  14.258  1.00  0.00     0.126 C 
HETATM   27  O6  UNL     1      18.901  35.599  15.476  1.00  0.00    -0.266 OA
ENDBRANCH  24  25
ENDBRANCH   7  24
TORSDOF 10
ENDMDL
MODEL 4
REMARK VINA RESULT: -6.819009946      3.189      6.397
REMARK  10 active torsions:
REMARK  status: ('A' for Active; 'I' for Inactive)
REMARK    1  A    between atoms: C3_3  and  C5_5 
REMARK    2  A    between atoms: C5_5  and  O2_7 
REMARK    3  A    between atoms: O2_7  and  C6_8 
REMARK    4  A    between atoms: C6_8  and  C8_10 
REMARK    5  A    between atoms: C8_10  and  O4_12 
REMARK    6  A    between atoms: O4_12  and  C9_13 
REMARK    7  A    between atoms: C9_13  and  C10_14 
REMARK    8  A    between atoms: C16_20  and  O5_21 
REMARK    9  A    between atoms: O5_21  and  C17_22 
REMARK   10  A    between atoms: C19_25  and  O7_26 
ROOT
HETATM    1  C10 UNL     1      22.348  32.362  18.103  1.00  0.00     0.010 C 
HETATM    2  C11 UNL     1      21.776  33.290  19.150  1.00  0.00     0.020 C 
HETATM    3  C12 UNL     1      23.817  32.260  18.332  1.00  0.00    -0.006 C 
HETATM    4  C13 UNL     1      24.574  31.798  17.095  1.00  0.00     0.011 C 
HETATM    5  C14 UNL     1      24.225  31.396  19.471  1.00  0.00     0.008 C 
HETATM    6  C15 UNL     1      23.072  30.763  20.198  1.00  0.00     0.035 C 
HETATM    7  C16 UNL     1      22.077  30.121  19.240  1.00  0.00     0.161 C 
HETATM    8  C19 UNL     1      21.602  31.062  18.182  1.00  0.00     0.158 C 
ENDROOT
BRANCH   1   9
HETATM    9  C9  UNL     1      22.061  32.958  16.740  1.00  0.00     0.191 C 
BRANCH   9  10
HETATM   10  O4  UNL     1      21.081  33.983  16.827  1.00  0.00    -0.319 OA
BRANCH  10  11
HETATM   11  C8  UNL     1      20.868  34.866  15.816  1.00  0.00     0.288 C 
HETATM   12  O3  UNL     1      21.420  34.652  14.702  1.00  0.00    -0.262 OA
BRANCH  11  13
HETATM   13  C6  UNL     1      19.990  36.070  16.028  1.00  0.00     0.227 C 
HETATM   14  C7  UNL     1      19.651  36.670  14.681  1.00  0.00     0.051 C 
BRANCH  13  15
HETATM   15  O2  UNL     1      18.800  35.734  16.683  1.00  0.00    -0.302 OA
BRANCH  15  16
HETATM   16  C5  UNL     1      18.353  36.349  17.849  1.00  0.00     0.289 C 
HETATM   17  O1  UNL     1      17.266  36.972  17.755  1.00  0.00    -0.260 OA
BRANCH  16  18
HETATM   18  C3  UNL     1      19.080  36.288  19.102  1.00  0.00     0.009 C 
HETATM   19  C2  UNL     1      19.960  37.201  19.442  1.00  0.00    -0.018 C 
HETATM   20  C1  UNL     1      20.698  37.130  20.722  1.00  0.00     0.036 C 
HETATM   21  C4  UNL     1      18.821  35.162  20.023  1.00  0.00     0.054 C 
ENDBRANCH  16  18
ENDBRANCH  15  16
ENDBRANCH  13  15
ENDBRANCH  11  13
ENDBRANCH  10  11
ENDBRANCH   9  10
ENDBRANCH   1   9
BRANCH   8  22
HETATM   22  O7  UNL     1      20.252  31.400  18.339  1.00  0.00    -0.392 OA
ATOM     23  H7  UNL     1      19.773  30.859  17.722  1.00  0.00     0.210 HD
ENDBRANCH   8  22
BRANCH   7  24
HETATM   24  O5  UNL     1      22.512  28.880  18.788  1.00  0.00    -0.314 OA
BRANCH  24  25
HETATM   25  C17 UNL     1      22.092  27.707  19.318  1.00  0.00     0.255 C 
HETATM   26  C18 UNL     1      20.856  27.503  20.114  1.00  0.00     0.126 C 
HETATM   27  O6  UNL     1      22.818  26.724  19.111  1.00  0.00    -0.266 OA
ENDBRANCH  24  25
ENDBRANCH   7  24
TORSDOF 10
ENDMDL
MODEL 5
REMARK VINA RESULT: -6.780172420      2.402      3.826
REMARK  10 active torsions:
REMARK  status: ('A' for Active; 'I' for Inactive)
REMARK    1  A    between atoms: C3_3  and  C5_5 
REMARK    2  A    between atoms: C5_5  and  O2_7 
REMARK    3  A    between atoms: O2_7  and  C6_8 
REMARK    4  A    between atoms: C6_8  and  C8_10 
REMARK    5  A    between atoms: C8_10  and  O4_12 
REMARK    6  A    between atoms: O4_12  and  C9_13 
REMARK    7  A    between atoms: C9_13  and  C10_14 
REMARK    8  A    between atoms: C16_20  and  O5_21 
REMARK    9  A    between atoms: O5_21  and  C17_22 
REMARK   10  A    between atoms: C19_25  and  O7_26 
ROOT
HETATM    1  C10 UNL     1      21.801  33.802  19.515  1.00  0.00     0.010 C 
HETATM    2  C11 UNL     1      22.486  34.763  20.460  1.00  0.00     0.020 C 
HETATM    3  C12 UNL     1      20.415  33.574  20.017  1.00  0.00    -0.006 C 
HETATM    4  C13 UNL     1      19.804  32.283  19.490  1.00  0.00     0.011 C 
HETATM    5  C14 UNL     1      19.454  34.678  19.757  1.00  0.00     0.008 C 
HETATM    6  C15 UNL     1      20.052  35.843  19.019  1.00  0.00     0.035 C 
HETATM    7  C16 UNL     1      20.852  35.398  17.801  1.00  0.00     0.161 C 
HETATM    8  C19 UNL     1      21.887  34.374  18.130  1.00  0.00     0.158 C 
ENDROOT
BRANCH   1   9
HETATM    9  C9  UNL     1      22.586  32.506  19.512  1.00  0.00     0.191 C 
BRANCH   9  10
HETATM   10  O4  UNL     1      23.151  32.254  18.232  1.00  0.00    -0.319 OA
BRANCH  10  11
HETATM   11  C8  UNL     1      23.178  31.010  17.688  1.00  0.00     0.288 C 
HETATM   12  O3  UNL     1      24.231  30.628  17.106  1.00  0.00    -0.262 OA
BRANCH  11  13
HETATM   13  C6  UNL     1      21.975  30.110  17.784  1.00  0.00     0.227 C 
HETATM   14  C7  UNL     1      21.132  30.289  16.539  1.00  0.00     0.051 C 
BRANCH  13  15
HETATM   15  O2  UNL     1      22.342  28.764  17.888  1.00  0.00    -0.302 OA
BRANCH  15  16
HETATM   16  C5  UNL     1      22.128  27.985  19.022  1.00  0.00     0.289 C 
HETATM   17  O1  UNL     1      23.161  27.531  19.575  1.00  0.00    -0.260 OA
BRANCH  16  18
HETATM   18  C3  UNL     1      20.807  27.701  19.548  1.00  0.00     0.009 C 
HETATM   19  C2  UNL     1      20.188  26.569  19.305  1.00  0.00    -0.018 C 
HETATM   20  C1  UNL     1      18.840  26.289  19.844  1.00  0.00     0.036 C 
HETATM   21  C4  UNL     1      20.136  28.721  20.381  1.00  0.00     0.054 C 
ENDBRANCH  16  18
ENDBRANCH  15  16
ENDBRANCH  13  15
ENDBRANCH  11  13
ENDBRANCH  10  11
ENDBRANCH   9  10
ENDBRANCH   1   9
BRANCH   8  22
HETATM   22  O7  UNL     1      23.189  34.875  18.001  1.00  0.00    -0.392 OA
ATOM     23  H7  UNL     1      23.125  35.621  17.415  1.00  0.00     0.210 HD
ENDBRANCH   8  22
BRANCH   7  24
HETATM   24  O5  UNL     1      20.031  35.095  16.720  1.00  0.00    -0.314 OA
BRANCH  24  25
HETATM   25  C17 UNL     1      20.297  35.490  15.452  1.00  0.00     0.255 C 
HETATM   26  C18 UNL     1      19.652  36.619  14.737  1.00  0.00     0.126 C 
HETATM   27  O6  UNL     1      21.162  34.839  14.848  1.00  0.00    -0.266 OA
ENDBRANCH  24  25
ENDBRANCH   7  24
TORSDOF 10
ENDMDL
