MODEL 1
REMARK VINA RESULT: -9.548714589      0.000      0.000
REMARK  16 active torsions:
REMARK  status: ('A' for Active; 'I' for Inactive)
REMARK    1  A    between atoms: C4_7  and  O1_8 
REMARK    2  A    between atoms: C5_10  and  N3_11 
REMARK    3  A    between atoms: C8_17  and  N5_18 
REMARK    4  A    between atoms: N5_18  and  N6_20 
REMARK    5  A    between atoms: N6_20  and  N7_22 
REMARK    6  A    between atoms: C9_27  and  N9_28 
REMARK    7  A    between atoms: C10_31  and  N11_32 
REMARK       I    between atoms: N11_32  and  C11_34 
REMARK    8  A    between atoms: C11_34  and  C12_36 
REMARK    9  A    between atoms: C12_36  and  N12_37 
REMARK   10  A    between atoms: C12_36  and  C17_47 
REMARK   11  A    between atoms: N12_37  and  O3_39 
REMARK   12  A    between atoms: O3_39  and  C13_40 
REMARK   13  A    between atoms: C13_40  and  C14_41 
REMARK   14  A    between atoms: C13_40  and  C16_44 
REMARK   15  A    between atoms: C14_41  and  C15_42 
REMARK   16  A    between atoms: C19_51  and  N14_52 
ROOT
HETATM    1  N9  UNL     1      12.520  30.152  26.936  1.00  0.00    -0.173 N 
HETATM    2  N10 UNL     1      12.593  28.908  26.472  1.00  0.00    -0.119 N 
ATOM      3  H10 UNL     1      13.465  28.413  26.284  1.00  0.00     0.206 HD
HETATM    4  C10 UNL     1      11.372  28.391  26.287  1.00  0.00     0.704 A 
HETATM    5  N15 UNL     1      10.528  29.381  26.657  1.00  0.00    -0.138 N 
ATOM      6  H15 UNL     1       9.510  29.315  26.637  1.00  0.00     0.189 HD
HETATM    7  C20 UNL     1      11.218  30.467  27.057  1.00  0.00     0.362 A 
HETATM    8  O6  UNL     1      10.796  31.578  27.470  1.00  0.00    -0.244 OA
ENDROOT
BRANCH   1   9
HETATM    9  C9  UNL     1      13.690  30.906  27.271  1.00  0.00     0.152 A 
HETATM   10  N8  UNL     1      14.099  30.920  28.575  1.00  0.00    -0.324 N 
HETATM   11  C5  UNL     1      15.178  31.591  28.981  1.00  0.00     0.144 A 
ATOM     12  H8  UNL     1      13.559  30.396  29.264  1.00  0.00     0.169 HD
HETATM   13  C4  UNL     1      15.868  32.280  28.002  1.00  0.00     0.138 A 
HETATM   14  C3  UNL     1      15.491  32.290  26.684  1.00  0.00     0.090 A 
HETATM   15  N2  UNL     1      16.156  32.960  25.730  1.00  0.00    -0.349 N 
HETATM   16  C21 UNL     1      14.352  31.578  26.278  1.00  0.00     0.108 A 
HETATM   17  C2  UNL     1      15.773  32.966  24.441  1.00  0.00     0.186 A 
ATOM     18  H2  UNL     1      16.987  33.489  25.995  1.00  0.00     0.166 HD
HETATM   19  N1  UNL     1      14.690  32.297  24.012  1.00  0.00    -0.314 N 
HETATM   20  C1  UNL     1      14.269  32.299  22.607  1.00  0.00     0.160 C 
HETATM   21  C22 UNL     1      13.989  31.606  24.950  1.00  0.00     0.264 A 
HETATM   22  O7  UNL     1      12.976  30.976  24.565  1.00  0.00    -0.267 OA
BRANCH  11  23
HETATM   23  N3  UNL     1      15.615  31.609  30.351  1.00  0.00    -0.318 N 
HETATM   24  C6  UNL     1      15.027  30.816  31.401  1.00  0.00     0.156 C 
HETATM   25  C7  UNL     1      16.061  30.771  32.480  1.00  0.00     0.257 C 
HETATM   26  N4  UNL     1      17.159  31.606  32.086  1.00  0.00    -0.034 N 
HETATM   27  C8  UNL     1      16.684  32.382  30.936  1.00  0.00     0.408 C 
ATOM     28  H42 UNL     1      17.524  32.183  32.844  1.00  0.00     0.281 HD
ATOM     29  H41 UNL     1      18.019  31.088  31.901  1.00  0.00     0.281 HD
BRANCH  27  30
HETATM   30  N5  UNL     1      16.303  33.682  31.387  1.00  0.00    -0.275 N 
ATOM     31  H5  UNL     1      15.697  33.774  32.203  1.00  0.00     0.185 HD
BRANCH  30  32
HETATM   32  N6  UNL     1      16.700  34.708  30.797  1.00  0.00    -0.251 N 
ATOM     33  H6  UNL     1      17.534  34.923  31.344  1.00  0.00     0.207 HD
BRANCH  32  34
HETATM   34  N7  UNL     1      16.730  35.631  29.975  1.00  0.00    -0.331 N 
ATOM     35  H72 UNL     1      15.725  35.696  29.817  1.00  0.00     0.178 HD
ATOM     36  H71 UNL     1      17.114  36.354  29.366  1.00  0.00     0.178 HD
ENDBRANCH  32  34
ENDBRANCH  30  32
ENDBRANCH  27  30
ENDBRANCH  11  23
BRANCH  13  37
HETATM   37  O1  UNL     1      16.994  32.980  28.414  1.00  0.00    -0.355 OA
ATOM     38  H1  UNL     1      17.840  32.550  28.450  1.00  0.00     0.218 HD
ENDBRANCH  13  37
ENDBRANCH   1   9
BRANCH   4  39
HETATM   39  N11 UNL     1      11.058  27.200  25.842  1.00  0.00    -0.152 N 
HETATM   40  C11 UNL     1      10.127  27.117  24.775  1.00  0.00     0.289 C 
HETATM   41  O2  UNL     1       8.910  27.239  25.138  1.00  0.00    -0.265 OA
ATOM     42  H11 UNL     1      11.468  26.360  26.250  1.00  0.00     0.187 HD
BRANCH  40  43
HETATM   43  C12 UNL     1      10.382  26.920  23.389  1.00  0.00     0.141 C 
BRANCH  43  44
HETATM   44  N12 UNL     1      11.551  26.570  22.971  1.00  0.00    -0.259 N 
ATOM     45  H12 UNL     1      11.803  26.841  22.021  1.00  0.00     0.194 HD
BRANCH  44  46
HETATM   46  O3  UNL     1      12.470  25.877  23.674  1.00  0.00    -0.263 OA
BRANCH  46  47
HETATM   47  C13 UNL     1      13.787  26.373  23.718  1.00  0.00     0.253 C 
BRANCH  47  48
HETATM   48  C14 UNL     1      13.978  27.730  23.131  1.00  0.00     0.056 C 
BRANCH  48  49
HETATM   49  C15 UNL     1      15.280  28.389  23.458  1.00  0.00     0.089 C 
HETATM   50  S1  UNL     1      15.776  28.191  25.181  1.00  0.00    -0.098 SA
ENDBRANCH  48  49
ENDBRANCH  47  48
BRANCH  47  51
HETATM   51  C16 UNL     1      14.713  25.454  22.984  1.00  0.00     0.205 C 
HETATM   52  O4  UNL     1      14.905  25.558  21.761  1.00  0.00    -0.646 OA
HETATM   53  O5  UNL     1      15.365  24.461  23.706  1.00  0.00    -0.646 OA
ENDBRANCH  47  51
ENDBRANCH  46  47
ENDBRANCH  44  46
ENDBRANCH  43  44
BRANCH  43  54
HETATM   54  C17 UNL     1       9.394  27.088  22.300  1.00  0.00     0.058 A 
HETATM   55  C18 UNL     1       9.188  28.091  21.404  1.00  0.00     0.111 A 
HETATM   56  N13 UNL     1       8.210  27.973  20.544  1.00  0.00    -0.345 N 
HETATM   57  C19 UNL     1       7.455  26.883  20.572  1.00  0.00     0.142 A 
ATOM     58  H13 UNL     1       8.031  28.709  19.861  1.00  0.00     0.167 HD
HETATM   59  S2  UNL     1       8.132  25.985  21.850  1.00  0.00    -0.051 SA
BRANCH  57  60
HETATM   60  N14 UNL     1       6.435  26.598  19.786  1.00  0.00    -0.380 N 
ATOM     61 2H14 UNL     1       5.541  27.077  19.676  1.00  0.00     0.158 HD
ATOM     62 1H14 UNL     1       6.360  25.822  19.129  1.00  0.00     0.158 HD
ENDBRANCH  57  60
ENDBRANCH  43  54
ENDBRANCH  40  43
ENDBRANCH   4  39
TORSDOF 16
ENDMDL
MODEL 2
REMARK VINA RESULT: -9.501201249      3.367      8.840
REMARK  16 active torsions:
REMARK  status: ('A' for Active; 'I' for Inactive)
REMARK    1  A    between atoms: C4_7  and  O1_8 
REMARK    2  A    between atoms: C5_10  and  N3_11 
REMARK    3  A    between atoms: C8_17  and  N5_18 
REMARK    4  A    between atoms: N5_18  and  N6_20 
REMARK    5  A    between atoms: N6_20  and  N7_22 
REMARK    6  A    between atoms: C9_27  and  N9_28 
REMARK    7  A    between atoms: C10_31  and  N11_32 
REMARK       I    between atoms: N11_32  and  C11_34 
REMARK    8  A    between atoms: C11_34  and  C12_36 
REMARK    9  A    between atoms: C12_36  and  N12_37 
REMARK   10  A    between atoms: C12_36  and  C17_47 
REMARK   11  A    between atoms: N12_37  and  O3_39 
REMARK   12  A    between atoms: O3_39  and  C13_40 
REMARK   13  A    between atoms: C13_40  and  C14_41 
REMARK   14  A    between atoms: C13_40  and  C16_44 
REMARK   15  A    between atoms: C14_41  and  C15_42 
REMARK   16  A    between atoms: C19_51  and  N14_52 
ROOT
HETATM    1  N9  UNL     1      11.296  31.840  24.979  1.00  0.00    -0.173 N 
HETATM    2  N10 UNL     1      12.163  32.255  25.897  1.00  0.00    -0.119 N 
ATOM      3  H10 UNL     1      13.176  32.243  25.781  1.00  0.00     0.206 HD
HETATM    4  C10 UNL     1      11.530  32.690  26.994  1.00  0.00     0.704 A 
HETATM    5  N15 UNL     1      10.217  32.524  26.713  1.00  0.00    -0.138 N 
ATOM      6  H15 UNL     1       9.453  32.760  27.346  1.00  0.00     0.189 HD
HETATM    7  C20 UNL     1      10.059  32.003  25.481  1.00  0.00     0.362 A 
HETATM    8  O6  UNL     1       9.002  31.704  24.866  1.00  0.00    -0.244 OA
ENDROOT
BRANCH   1   9
HETATM    9  C9  UNL     1      11.718  31.378  23.691  1.00  0.00     0.152 A 
HETATM   10  N8  UNL     1      12.067  30.064  23.557  1.00  0.00    -0.324 N 
HETATM   11  C5  UNL     1      12.469  29.543  22.396  1.00  0.00     0.144 A 
ATOM     12  H8  UNL     1      12.017  29.458  24.376  1.00  0.00     0.169 HD
HETATM   13  C4  UNL     1      12.515  30.413  21.324  1.00  0.00     0.138 A 
HETATM   14  C3  UNL     1      12.173  31.738  21.418  1.00  0.00     0.090 A 
HETATM   15  N2  UNL     1      12.220  32.588  20.380  1.00  0.00    -0.349 N 
HETATM   16  C21 UNL     1      11.753  32.266  22.648  1.00  0.00     0.108 A 
HETATM   17  C2  UNL     1      11.884  33.887  20.486  1.00  0.00     0.186 A 
ATOM     18  H2  UNL     1      12.522  32.234  19.473  1.00  0.00     0.166 HD
HETATM   19  N1  UNL     1      11.477  34.430  21.645  1.00  0.00    -0.314 N 
HETATM   20  C1  UNL     1      11.110  35.844  21.764  1.00  0.00     0.160 C 
HETATM   21  C22 UNL     1      11.418  33.600  22.720  1.00  0.00     0.264 A 
HETATM   22  O7  UNL     1      11.039  34.092  23.809  1.00  0.00    -0.267 OA
BRANCH  11  23
HETATM   23  N3  UNL     1      12.837  28.161  22.247  1.00  0.00    -0.318 N 
HETATM   24  C6  UNL     1      14.183  27.661  22.367  1.00  0.00     0.156 C 
HETATM   25  C7  UNL     1      14.034  26.198  22.632  1.00  0.00     0.257 C 
HETATM   26  N4  UNL     1      12.639  25.867  22.557  1.00  0.00    -0.034 N 
HETATM   27  C8  UNL     1      11.979  27.035  21.965  1.00  0.00     0.408 C 
ATOM     28  H42 UNL     1      12.453  24.998  22.057  1.00  0.00     0.281 HD
ATOM     29  H41 UNL     1      12.240  25.583  23.452  1.00  0.00     0.281 HD
BRANCH  27  30
HETATM   30  N5  UNL     1      11.762  26.784  20.577  1.00  0.00    -0.275 N 
ATOM     31  H5  UNL     1      12.496  27.006  19.904  1.00  0.00     0.185 HD
BRANCH  30  32
HETATM   32  N6  UNL     1      10.686  26.295  20.173  1.00  0.00    -0.251 N 
ATOM     33  H6  UNL     1      10.942  26.050  19.217  1.00  0.00     0.207 HD
BRANCH  32  34
HETATM   34  N7  UNL     1       9.509  25.919  20.190  1.00  0.00    -0.331 N 
ATOM     35  H72 UNL     1       9.318  26.135  21.168  1.00  0.00     0.178 HD
ATOM     36  H71 UNL     1       8.624  25.536  19.855  1.00  0.00     0.178 HD
ENDBRANCH  32  34
ENDBRANCH  30  32
ENDBRANCH  27  30
ENDBRANCH  11  23
BRANCH  13  37
HETATM   37  O1  UNL     1      12.931  29.881  20.111  1.00  0.00    -0.355 OA
ATOM     38  H1  UNL     1      12.679  28.999  19.863  1.00  0.00     0.218 HD
ENDBRANCH  13  37
ENDBRANCH   1   9
BRANCH   4  39
HETATM   39  N11 UNL     1      12.055  33.167  28.094  1.00  0.00    -0.152 N 
HETATM   40  C11 UNL     1      12.872  32.301  28.866  1.00  0.00     0.289 C 
HETATM   41  O2  UNL     1      12.218  31.489  29.600  1.00  0.00    -0.265 OA
ATOM     42  H11 UNL     1      11.883  34.129  28.387  1.00  0.00     0.187 HD
BRANCH  40  43
HETATM   43  C12 UNL     1      14.293  32.233  28.917  1.00  0.00     0.141 C 
BRANCH  43  44
HETATM   44  N12 UNL     1      14.977  31.861  27.889  1.00  0.00    -0.259 N 
ATOM     45  H12 UNL     1      15.477  30.975  27.962  1.00  0.00     0.194 HD
BRANCH  44  46
HETATM   46  O3  UNL     1      15.093  32.535  26.727  1.00  0.00    -0.263 OA
BRANCH  46  47
HETATM   47  C13 UNL     1      15.695  31.881  25.634  1.00  0.00     0.253 C 
BRANCH  47  48
HETATM   48  C14 UNL     1      15.242  32.338  24.289  1.00  0.00     0.056 C 
BRANCH  48  49
HETATM   49  C15 UNL     1      14.954  33.802  24.177  1.00  0.00     0.089 C 
HETATM   50  S1  UNL     1      16.435  34.832  24.195  1.00  0.00    -0.098 SA
ENDBRANCH  48  49
ENDBRANCH  47  48
BRANCH  47  51
HETATM   51  C16 UNL     1      15.430  30.409  25.699  1.00  0.00     0.205 C 
HETATM   52  O4  UNL     1      14.318  29.932  25.419  1.00  0.00    -0.646 OA
HETATM   53  O5  UNL     1      16.467  29.569  26.087  1.00  0.00    -0.646 OA
ENDBRANCH  47  51
ENDBRANCH  46  47
ENDBRANCH  44  46
ENDBRANCH  43  44
BRANCH  43  54
HETATM   54  C17 UNL     1      15.128  32.557  30.094  1.00  0.00     0.058 A 
HETATM   55  C18 UNL     1      15.868  33.655  30.411  1.00  0.00     0.111 A 
HETATM   56  N13 UNL     1      16.530  33.661  31.538  1.00  0.00    -0.345 N 
HETATM   57  C19 UNL     1      16.459  32.601  32.333  1.00  0.00     0.142 A 
ATOM     58  H13 UNL     1      17.094  34.469  31.802  1.00  0.00     0.167 HD
HETATM   59  S2  UNL     1      15.429  31.552  31.476  1.00  0.00    -0.051 SA
BRANCH  57  60
HETATM   60  N14 UNL     1      17.056  32.436  33.498  1.00  0.00    -0.380 N 
ATOM     61 2H14 UNL     1      16.848  32.856  34.404  1.00  0.00     0.158 HD
ATOM     62 1H14 UNL     1      17.856  31.838  33.702  1.00  0.00     0.158 HD
ENDBRANCH  57  60
ENDBRANCH  43  54
ENDBRANCH  40  43
ENDBRANCH   4  39
TORSDOF 16
ENDMDL
MODEL 3
REMARK VINA RESULT: -9.457937824      1.697      1.912
REMARK  16 active torsions:
REMARK  status: ('A' for Active; 'I' for Inactive)
REMARK    1  A    between atoms: C4_7  and  O1_8 
REMARK    2  A    between atoms: C5_10  and  N3_11 
REMARK    3  A    between atoms: C8_17  and  N5_18 
REMARK    4  A    between atoms: N5_18  and  N6_20 
REMARK    5  A    between atoms: N6_20  and  N7_22 
REMARK    6  A    between atoms: C9_27  and  N9_28 
REMARK    7  A    between atoms: C10_31  and  N11_32 
REMARK       I    between atoms: N11_32  and  C11_34 
REMARK    8  A    between atoms: C11_34  and  C12_36 
REMARK    9  A    between atoms: C12_36  and  N12_37 
REMARK   10  A    between atoms: C12_36  and  C17_47 
REMARK   11  A    between atoms: N12_37  and  O3_39 
REMARK   12  A    between atoms: O3_39  and  C13_40 
REMARK   13  A    between atoms: C13_40  and  C14_41 
REMARK   14  A    between atoms: C13_40  and  C16_44 
REMARK   15  A    between atoms: C14_41  and  C15_42 
REMARK   16  A    between atoms: C19_51  and  N14_52 
ROOT
HETATM    1  N9  UNL     1      12.807  30.316  27.152  1.00  0.00    -0.173 N 
HETATM    2  N10 UNL     1      12.901  29.100  26.623  1.00  0.00    -0.119 N 
ATOM      3  H10 UNL     1      13.780  28.623  26.425  1.00  0.00     0.206 HD
HETATM    4  C10 UNL     1      11.688  28.585  26.386  1.00  0.00     0.704 A 
HETATM    5  N15 UNL     1      10.828  29.546  26.794  1.00  0.00    -0.138 N 
ATOM      6  H15 UNL     1       9.812  29.472  26.751  1.00  0.00     0.189 HD
HETATM    7  C20 UNL     1      11.501  30.613  27.266  1.00  0.00     0.362 A 
HETATM    8  O6  UNL     1      11.061  31.697  27.730  1.00  0.00    -0.244 OA
ENDROOT
BRANCH   1   9
HETATM    9  C9  UNL     1      13.964  31.061  27.551  1.00  0.00     0.152 A 
HETATM   10  N8  UNL     1      14.312  31.057  28.872  1.00  0.00    -0.324 N 
HETATM   11  C5  UNL     1      15.374  31.718  29.336  1.00  0.00     0.144 A 
ATOM     12  H8  UNL     1      13.738  30.528  29.529  1.00  0.00     0.169 HD
HETATM   13  C4  UNL     1      16.112  32.414  28.399  1.00  0.00     0.138 A 
HETATM   14  C3  UNL     1      15.797  32.442  27.065  1.00  0.00     0.090 A 
HETATM   15  N2  UNL     1      16.509  33.119  26.151  1.00  0.00    -0.349 N 
HETATM   16  C21 UNL     1      14.675  31.740  26.597  1.00  0.00     0.108 A 
HETATM   17  C2  UNL     1      16.186  33.141  24.845  1.00  0.00     0.186 A 
ATOM     18  H2  UNL     1      17.330  33.640  26.459  1.00  0.00     0.166 HD
HETATM   19  N1  UNL     1      15.121  32.483  24.358  1.00  0.00    -0.314 N 
HETATM   20  C1  UNL     1      14.767  32.503  22.935  1.00  0.00     0.160 C 
HETATM   21  C22 UNL     1      14.375  31.785  25.254  1.00  0.00     0.264 A 
HETATM   22  O7  UNL     1      13.377  31.165  24.815  1.00  0.00    -0.267 OA
BRANCH  11  23
HETATM   23  N3  UNL     1      15.747  31.718  30.725  1.00  0.00    -0.318 N 
HETATM   24  C6  UNL     1      15.113  30.909  31.735  1.00  0.00     0.156 C 
HETATM   25  C7  UNL     1      16.095  30.851  32.860  1.00  0.00     0.257 C 
HETATM   26  N4  UNL     1      17.209  31.694  32.530  1.00  0.00    -0.034 N 
HETATM   27  C8  UNL     1      16.786  32.485  31.370  1.00  0.00     0.408 C 
ATOM     28  H42 UNL     1      17.536  32.261  33.312  1.00  0.00     0.281 HD
ATOM     29  H41 UNL     1      18.077  31.180  32.378  1.00  0.00     0.281 HD
BRANCH  27  30
HETATM   30  N5  UNL     1      16.380  33.778  31.820  1.00  0.00    -0.275 N 
ATOM     31  H5  UNL     1      15.805  33.861  32.659  1.00  0.00     0.185 HD
BRANCH  30  32
HETATM   32  N6  UNL     1      16.720  34.808  31.202  1.00  0.00    -0.251 N 
ATOM     33  H6  UNL     1      17.471  35.144  31.806  1.00  0.00     0.207 HD
BRANCH  32  34
HETATM   34  N7  UNL     1      16.731  35.682  30.328  1.00  0.00    -0.331 N 
ATOM     35  H72 UNL     1      16.311  35.125  29.584  1.00  0.00     0.178 HD
ATOM     36  H71 UNL     1      16.889  36.588  29.886  1.00  0.00     0.178 HD
ENDBRANCH  32  34
ENDBRANCH  30  32
ENDBRANCH  27  30
ENDBRANCH  11  23
BRANCH  13  37
HETATM   37  O1  UNL     1      17.221  33.104  28.871  1.00  0.00    -0.355 OA
ATOM     38  H1  UNL     1      17.459  33.944  28.497  1.00  0.00     0.218 HD
ENDBRANCH  13  37
ENDBRANCH   1   9
BRANCH   4  39
HETATM   39  N11 UNL     1      11.393  27.417  25.872  1.00  0.00    -0.152 N 
HETATM   40  C11 UNL     1      11.069  27.365  24.491  1.00  0.00     0.289 C 
HETATM   41  O2  UNL     1       9.873  27.720  24.226  1.00  0.00    -0.265 OA
ATOM     42  H11 UNL     1      11.395  26.573  26.445  1.00  0.00     0.187 HD
BRANCH  40  43
HETATM   43  C12 UNL     1      11.896  26.978  23.400  1.00  0.00     0.141 C 
BRANCH  43  44
HETATM   44  N12 UNL     1      12.736  26.006  23.515  1.00  0.00    -0.259 N 
ATOM     45  H12 UNL     1      12.590  25.195  22.913  1.00  0.00     0.194 HD
BRANCH  44  46
HETATM   46  O3  UNL     1      13.788  25.961  24.357  1.00  0.00    -0.263 OA
BRANCH  46  47
HETATM   47  C13 UNL     1      15.023  26.471  23.909  1.00  0.00     0.253 C 
BRANCH  47  48
HETATM   48  C14 UNL     1      15.139  27.958  23.918  1.00  0.00     0.056 C 
BRANCH  48  49
HETATM   49  C15 UNL     1      16.203  28.507  24.815  1.00  0.00     0.089 C 
HETATM   50  S1  UNL     1      17.409  29.539  23.957  1.00  0.00    -0.098 SA
ENDBRANCH  48  49
ENDBRANCH  47  48
BRANCH  47  51
HETATM   51  C16 UNL     1      15.287  26.029  22.503  1.00  0.00     0.205 C 
HETATM   52  O4  UNL     1      14.881  24.936  22.074  1.00  0.00    -0.646 OA
HETATM   53  O5  UNL     1      16.011  26.874  21.671  1.00  0.00    -0.646 OA
ENDBRANCH  47  51
ENDBRANCH  46  47
ENDBRANCH  44  46
ENDBRANCH  43  44
BRANCH  43  54
HETATM   54  C17 UNL     1      11.905  27.608  22.062  1.00  0.00     0.058 A 
HETATM   55  C18 UNL     1      11.660  27.110  20.818  1.00  0.00     0.111 A 
HETATM   56  N13 UNL     1      11.756  27.913  19.792  1.00  0.00    -0.345 N 
HETATM   57  C19 UNL     1      12.086  29.182  19.993  1.00  0.00     0.142 A 
ATOM     58  H13 UNL     1      11.579  27.568  18.848  1.00  0.00     0.167 HD
HETATM   59  S2  UNL     1      12.273  29.261  21.683  1.00  0.00    -0.051 SA
BRANCH  57  60
HETATM   60  N14 UNL     1      12.227  30.124  19.082  1.00  0.00    -0.380 N 
ATOM     61 2H14 UNL     1      13.072  30.483  18.637  1.00  0.00     0.158 HD
ATOM     62 1H14 UNL     1      11.489  30.678  18.647  1.00  0.00     0.158 HD
ENDBRANCH  57  60
ENDBRANCH  43  54
ENDBRANCH  40  43
ENDBRANCH   4  39
TORSDOF 16
ENDMDL
MODEL 4
REMARK VINA RESULT: -9.356953338      3.562      8.361
REMARK  16 active torsions:
REMARK  status: ('A' for Active; 'I' for Inactive)
REMARK    1  A    between atoms: C4_7  and  O1_8 
REMARK    2  A    between atoms: C5_10  and  N3_11 
REMARK    3  A    between atoms: C8_17  and  N5_18 
REMARK    4  A    between atoms: N5_18  and  N6_20 
REMARK    5  A    between atoms: N6_20  and  N7_22 
REMARK    6  A    between atoms: C9_27  and  N9_28 
REMARK    7  A    between atoms: C10_31  and  N11_32 
REMARK       I    between atoms: N11_32  and  C11_34 
REMARK    8  A    between atoms: C11_34  and  C12_36 
REMARK    9  A    between atoms: C12_36  and  N12_37 
REMARK   10  A    between atoms: C12_36  and  C17_47 
REMARK   11  A    between atoms: N12_37  and  O3_39 
REMARK   12  A    between atoms: O3_39  and  C13_40 
REMARK   13  A    between atoms: C13_40  and  C14_41 
REMARK   14  A    between atoms: C13_40  and  C16_44 
REMARK   15  A    between atoms: C14_41  and  C15_42 
REMARK   16  A    between atoms: C19_51  and  N14_52 
ROOT
HETATM    1  N9  UNL     1      11.291  30.914  24.905  1.00  0.00    -0.173 N 
HETATM    2  N10 UNL     1      12.101  31.636  25.673  1.00  0.00    -0.119 N 
ATOM      3  H10 UNL     1      13.087  31.807  25.472  1.00  0.00     0.206 HD
HETATM    4  C10 UNL     1      11.453  32.109  26.744  1.00  0.00     0.704 A 
HETATM    5  N15 UNL     1      10.190  31.642  26.607  1.00  0.00    -0.138 N 
ATOM      6  H15 UNL     1       9.430  31.822  27.262  1.00  0.00     0.189 HD
HETATM    7  C20 UNL     1      10.078  30.907  25.483  1.00  0.00     0.362 A 
HETATM    8  O6  UNL     1       9.074  30.310  25.013  1.00  0.00    -0.244 OA
ENDROOT
BRANCH   1   9
HETATM    9  C9  UNL     1      11.730  30.343  23.666  1.00  0.00     0.152 A 
HETATM   10  N8  UNL     1      12.435  29.174  23.707  1.00  0.00    -0.324 N 
HETATM   11  C5  UNL     1      12.881  28.567  22.606  1.00  0.00     0.144 A 
ATOM     12  H8  UNL     1      12.627  28.749  24.614  1.00  0.00     0.169 HD
HETATM   13  C4  UNL     1      12.588  29.191  21.408  1.00  0.00     0.138 A 
HETATM   14  C3  UNL     1      11.883  30.363  21.326  1.00  0.00     0.090 A 
HETATM   15  N2  UNL     1      11.599  30.975  20.165  1.00  0.00    -0.349 N 
HETATM   16  C21 UNL     1      11.423  30.986  22.496  1.00  0.00     0.108 A 
HETATM   17  C2  UNL     1      10.909  32.128  20.098  1.00  0.00     0.186 A 
ATOM     18  H2  UNL     1      11.921  30.547  19.297  1.00  0.00     0.166 HD
HETATM   19  N1  UNL     1      10.452  32.754  21.195  1.00  0.00    -0.314 N 
HETATM   20  C1  UNL     1       9.698  34.010  21.126  1.00  0.00     0.160 C 
HETATM   21  C22 UNL     1      10.720  32.166  22.390  1.00  0.00     0.264 A 
HETATM   22  O7  UNL     1      10.299  32.738  23.423  1.00  0.00    -0.267 OA
BRANCH  11  23
HETATM   23  N3  UNL     1      13.623  27.336  22.640  1.00  0.00    -0.318 N 
HETATM   24  C6  UNL     1      13.037  26.030  22.471  1.00  0.00     0.156 C 
HETATM   25  C7  UNL     1      14.175  25.139  22.092  1.00  0.00     0.257 C 
HETATM   26  N4  UNL     1      15.386  25.906  22.149  1.00  0.00    -0.034 N 
HETATM   27  C8  UNL     1      15.041  27.154  22.837  1.00  0.00     0.408 C 
ATOM     28  H42 UNL     1      16.165  25.406  22.579  1.00  0.00     0.281 HD
ATOM     29  H41 UNL     1      15.820  26.050  21.237  1.00  0.00     0.281 HD
BRANCH  27  30
HETATM   30  N5  UNL     1      15.445  27.051  24.203  1.00  0.00    -0.275 N 
ATOM     31  H5  UNL     1      14.806  26.646  24.887  1.00  0.00     0.185 HD
BRANCH  30  32
HETATM   32  N6  UNL     1      16.570  27.448  24.571  1.00  0.00    -0.251 N 
ATOM     33  H6  UNL     1      17.137  27.157  23.775  1.00  0.00     0.207 HD
BRANCH  32  34
HETATM   34  N7  UNL     1      17.437  27.969  25.282  1.00  0.00    -0.331 N 
ATOM     35  H72 UNL     1      17.276  28.934  24.995  1.00  0.00     0.178 HD
ATOM     36  H71 UNL     1      18.197  28.046  25.959  1.00  0.00     0.178 HD
ENDBRANCH  32  34
ENDBRANCH  30  32
ENDBRANCH  27  30
ENDBRANCH  11  23
BRANCH  13  37
HETATM   37  O1  UNL     1      13.046  28.566  20.256  1.00  0.00    -0.355 OA
ATOM     38  H1  UNL     1      13.314  29.082  19.505  1.00  0.00     0.218 HD
ENDBRANCH  13  37
ENDBRANCH   1   9
BRANCH   4  39
HETATM   39  N11 UNL     1      11.927  32.852  27.713  1.00  0.00    -0.152 N 
HETATM   40  C11 UNL     1      12.800  32.241  28.648  1.00  0.00     0.289 C 
HETATM   41  O2  UNL     1      12.204  31.556  29.544  1.00  0.00    -0.265 OA
ATOM     42  H11 UNL     1      11.675  33.838  27.792  1.00  0.00     0.187 HD
BRANCH  40  43
HETATM   43  C12 UNL     1      14.221  32.298  28.704  1.00  0.00     0.141 C 
BRANCH  43  44
HETATM   44  N12 UNL     1      14.938  32.018  27.669  1.00  0.00    -0.259 N 
ATOM     45  H12 UNL     1      15.713  31.368  27.806  1.00  0.00     0.194 HD
BRANCH  44  46
HETATM   46  O3  UNL     1      14.759  32.503  26.424  1.00  0.00    -0.263 OA
BRANCH  46  47
HETATM   47  C13 UNL     1      15.692  32.148  25.430  1.00  0.00     0.253 C 
BRANCH  47  48
HETATM   48  C14 UNL     1      15.664  32.991  24.200  1.00  0.00     0.056 C 
BRANCH  48  49
HETATM   49  C15 UNL     1      16.129  34.401  24.383  1.00  0.00     0.089 C 
HETATM   50  S1  UNL     1      17.755  34.529  25.155  1.00  0.00    -0.098 SA
ENDBRANCH  48  49
ENDBRANCH  47  48
BRANCH  47  51
HETATM   51  C16 UNL     1      15.466  30.736  24.987  1.00  0.00     0.205 C 
HETATM   52  O4  UNL     1      14.790  29.939  25.660  1.00  0.00    -0.646 OA
HETATM   53  O5  UNL     1      16.037  30.321  23.790  1.00  0.00    -0.646 OA
ENDBRANCH  47  51
ENDBRANCH  46  47
ENDBRANCH  44  46
ENDBRANCH  43  44
BRANCH  43  54
HETATM   54  C17 UNL     1      15.022  32.663  29.893  1.00  0.00     0.058 A 
HETATM   55  C18 UNL     1      15.833  33.725  30.155  1.00  0.00     0.111 A 
HETATM   56  N13 UNL     1      16.437  33.782  31.312  1.00  0.00    -0.345 N 
HETATM   57  C19 UNL     1      16.239  32.809  32.192  1.00  0.00     0.142 A 
ATOM     58  H13 UNL     1      17.052  34.564  31.537  1.00  0.00     0.167 HD
HETATM   59  S2  UNL     1      15.170  31.769  31.373  1.00  0.00    -0.051 SA
BRANCH  57  60
HETATM   60  N14 UNL     1      16.762  32.705  33.398  1.00  0.00    -0.380 N 
ATOM     61 2H14 UNL     1      17.316  31.953  33.808  1.00  0.00     0.158 HD
ATOM     62 1H14 UNL     1      16.702  33.383  34.158  1.00  0.00     0.158 HD
ENDBRANCH  57  60
ENDBRANCH  43  54
ENDBRANCH  40  43
ENDBRANCH   4  39
TORSDOF 16
ENDMDL
MODEL 5
REMARK VINA RESULT: -9.318701029      3.058      8.799
REMARK  16 active torsions:
REMARK  status: ('A' for Active; 'I' for Inactive)
REMARK    1  A    between atoms: C4_7  and  O1_8 
REMARK    2  A    between atoms: C5_10  and  N3_11 
REMARK    3  A    between atoms: C8_17  and  N5_18 
REMARK    4  A    between atoms: N5_18  and  N6_20 
REMARK    5  A    between atoms: N6_20  and  N7_22 
REMARK    6  A    between atoms: C9_27  and  N9_28 
REMARK    7  A    between atoms: C10_31  and  N11_32 
REMARK       I    between atoms: N11_32  and  C11_34 
REMARK    8  A    between atoms: C11_34  and  C12_36 
REMARK    9  A    between atoms: C12_36  and  N12_37 
REMARK   10  A    between atoms: C12_36  and  C17_47 
REMARK   11  A    between atoms: N12_37  and  O3_39 
REMARK   12  A    between atoms: O3_39  and  C13_40 
REMARK   13  A    between atoms: C13_40  and  C14_41 
REMARK   14  A    between atoms: C13_40  and  C16_44 
REMARK   15  A    between atoms: C14_41  and  C15_42 
REMARK   16  A    between atoms: C19_51  and  N14_52 
ROOT
HETATM    1  N9  UNL     1      11.125  32.253  25.189  1.00  0.00    -0.173 N 
HETATM    2  N10 UNL     1      12.059  32.482  26.106  1.00  0.00    -0.119 N 
ATOM      3  H10 UNL     1      13.061  32.367  25.951  1.00  0.00     0.206 HD
HETATM    4  C10 UNL     1      11.512  32.884  27.260  1.00  0.00     0.704 A 
HETATM    5  N15 UNL     1      10.182  32.893  27.016  1.00  0.00    -0.138 N 
ATOM      6  H15 UNL     1       9.468  33.155  27.696  1.00  0.00     0.189 HD
HETATM    7  C20 UNL     1       9.930  32.508  25.750  1.00  0.00     0.362 A 
HETATM    8  O6  UNL     1       8.829  32.388  25.152  1.00  0.00    -0.244 OA
ENDROOT
BRANCH   1   9
HETATM    9  C9  UNL     1      11.455  31.867  23.849  1.00  0.00     0.152 A 
HETATM   10  N8  UNL     1      11.664  30.542  23.592  1.00  0.00    -0.324 N 
HETATM   11  C5  UNL     1      11.972  30.088  22.375  1.00  0.00     0.144 A 
ATOM     12  H8  UNL     1      11.580  29.874  24.357  1.00  0.00     0.169 HD
HETATM   13  C4  UNL     1      12.070  31.040  21.379  1.00  0.00     0.138 A 
HETATM   14  C3  UNL     1      11.868  32.379  21.597  1.00  0.00     0.090 A 
HETATM   15  N2  UNL     1      11.965  33.308  20.634  1.00  0.00    -0.349 N 
HETATM   16  C21 UNL     1      11.545  32.835  22.884  1.00  0.00     0.108 A 
HETATM   17  C2  UNL     1      11.767  34.619  20.863  1.00  0.00     0.186 A 
ATOM     18  H2  UNL     1      12.200  33.008  19.688  1.00  0.00     0.166 HD
HETATM   19  N1  UNL     1      11.457  35.096  22.079  1.00  0.00    -0.314 N 
HETATM   20  C1  UNL     1      11.239  36.524  22.332  1.00  0.00     0.160 C 
HETATM   21  C22 UNL     1      11.350  34.184  23.082  1.00  0.00     0.264 A 
HETATM   22  O7  UNL     1      11.059  34.614  24.223  1.00  0.00    -0.267 OA
BRANCH  11  23
HETATM   23  N3  UNL     1      12.192  28.695  22.095  1.00  0.00    -0.318 N 
HETATM   24  C6  UNL     1      13.489  28.067  22.069  1.00  0.00     0.156 C 
HETATM   25  C7  UNL     1      13.218  26.607  22.236  1.00  0.00     0.257 C 
HETATM   26  N4  UNL     1      11.796  26.411  22.249  1.00  0.00    -0.034 N 
HETATM   27  C8  UNL     1      11.211  27.679  21.800  1.00  0.00     0.408 C 
ATOM     28  H42 UNL     1      11.491  25.606  21.703  1.00  0.00     0.281 HD
ATOM     29  H41 UNL     1      11.437  26.093  23.150  1.00  0.00     0.281 HD
BRANCH  27  30
HETATM   30  N5  UNL     1      10.870  27.562  20.418  1.00  0.00    -0.275 N 
ATOM     31  H5  UNL     1      11.245  28.234  19.749  1.00  0.00     0.185 HD
BRANCH  30  32
HETATM   32  N6  UNL     1      10.120  26.647  20.018  1.00  0.00    -0.251 N 
ATOM     33  H6  UNL     1      10.363  26.632  19.027  1.00  0.00     0.207 HD
BRANCH  32  34
HETATM   34  N7  UNL     1       9.272  25.749  20.052  1.00  0.00    -0.331 N 
ATOM     35  H72 UNL     1       9.231  25.649  21.066  1.00  0.00     0.178 HD
ATOM     36  H71 UNL     1       8.600  25.057  19.718  1.00  0.00     0.178 HD
ENDBRANCH  32  34
ENDBRANCH  30  32
ENDBRANCH  27  30
ENDBRANCH  11  23
BRANCH  13  37
HETATM   37  O1  UNL     1      12.389  30.578  20.109  1.00  0.00    -0.355 OA
ATOM     38  H1  UNL     1      13.096  30.978  19.616  1.00  0.00     0.218 HD
ENDBRANCH  13  37
ENDBRANCH   1   9
BRANCH   4  39
HETATM   39  N11 UNL     1      12.120  33.195  28.377  1.00  0.00    -0.152 N 
HETATM   40  C11 UNL     1      12.885  32.186  29.018  1.00  0.00     0.289 C 
HETATM   41  O2  UNL     1      12.188  31.360  29.695  1.00  0.00    -0.265 OA
ATOM     42  H11 UNL     1      12.047  34.132  28.774  1.00  0.00     0.187 HD
BRANCH  40  43
HETATM   43  C12 UNL     1      14.294  31.991  28.994  1.00  0.00     0.141 C 
BRANCH  43  44
HETATM   44  N12 UNL     1      14.881  31.510  27.951  1.00  0.00    -0.259 N 
ATOM     45  H12 UNL     1      14.763  32.022  27.077  1.00  0.00     0.194 HD
BRANCH  44  46
HETATM   46  O3  UNL     1      15.635  30.394  27.909  1.00  0.00    -0.263 OA
BRANCH  46  47
HETATM   47  C13 UNL     1      15.405  29.472  26.870  1.00  0.00     0.253 C 
BRANCH  47  48
HETATM   48  C14 UNL     1      16.561  29.239  25.956  1.00  0.00     0.056 C 
BRANCH  48  49
HETATM   49  C15 UNL     1      17.009  27.816  25.846  1.00  0.00     0.089 C 
HETATM   50  S1  UNL     1      16.244  26.921  24.480  1.00  0.00    -0.098 SA
ENDBRANCH  48  49
ENDBRANCH  47  48
BRANCH  47  51
HETATM   51  C16 UNL     1      14.266  29.929  26.013  1.00  0.00     0.205 C 
HETATM   52  O4  UNL     1      14.450  30.593  24.980  1.00  0.00    -0.646 OA
HETATM   53  O5  UNL     1      12.974  29.594  26.401  1.00  0.00    -0.646 OA
ENDBRANCH  47  51
ENDBRANCH  46  47
ENDBRANCH  44  46
ENDBRANCH  43  44
BRANCH  43  54
HETATM   54  C17 UNL     1      15.223  32.294  30.105  1.00  0.00     0.058 A 
HETATM   55  C18 UNL     1      16.290  33.136  30.197  1.00  0.00     0.111 A 
HETATM   56  N13 UNL     1      16.949  33.190  31.324  1.00  0.00    -0.345 N 
HETATM   57  C19 UNL     1      16.559  32.428  32.337  1.00  0.00     0.142 A 
ATOM     58  H13 UNL     1      17.753  33.811  31.423  1.00  0.00     0.167 HD
HETATM   59  S2  UNL     1      15.219  31.599  31.695  1.00  0.00    -0.051 SA
BRANCH  57  60
HETATM   60  N14 UNL     1      17.102  32.356  33.537  1.00  0.00    -0.380 N 
ATOM     61 2H14 UNL     1      18.031  32.038  33.816  1.00  0.00     0.158 HD
ATOM     62 1H14 UNL     1      16.674  32.616  34.425  1.00  0.00     0.158 HD
ENDBRANCH  57  60
ENDBRANCH  43  54
ENDBRANCH  40  43
ENDBRANCH   4  39
TORSDOF 16
ENDMDL
