MODEL 1
REMARK VINA RESULT: -7.467902420      0.000      0.000
REMARK  8 active torsions:
REMARK  status: ('A' for Active; 'I' for Inactive)
REMARK    1  A    between atoms: C2_2  and  N1_3 
REMARK       I    between atoms: N2_8  and  C7_9 
REMARK    2  A    between atoms: C7_9  and  C8_11 
REMARK    3  A    between atoms: C8_11  and  N3_12 
REMARK    4  A    between atoms: C8_11  and  C17_27 
REMARK       I    between atoms: N3_12  and  C9_14 
REMARK       I    between atoms: C9_14  and  N4_16 
REMARK    5  A    between atoms: N4_16  and  C10_18 
REMARK    6  A    between atoms: C10_18  and  C11_19 
REMARK    7  A    between atoms: C10_18  and  C14_22 
REMARK    8  A    between atoms: C14_22  and  O3_25 
ROOT
HETATM    1  C8  UNL     1     -20.836 -39.687   0.956  1.00  0.00     0.185 C 
ENDROOT
BRANCH   1   2
HETATM    2  C7  UNL     1     -21.338 -39.361   2.282  1.00  0.00     0.243 C 
HETATM    3  N2  UNL     1     -21.381 -40.186   3.421  1.00  0.00    -0.349 N 
HETATM    4  C6  UNL     1     -20.852 -41.520   3.329  1.00  0.00     0.127 C 
HETATM    5  C21 UNL     1     -21.971 -39.633   4.638  1.00  0.00     0.154 C 
HETATM    6  C5  UNL     1     -20.199 -41.869   4.673  1.00  0.00     0.048 C 
HETATM    7  C4  UNL     1     -19.379 -40.715   5.111  1.00  0.00     0.238 C 
HETATM    8  N1  UNL     1     -19.989 -39.856   6.078  1.00  0.00    -0.070 N 
HETATM    9  C3  UNL     1     -18.918 -39.026   6.641  1.00  0.00     0.272 C 
HETATM   10  C22 UNL     1     -20.945 -38.970   5.494  1.00  0.00     0.256 C 
HETATM   11  O1  UNL     1     -21.801 -38.161   2.441  1.00  0.00    -0.271 OA
BRANCH   8  12
HETATM   12  C2  UNL     1     -20.632 -40.608   7.152  1.00  0.00     0.232 C 
HETATM   13  C1  UNL     1     -20.998 -39.704   8.310  1.00  0.00     0.035 C 
ENDBRANCH   8  12
ENDBRANCH   1   2
BRANCH   1  14
HETATM   14  N3  UNL     1     -20.502 -38.398   0.298  1.00  0.00    -0.329 N 
HETATM   15  C9  UNL     1     -19.187 -38.089  -0.072  1.00  0.00     0.317 C 
HETATM   16  O2  UNL     1     -18.240 -38.881   0.135  1.00  0.00    -0.247 OA
HETATM   17  N4  UNL     1     -18.910 -36.861  -0.692  1.00  0.00    -0.335 N 
ATOM     18  H4  UNL     1     -19.679 -36.213  -0.862  1.00  0.00     0.164 HD
ATOM     19  H3  UNL     1     -21.245 -37.724   0.111  1.00  0.00     0.165 HD
BRANCH  17  20
HETATM   20  C10 UNL     1     -17.550 -36.472  -1.107  1.00  0.00     0.123 C 
BRANCH  20  21
HETATM   21  C11 UNL     1     -17.174 -35.328  -0.229  1.00  0.00     0.003 C 
HETATM   22  C12 UNL     1     -18.035 -35.466   1.038  1.00  0.00     0.011 C 
HETATM   23  C13 UNL     1     -15.758 -35.305   0.248  1.00  0.00     0.011 C 
ENDBRANCH  20  21
BRANCH  20  24
HETATM   24  C14 UNL     1     -17.629 -36.197  -2.567  1.00  0.00     0.071 C 
HETATM   25  C15 UNL     1     -18.152 -34.824  -2.922  1.00  0.00     0.047 C 
HETATM   26  C16 UNL     1     -18.349 -37.285  -3.336  1.00  0.00     0.047 C 
BRANCH  24  27
HETATM   27  O3  UNL     1     -16.293 -36.218  -3.040  1.00  0.00    -0.389 OA
ATOM     28  H3  UNL     1     -16.218 -35.486  -3.642  1.00  0.00     0.210 HD
ENDBRANCH  24  27
ENDBRANCH  20  24
ENDBRANCH  17  20
ENDBRANCH   1  14
BRANCH   1  29
HETATM   29  C17 UNL     1     -21.848 -40.370   0.057  1.00  0.00    -0.022 C 
HETATM   30  C18 UNL     1     -21.300 -41.629  -0.527  1.00  0.00     0.017 C 
HETATM   31  C19 UNL     1     -23.167 -40.601   0.745  1.00  0.00     0.017 C 
HETATM   32  C20 UNL     1     -22.108 -39.411  -1.108  1.00  0.00     0.017 C 
ENDBRANCH   1  29
TORSDOF 8
ENDMDL
MODEL 2
REMARK VINA RESULT: -7.395219267      2.264      4.723
REMARK  8 active torsions:
REMARK  status: ('A' for Active; 'I' for Inactive)
REMARK    1  A    between atoms: C2_2  and  N1_3 
REMARK       I    between atoms: N2_8  and  C7_9 
REMARK    2  A    between atoms: C7_9  and  C8_11 
REMARK    3  A    between atoms: C8_11  and  N3_12 
REMARK    4  A    between atoms: C8_11  and  C17_27 
REMARK       I    between atoms: N3_12  and  C9_14 
REMARK       I    between atoms: C9_14  and  N4_16 
REMARK    5  A    between atoms: N4_16  and  C10_18 
REMARK    6  A    between atoms: C10_18  and  C11_19 
REMARK    7  A    between atoms: C10_18  and  C14_22 
REMARK    8  A    between atoms: C14_22  and  O3_25 
ROOT
HETATM    1  C8  UNL     1     -17.292 -36.958   3.236  1.00  0.00     0.185 C 
ENDROOT
BRANCH   1   2
HETATM    2  C7  UNL     1     -17.831 -38.272   3.551  1.00  0.00     0.243 C 
HETATM    3  N2  UNL     1     -18.992 -38.582   4.282  1.00  0.00    -0.349 N 
HETATM    4  C6  UNL     1     -19.803 -37.504   4.782  1.00  0.00     0.127 C 
HETATM    5  C21 UNL     1     -19.305 -39.994   4.494  1.00  0.00     0.154 C 
HETATM    6  C5  UNL     1     -21.272 -37.940   4.711  1.00  0.00     0.048 C 
HETATM    7  C4  UNL     1     -21.513 -38.572   3.392  1.00  0.00     0.238 C 
HETATM    8  N1  UNL     1     -21.498 -40.003   3.383  1.00  0.00    -0.070 N 
HETATM    9  C3  UNL     1     -22.107 -40.422   2.115  1.00  0.00     0.272 C 
HETATM   10  C22 UNL     1     -20.173 -40.535   3.409  1.00  0.00     0.256 C 
HETATM   11  O1  UNL     1     -17.163 -39.288   3.102  1.00  0.00    -0.271 OA
BRANCH   8  12
HETATM   12  C2  UNL     1     -22.260 -40.566   4.493  1.00  0.00     0.232 C 
HETATM   13  C1  UNL     1     -23.556 -41.183   4.010  1.00  0.00     0.035 C 
ENDBRANCH   8  12
ENDBRANCH   1   2
BRANCH   1  14
HETATM   14  N3  UNL     1     -16.803 -37.022   1.835  1.00  0.00    -0.329 N 
HETATM   15  C9  UNL     1     -17.555 -36.495   0.777  1.00  0.00     0.317 C 
HETATM   16  O2  UNL     1     -18.667 -35.950   0.965  1.00  0.00    -0.247 OA
HETATM   17  N4  UNL     1     -17.060 -36.574  -0.534  1.00  0.00    -0.335 N 
ATOM     18  H4  UNL     1     -16.155 -37.017  -0.690  1.00  0.00     0.164 HD
ATOM     19  H3  UNL     1     -15.902 -37.458   1.639  1.00  0.00     0.165 HD
BRANCH  17  20
HETATM   20  C10 UNL     1     -17.798 -36.040  -1.693  1.00  0.00     0.123 C 
BRANCH  20  21
HETATM   21  C11 UNL     1     -18.175 -37.228  -2.509  1.00  0.00     0.003 C 
HETATM   22  C12 UNL     1     -18.518 -38.342  -1.505  1.00  0.00     0.011 C 
HETATM   23  C13 UNL     1     -19.389 -37.076  -3.368  1.00  0.00     0.011 C 
ENDBRANCH  20  21
BRANCH  20  24
HETATM   24  C14 UNL     1     -16.895 -35.048  -2.334  1.00  0.00     0.071 C 
HETATM   25  C15 UNL     1     -15.901 -34.402  -1.395  1.00  0.00     0.047 C 
HETATM   26  C16 UNL     1     -17.637 -34.016  -3.157  1.00  0.00     0.047 C 
BRANCH  24  27
HETATM   27  O3  UNL     1     -16.108 -35.778  -3.259  1.00  0.00    -0.389 OA
ATOM     28  H3  UNL     1     -15.714 -35.133  -3.835  1.00  0.00     0.210 HD
ENDBRANCH  24  27
ENDBRANCH  20  24
ENDBRANCH  17  20
ENDBRANCH   1  14
BRANCH   1  29
HETATM   29  C17 UNL     1     -16.100 -36.553   4.081  1.00  0.00    -0.022 C 
HETATM   30  C18 UNL     1     -15.540 -37.715   4.830  1.00  0.00     0.017 C 
HETATM   31  C19 UNL     1     -15.042 -35.841   3.280  1.00  0.00     0.017 C 
HETATM   32  C20 UNL     1     -16.624 -35.559   5.122  1.00  0.00     0.017 C 
ENDBRANCH   1  29
TORSDOF 8
ENDMDL
MODEL 3
REMARK VINA RESULT: -7.216229760      2.583      3.790
REMARK  8 active torsions:
REMARK  status: ('A' for Active; 'I' for Inactive)
REMARK    1  A    between atoms: C2_2  and  N1_3 
REMARK       I    between atoms: N2_8  and  C7_9 
REMARK    2  A    between atoms: C7_9  and  C8_11 
REMARK    3  A    between atoms: C8_11  and  N3_12 
REMARK    4  A    between atoms: C8_11  and  C17_27 
REMARK       I    between atoms: N3_12  and  C9_14 
REMARK       I    between atoms: C9_14  and  N4_16 
REMARK    5  A    between atoms: N4_16  and  C10_18 
REMARK    6  A    between atoms: C10_18  and  C11_19 
REMARK    7  A    between atoms: C10_18  and  C14_22 
REMARK    8  A    between atoms: C14_22  and  O3_25 
ROOT
HETATM    1  C8  UNL     1     -19.736 -38.933   1.767  1.00  0.00     0.185 C 
ENDROOT
BRANCH   1   2
HETATM    2  C7  UNL     1     -20.885 -39.187   2.624  1.00  0.00     0.243 C 
HETATM    3  N2  UNL     1     -21.309 -40.415   3.164  1.00  0.00    -0.349 N 
HETATM    4  C6  UNL     1     -20.535 -41.595   2.892  1.00  0.00     0.127 C 
HETATM    5  C21 UNL     1     -22.526 -40.415   3.974  1.00  0.00     0.154 C 
HETATM    6  C5  UNL     1     -20.576 -42.491   4.137  1.00  0.00     0.048 C 
HETATM    7  C4  UNL     1     -20.347 -41.645   5.333  1.00  0.00     0.238 C 
HETATM    8  N1  UNL     1     -21.523 -41.263   6.052  1.00  0.00    -0.070 N 
HETATM    9  C3  UNL     1     -21.075 -40.769   7.360  1.00  0.00     0.272 C 
HETATM   10  C22 UNL     1     -22.227 -40.195   5.418  1.00  0.00     0.256 C 
HETATM   11  O1  UNL     1     -21.608 -38.157   2.933  1.00  0.00    -0.271 OA
BRANCH   8  12
HETATM   12  C2  UNL     1     -22.435 -42.385   6.248  1.00  0.00     0.232 C 
HETATM   13  C1  UNL     1     -22.004 -43.245   7.417  1.00  0.00     0.035 C 
ENDBRANCH   8  12
ENDBRANCH   1   2
BRANCH   1  14
HETATM   14  N3  UNL     1     -19.024 -37.764   2.345  1.00  0.00    -0.329 N 
HETATM   15  C9  UNL     1     -17.703 -37.871   2.802  1.00  0.00     0.317 C 
HETATM   16  O2  UNL     1     -17.069 -38.949   2.744  1.00  0.00    -0.247 OA
HETATM   17  N4  UNL     1     -17.063 -36.745   3.341  1.00  0.00    -0.335 N 
ATOM     18  H4  UNL     1     -17.577 -35.864   3.390  1.00  0.00     0.164 HD
ATOM     19  H3  UNL     1     -19.504 -36.868   2.411  1.00  0.00     0.165 HD
BRANCH  17  20
HETATM   20  C10 UNL     1     -15.676 -36.785   3.840  1.00  0.00     0.123 C 
BRANCH  20  21
HETATM   21  C11 UNL     1     -15.716 -36.150   5.188  1.00  0.00     0.003 C 
HETATM   22  C12 UNL     1     -17.131 -35.566   5.339  1.00  0.00     0.011 C 
HETATM   23  C13 UNL     1     -15.535 -37.070   6.352  1.00  0.00     0.011 C 
ENDBRANCH  20  21
BRANCH  20  24
HETATM   24  C14 UNL     1     -14.848 -36.109   2.806  1.00  0.00     0.071 C 
HETATM   25  C15 UNL     1     -13.811 -35.156   3.354  1.00  0.00     0.047 C 
HETATM   26  C16 UNL     1     -15.676 -35.464   1.713  1.00  0.00     0.047 C 
BRANCH  24  27
HETATM   27  O3  UNL     1     -14.108 -37.134   2.167  1.00  0.00    -0.389 OA
ATOM     28  H3  UNL     1     -14.288 -37.047   1.238  1.00  0.00     0.210 HD
ENDBRANCH  24  27
ENDBRANCH  20  24
ENDBRANCH  17  20
ENDBRANCH   1  14
BRANCH   1  29
HETATM   29  C17 UNL     1     -20.092 -38.549   0.344  1.00  0.00    -0.022 C 
HETATM   30  C18 UNL     1     -21.167 -39.424  -0.207  1.00  0.00     0.017 C 
HETATM   31  C19 UNL     1     -20.436 -37.088   0.211  1.00  0.00     0.017 C 
HETATM   32  C20 UNL     1     -18.837 -38.796  -0.497  1.00  0.00     0.017 C 
ENDBRANCH   1  29
TORSDOF 8
ENDMDL
MODEL 4
REMARK VINA RESULT: -6.965797959      2.885      4.331
REMARK  8 active torsions:
REMARK  status: ('A' for Active; 'I' for Inactive)
REMARK    1  A    between atoms: C2_2  and  N1_3 
REMARK       I    between atoms: N2_8  and  C7_9 
REMARK    2  A    between atoms: C7_9  and  C8_11 
REMARK    3  A    between atoms: C8_11  and  N3_12 
REMARK    4  A    between atoms: C8_11  and  C17_27 
REMARK       I    between atoms: N3_12  and  C9_14 
REMARK       I    between atoms: C9_14  and  N4_16 
REMARK    5  A    between atoms: N4_16  and  C10_18 
REMARK    6  A    between atoms: C10_18  and  C11_19 
REMARK    7  A    between atoms: C10_18  and  C14_22 
REMARK    8  A    between atoms: C14_22  and  O3_25 
ROOT
HETATM    1  C8  UNL     1     -19.080 -38.090   1.485  1.00  0.00     0.185 C 
ENDROOT
BRANCH   1   2
HETATM    2  C7  UNL     1     -20.232 -38.267   2.356  1.00  0.00     0.243 C 
HETATM    3  N2  UNL     1     -20.885 -39.466   2.698  1.00  0.00    -0.349 N 
HETATM    4  C6  UNL     1     -20.378 -40.704   2.172  1.00  0.00     0.127 C 
HETATM    5  C21 UNL     1     -22.053 -39.376   3.572  1.00  0.00     0.154 C 
HETATM    6  C5  UNL     1     -20.567 -41.789   3.240  1.00  0.00     0.048 C 
HETATM    7  C4  UNL     1     -20.136 -41.243   4.549  1.00  0.00     0.238 C 
HETATM    8  N1  UNL     1     -21.187 -40.777   5.399  1.00  0.00    -0.070 N 
HETATM    9  C3  UNL     1     -20.610 -40.632   6.741  1.00  0.00     0.272 C 
HETATM   10  C22 UNL     1     -21.674 -39.492   5.010  1.00  0.00     0.256 C 
HETATM   11  O1  UNL     1     -20.719 -37.191   2.888  1.00  0.00    -0.271 OA
BRANCH   8  12
HETATM   12  C2  UNL     1     -22.305 -41.713   5.453  1.00  0.00     0.232 C 
HETATM   13  C1  UNL     1     -22.044 -42.821   6.452  1.00  0.00     0.035 C 
ENDBRANCH   8  12
ENDBRANCH   1   2
BRANCH   1  14
HETATM   14  N3  UNL     1     -18.257 -37.006   2.081  1.00  0.00    -0.329 N 
HETATM   15  C9  UNL     1     -17.107 -37.293   2.828  1.00  0.00     0.317 C 
HETATM   16  O2  UNL     1     -16.724 -38.468   3.025  1.00  0.00    -0.247 OA
HETATM   17  N4  UNL     1     -16.355 -36.242   3.375  1.00  0.00    -0.335 N 
ATOM     18  H4  UNL     1     -16.665 -35.283   3.217  1.00  0.00     0.164 HD
ATOM     19  H3  UNL     1     -18.535 -36.034   1.944  1.00  0.00     0.165 HD
BRANCH  17  20
HETATM   20  C10 UNL     1     -15.136 -36.472   4.171  1.00  0.00     0.123 C 
BRANCH  20  21
HETATM   21  C11 UNL     1     -15.470 -36.029   5.554  1.00  0.00     0.003 C 
HETATM   22  C12 UNL     1     -16.872 -35.402   5.471  1.00  0.00     0.011 C 
HETATM   23  C13 UNL     1     -15.575 -37.110   6.581  1.00  0.00     0.011 C 
ENDBRANCH  20  21
BRANCH  20  24
HETATM   24  C14 UNL     1     -14.048 -35.732   3.477  1.00  0.00     0.071 C 
HETATM   25  C15 UNL     1     -13.471 -34.577   4.263  1.00  0.00     0.047 C 
HETATM   26  C16 UNL     1     -14.418 -35.319   2.068  1.00  0.00     0.047 C 
BRANCH  24  27
HETATM   27  O3  UNL     1     -12.980 -36.653   3.335  1.00  0.00    -0.389 OA
ATOM     28  H3  UNL     1     -12.413 -36.295   2.662  1.00  0.00     0.210 HD
ENDBRANCH  24  27
ENDBRANCH  20  24
ENDBRANCH  17  20
ENDBRANCH   1  14
BRANCH   1  29
HETATM   29  C17 UNL     1     -19.424 -37.634   0.080  1.00  0.00    -0.022 C 
HETATM   30  C18 UNL     1     -20.871 -37.833  -0.221  1.00  0.00     0.017 C 
HETATM   31  C19 UNL     1     -18.987 -36.218  -0.189  1.00  0.00     0.017 C 
HETATM   32  C20 UNL     1     -18.639 -38.538  -0.873  1.00  0.00     0.017 C 
ENDBRANCH   1  29
TORSDOF 8
ENDMDL
MODEL 5
REMARK VINA RESULT: -6.953778173      1.544      2.170
REMARK  8 active torsions:
REMARK  status: ('A' for Active; 'I' for Inactive)
REMARK    1  A    between atoms: C2_2  and  N1_3 
REMARK       I    between atoms: N2_8  and  C7_9 
REMARK    2  A    between atoms: C7_9  and  C8_11 
REMARK    3  A    between atoms: C8_11  and  N3_12 
REMARK    4  A    between atoms: C8_11  and  C17_27 
REMARK       I    between atoms: N3_12  and  C9_14 
REMARK       I    between atoms: C9_14  and  N4_16 
REMARK    5  A    between atoms: N4_16  and  C10_18 
REMARK    6  A    between atoms: C10_18  and  C11_19 
REMARK    7  A    between atoms: C10_18  and  C14_22 
REMARK    8  A    between atoms: C14_22  and  O3_25 
ROOT
HETATM    1  C8  UNL     1     -20.736 -39.602   0.871  1.00  0.00     0.185 C 
ENDROOT
BRANCH   1   2
HETATM    2  C7  UNL     1     -21.015 -39.368   2.280  1.00  0.00     0.243 C 
HETATM    3  N2  UNL     1     -20.118 -39.420   3.362  1.00  0.00    -0.349 N 
HETATM    4  C6  UNL     1     -18.733 -39.709   3.100  1.00  0.00     0.127 C 
HETATM    5  C21 UNL     1     -20.654 -39.178   4.700  1.00  0.00     0.154 C 
HETATM    6  C5  UNL     1     -17.882 -38.900   4.086  1.00  0.00     0.048 C 
HETATM    7  C4  UNL     1     -18.410 -37.516   4.139  1.00  0.00     0.238 C 
HETATM    8  N1  UNL     1     -19.265 -37.224   5.248  1.00  0.00    -0.070 N 
HETATM    9  C3  UNL     1     -19.372 -35.762   5.324  1.00  0.00     0.272 C 
HETATM   10  C22 UNL     1     -20.587 -37.734   5.068  1.00  0.00     0.256 C 
HETATM   11  O1  UNL     1     -22.240 -39.071   2.580  1.00  0.00    -0.271 OA
BRANCH   8  12
HETATM   12  C2  UNL     1     -18.726 -37.734   6.505  1.00  0.00     0.232 C 
HETATM   13  C1  UNL     1     -17.800 -36.726   7.153  1.00  0.00     0.035 C 
ENDBRANCH   8  12
ENDBRANCH   1   2
BRANCH   1  14
HETATM   14  N3  UNL     1     -20.480 -38.273   0.260  1.00  0.00    -0.329 N 
HETATM   15  C9  UNL     1     -19.224 -37.944  -0.267  1.00  0.00     0.317 C 
HETATM   16  O2  UNL     1     -18.267 -38.752  -0.246  1.00  0.00    -0.247 OA
HETATM   17  N4  UNL     1     -19.020 -36.678  -0.837  1.00  0.00    -0.335 N 
ATOM     18  H4  UNL     1     -19.797 -36.017  -0.855  1.00  0.00     0.164 HD
ATOM     19  H3  UNL     1     -21.233 -37.586   0.223  1.00  0.00     0.165 HD
BRANCH  17  20
HETATM   20  C10 UNL     1     -17.725 -36.266  -1.409  1.00  0.00     0.123 C 
BRANCH  20  21
HETATM   21  C11 UNL     1     -17.200 -35.212  -0.496  1.00  0.00     0.003 C 
HETATM   22  C12 UNL     1     -17.906 -35.430   0.853  1.00  0.00     0.011 C 
HETATM   23  C13 UNL     1     -15.737 -35.272  -0.198  1.00  0.00     0.011 C 
ENDBRANCH  20  21
BRANCH  20  24
HETATM   24  C14 UNL     1     -18.008 -35.856  -2.810  1.00  0.00     0.071 C 
HETATM   25  C15 UNL     1     -17.294 -36.674  -3.862  1.00  0.00     0.047 C 
HETATM   26  C16 UNL     1     -17.827 -34.370  -3.041  1.00  0.00     0.047 C 
BRANCH  24  27
HETATM   27  O3  UNL     1     -19.387 -36.108  -3.019  1.00  0.00    -0.389 OA
ATOM     28  H3  UNL     1     -19.619 -35.650  -3.819  1.00  0.00     0.210 HD
ENDBRANCH  24  27
ENDBRANCH  20  24
ENDBRANCH  17  20
ENDBRANCH   1  14
BRANCH   1  29
HETATM   29  C17 UNL     1     -21.893 -40.206   0.098  1.00  0.00    -0.022 C 
HETATM   30  C18 UNL     1     -23.007 -40.607   1.004  1.00  0.00     0.017 C 
HETATM   31  C19 UNL     1     -22.372 -39.310  -1.014  1.00  0.00     0.017 C 
HETATM   32  C20 UNL     1     -21.359 -41.486  -0.551  1.00  0.00     0.017 C 
ENDBRANCH   1  29
TORSDOF 8
ENDMDL
