MODEL 1
REMARK VINA RESULT: -3.052620049      0.000      0.000
REMARK  1 active torsions:
REMARK  status: ('A' for Active; 'I' for Inactive)
REMARK    1  A    between atoms: C2_2  and  N1_3 
ROOT
HETATM    1  N1  UNL     1      21.074  32.940   7.732  1.00  0.00    -0.288 N 
HETATM    2  C3  UNL     1      22.121  33.428   8.428  1.00  0.00     0.130 A 
HETATM    3  C4  UNL     1      22.838  32.352   8.904  1.00  0.00     0.127 A 
HETATM    4  N2  UNL     1      22.194  31.241   8.477  1.00  0.00    -0.296 N 
ATOM      5  H2  UNL     1      22.472  30.278   8.662  1.00  0.00     0.187 HD
HETATM    6  N3  UNL     1      21.132  31.628   7.772  1.00  0.00    -0.241 N 
ATOM      7  H3  UNL     1      20.463  30.999   7.329  1.00  0.00     0.208 HD
ENDROOT
BRANCH   1   8
HETATM    8  C2  UNL     1      20.087  33.793   7.077  1.00  0.00     0.145 C 
HETATM    9  C1  UNL     1      20.603  34.360   5.787  1.00  0.00     0.028 C 
ENDBRANCH   1   8
TORSDOF 1
ENDMDL
MODEL 2
REMARK VINA RESULT: -2.312082203      1.251      3.122
REMARK  1 active torsions:
REMARK  status: ('A' for Active; 'I' for Inactive)
REMARK    1  A    between atoms: C2_2  and  N1_3 
ROOT
HETATM    1  N1  UNL     1      21.324  32.568   7.592  1.00  0.00    -0.288 N 
HETATM    2  C3  UNL     1      20.812  33.741   8.017  1.00  0.00     0.130 A 
HETATM    3  C4  UNL     1      20.442  34.459   6.900  1.00  0.00     0.127 A 
HETATM    4  N2  UNL     1      20.747  33.689   5.830  1.00  0.00    -0.296 N 
ATOM      5  H2  UNL     1      20.597  33.935   4.852  1.00  0.00     0.187 HD
HETATM    6  N3  UNL     1      21.278  32.554   6.279  1.00  0.00    -0.241 N 
ATOM      7  H3  UNL     1      21.602  31.786   5.691  1.00  0.00     0.208 HD
ENDROOT
BRANCH   1   8
HETATM    8  C2  UNL     1      21.824  31.542   8.502  1.00  0.00     0.145 C 
HETATM    9  C1  UNL     1      23.027  32.009   9.267  1.00  0.00     0.028 C 
ENDBRANCH   1   8
TORSDOF 1
ENDMDL
MODEL 3
REMARK VINA RESULT: -2.061486512      8.273      8.959
REMARK  1 active torsions:
REMARK  status: ('A' for Active; 'I' for Inactive)
REMARK    1  A    between atoms: C2_2  and  N1_3 
ROOT
HETATM    1  N1  UNL     1      15.678  35.522  13.483  1.00  0.00    -0.288 N 
HETATM    2  C3  UNL     1      16.290  35.635  12.286  1.00  0.00     0.130 A 
HETATM    3  C4  UNL     1      17.299  36.564  12.423  1.00  0.00     0.127 A 
HETATM    4  N2  UNL     1      17.262  36.985  13.709  1.00  0.00    -0.296 N 
ATOM      5  H2  UNL     1      17.881  37.675  14.132  1.00  0.00     0.187 HD
HETATM    6  N3  UNL     1      16.273  36.339  14.324  1.00  0.00    -0.241 N 
ATOM      7  H3  UNL     1      16.015  36.460  15.303  1.00  0.00     0.208 HD
ENDROOT
BRANCH   1   8
HETATM    8  C2  UNL     1      14.553  34.624  13.720  1.00  0.00     0.145 C 
HETATM    9  C1  UNL     1      14.168  34.579  15.170  1.00  0.00     0.028 C 
ENDBRANCH   1   8
TORSDOF 1
ENDMDL
MODEL 4
REMARK VINA RESULT: -1.909823870      8.238      8.825
REMARK  1 active torsions:
REMARK  status: ('A' for Active; 'I' for Inactive)
REMARK    1  A    between atoms: C2_2  and  N1_3 
ROOT
HETATM    1  N1  UNL     1      16.308  35.984  13.340  1.00  0.00    -0.288 N 
HETATM    2  C3  UNL     1      15.521  34.906  13.144  1.00  0.00     0.130 A 
HETATM    3  C4  UNL     1      14.805  34.700  14.304  1.00  0.00     0.127 A 
HETATM    4  N2  UNL     1      15.189  35.668  15.169  1.00  0.00    -0.296 N 
ATOM      5  H2  UNL     1      14.843  35.793  16.120  1.00  0.00     0.187 HD
HETATM    6  N3  UNL     1      16.097  36.427  14.559  1.00  0.00    -0.241 N 
ATOM      7  H3  UNL     1      16.560  37.234  14.977  1.00  0.00     0.208 HD
ENDROOT
BRANCH   1   8
HETATM    8  C2  UNL     1      17.214  36.504  12.321  1.00  0.00     0.145 C 
HETATM    9  C1  UNL     1      18.427  37.149  12.925  1.00  0.00     0.028 C 
ENDBRANCH   1   8
TORSDOF 1
ENDMDL
MODEL 5
REMARK VINA RESULT: -1.881236695      8.524      9.022
REMARK  1 active torsions:
REMARK  status: ('A' for Active; 'I' for Inactive)
REMARK    1  A    between atoms: C2_2  and  N1_3 
ROOT
HETATM    1  N1  UNL     1      15.667  35.477  13.351  1.00  0.00    -0.288 N 
HETATM    2  C3  UNL     1      15.627  35.644  14.689  1.00  0.00     0.130 A 
HETATM    3  C4  UNL     1      14.584  34.881  15.170  1.00  0.00     0.127 A 
HETATM    4  N2  UNL     1      14.025  34.275  14.097  1.00  0.00    -0.296 N 
ATOM      5  H2  UNL     1      13.227  33.640  14.115  1.00  0.00     0.187 HD
HETATM    6  N3  UNL     1      14.699  34.654  13.013  1.00  0.00    -0.241 N 
ATOM      7  H3  UNL     1      14.495  34.351  12.061  1.00  0.00     0.208 HD
ENDROOT
BRANCH   1   8
HETATM    8  C2  UNL     1      16.648  36.136  12.496  1.00  0.00     0.145 C 
HETATM    9  C1  UNL     1      17.749  36.773  13.292  1.00  0.00     0.028 C 
ENDBRANCH   1   8
TORSDOF 1
ENDMDL
