MODEL 1
REMARK VINA RESULT: -1.835440204      0.000      0.000
REMARK  2 active torsions:
REMARK  status: ('A' for Active; 'I' for Inactive)
REMARK    1  A    between atoms: C2_5  and  C3_6 
REMARK    2  A    between atoms: C3_6  and  N3_7 
ROOT
HETATM    1  C1  UNL     1      14.093  34.607  15.170  1.00  0.00     0.200 C 
HETATM    2  N1  UNL     1      14.986  35.038  14.112  1.00  0.00    -0.239 N 
HETATM    3  N2  UNL     1      16.105  35.699  14.344  1.00  0.00    -0.286 N 
ATOM      4  H2  UNL     1      16.438  35.961  15.271  1.00  0.00     0.188 HD
HETATM    5  C2  UNL     1      16.749  35.981  13.198  1.00  0.00     0.069 A 
HETATM    6  C4  UNL     1      15.966  35.452  12.197  1.00  0.00     0.137 A 
HETATM    7  N4  UNL     1      14.910  34.893  12.818  1.00  0.00    -0.294 N 
ATOM      8  H4  UNL     1      14.146  34.416  12.338  1.00  0.00     0.187 HD
ENDROOT
BRANCH   5   9
HETATM    9  C3  UNL     1      18.027  36.711  13.128  1.00  0.00     0.289 C 
BRANCH   9  10
HETATM   10  N3  UNL     1      17.940  37.885  13.913  1.00  0.00    -0.074 N 
ATOM     11  H33 UNL     1      16.976  38.120  14.149  1.00  0.00     0.274 HD
ATOM     12  H32 UNL     1      18.291  37.743  14.861  1.00  0.00     0.274 HD
ATOM     13  H31 UNL     1      18.419  38.648  13.435  1.00  0.00     0.274 HD
ENDBRANCH   9  10
ENDBRANCH   5   9
TORSDOF 2
ENDMDL
MODEL 2
REMARK VINA RESULT: -1.747040975      1.368      3.478
REMARK  2 active torsions:
REMARK  status: ('A' for Active; 'I' for Inactive)
REMARK    1  A    between atoms: C2_5  and  C3_6 
REMARK    2  A    between atoms: C3_6  and  N3_7 
ROOT
HETATM    1  C1  UNL     1      18.601  37.233  12.736  1.00  0.00     0.200 C 
HETATM    2  N1  UNL     1      17.374  36.485  12.931  1.00  0.00    -0.239 N 
HETATM    3  N2  UNL     1      16.795  36.354  14.111  1.00  0.00    -0.286 N 
ATOM      4  H2  UNL     1      17.152  36.758  14.976  1.00  0.00     0.188 HD
HETATM    5  C2  UNL     1      15.674  35.616  14.022  1.00  0.00     0.069 A 
HETATM    6  C4  UNL     1      15.563  35.276  12.693  1.00  0.00     0.137 A 
HETATM    7  N4  UNL     1      16.626  35.835  12.084  1.00  0.00    -0.294 N 
ATOM      8  H4  UNL     1      16.823  35.759  11.086  1.00  0.00     0.187 HD
ENDROOT
BRANCH   5   9
HETATM    9  C3  UNL     1      14.808  35.292  15.169  1.00  0.00     0.289 C 
BRANCH   9  10
HETATM   10  N3  UNL     1      14.024  34.157  14.858  1.00  0.00    -0.074 N 
ATOM     11  H33 UNL     1      13.648  33.707  15.693  1.00  0.00     0.274 HD
ATOM     12  H32 UNL     1      13.138  34.407  14.418  1.00  0.00     0.274 HD
ATOM     13  H31 UNL     1      14.571  33.514  14.286  1.00  0.00     0.274 HD
ENDBRANCH   9  10
ENDBRANCH   5   9
TORSDOF 2
ENDMDL
MODEL 3
REMARK VINA RESULT: -1.707534005      8.207      9.174
REMARK  2 active torsions:
REMARK  status: ('A' for Active; 'I' for Inactive)
REMARK    1  A    between atoms: C2_5  and  C3_6 
REMARK    2  A    between atoms: C3_6  and  N3_7 
ROOT
HETATM    1  C1  UNL     1      20.121  34.546   4.756  1.00  0.00     0.200 C 
HETATM    2  N1  UNL     1      20.600  34.208   6.082  1.00  0.00    -0.239 N 
HETATM    3  N2  UNL     1      20.961  32.984   6.424  1.00  0.00    -0.286 N 
ATOM      4  H2  UNL     1      20.935  32.180   5.797  1.00  0.00     0.188 HD
HETATM    5  C2  UNL     1      21.365  32.937   7.705  1.00  0.00     0.069 A 
HETATM    6  C4  UNL     1      21.244  34.224   8.176  1.00  0.00     0.137 A 
HETATM    7  N4  UNL     1      20.774  34.948   7.141  1.00  0.00    -0.294 N 
ATOM      8  H4  UNL     1      20.578  35.948   7.181  1.00  0.00     0.187 HD
ENDROOT
BRANCH   5   9
HETATM    9  C3  UNL     1      21.828  31.711   8.378  1.00  0.00     0.289 C 
BRANCH   9  10
HETATM   10  N3  UNL     1      21.306  30.581   7.706  1.00  0.00    -0.074 N 
ATOM     11  H33 UNL     1      20.458  30.800   7.183  1.00  0.00     0.274 HD
ATOM     12  H32 UNL     1      21.890  30.295   6.920  1.00  0.00     0.274 HD
ATOM     13  H31 UNL     1      21.163  29.825   8.375  1.00  0.00     0.274 HD
ENDBRANCH   9  10
ENDBRANCH   5   9
TORSDOF 2
ENDMDL
MODEL 4
REMARK VINA RESULT: -1.496270165      8.245      9.029
REMARK  2 active torsions:
REMARK  status: ('A' for Active; 'I' for Inactive)
REMARK    1  A    between atoms: C2_5  and  C3_6 
REMARK    2  A    between atoms: C3_6  and  N3_7 
ROOT
HETATM    1  C1  UNL     1      22.597  31.572   8.700  1.00  0.00     0.200 C 
HETATM    2  N1  UNL     1      21.837  32.689   8.171  1.00  0.00    -0.239 N 
HETATM    3  N2  UNL     1      21.316  32.690   6.957  1.00  0.00    -0.286 N 
ATOM      4  H2  UNL     1      21.400  31.921   6.293  1.00  0.00     0.188 HD
HETATM    5  C2  UNL     1      20.662  33.838   6.712  1.00  0.00     0.069 A 
HETATM    6  C4  UNL     1      20.792  34.588   7.858  1.00  0.00     0.137 A 
HETATM    7  N4  UNL     1      21.517  33.833   8.706  1.00  0.00    -0.294 N 
ATOM      8  H4  UNL     1      21.782  34.120   9.648  1.00  0.00     0.187 HD
ENDROOT
BRANCH   5   9
HETATM    9  C3  UNL     1      19.975  34.140   5.443  1.00  0.00     0.289 C 
BRANCH   9  10
HETATM   10  N3  UNL     1      20.904  34.067   4.378  1.00  0.00    -0.074 N 
ATOM     11  H33 UNL     1      21.760  34.585   4.575  1.00  0.00     0.274 HD
ATOM     12  H32 UNL     1      21.315  33.138   4.288  1.00  0.00     0.274 HD
ATOM     13  H31 UNL     1      20.455  34.375   3.516  1.00  0.00     0.274 HD
ENDBRANCH   9  10
ENDBRANCH   5   9
TORSDOF 2
ENDMDL
MODEL 5
REMARK VINA RESULT: -1.432190694      1.120      1.124
REMARK  2 active torsions:
REMARK  status: ('A' for Active; 'I' for Inactive)
REMARK    1  A    between atoms: C2_5  and  C3_6 
REMARK    2  A    between atoms: C3_6  and  N3_7 
ROOT
HETATM    1  C1  UNL     1      14.717  34.547  14.570  1.00  0.00     0.200 C 
HETATM    2  N1  UNL     1      15.613  35.286  13.702  1.00  0.00    -0.239 N 
HETATM    3  N2  UNL     1      16.557  36.087  14.161  1.00  0.00    -0.286 N 
ATOM      4  H2  UNL     1      16.738  36.256  15.150  1.00  0.00     0.188 HD
HETATM    5  C2  UNL     1      17.247  36.651  13.155  1.00  0.00     0.069 A 
HETATM    6  C4  UNL     1      16.684  36.156  12.001  1.00  0.00     0.137 A 
HETATM    7  N4  UNL     1      15.696  35.333  12.402  1.00  0.00    -0.294 N 
ATOM      8  H4  UNL     1      15.090  34.811  11.769  1.00  0.00     0.187 HD
ENDROOT
BRANCH   5   9
HETATM    9  C3  UNL     1      18.364  37.594  13.347  1.00  0.00     0.289 C 
BRANCH   9  10
HETATM   10  N3  UNL     1      19.363  37.342  12.378  1.00  0.00    -0.074 N 
ATOM     11  H33 UNL     1      19.791  36.423  12.494  1.00  0.00     0.274 HD
ATOM     12  H32 UNL     1      18.971  37.202  11.446  1.00  0.00     0.274 HD
ATOM     13  H31 UNL     1      20.051  38.095  12.398  1.00  0.00     0.274 HD
ENDBRANCH   9  10
ENDBRANCH   5   9
TORSDOF 2
ENDMDL
