MODEL 1
REMARK VINA RESULT: -6.791345012      0.000      0.000
REMARK  12 active torsions:
REMARK  status: ('A' for Active; 'I' for Inactive)
REMARK    1  A    between atoms: C2_2  and  C4_4 
REMARK    2  A    between atoms: C4_4  and  C5_5 
REMARK       I    between atoms: C5_5  and  N1_7 
REMARK    3  A    between atoms: C6_9  and  C7_10 
REMARK    4  A    between atoms: C7_10  and  C8_11 
REMARK    5  A    between atoms: N3_18  and  C14_19 
REMARK    6  A    between atoms: C14_19  and  N4_21 
REMARK    7  A    between atoms: N4_21  and  C15_23 
REMARK    8  A    between atoms: C15_23  and  C16_24 
REMARK    9  A    between atoms: C17_25  and  C18_26 
REMARK   10  A    between atoms: C18_26  and  O2_27 
REMARK   11  A    between atoms: O2_27  and  C19_28 
REMARK   12  A    between atoms: C19_28  and  N6_32 
ROOT
HETATM    1  C8  UNL     1      -1.831   4.841  22.089  1.00  0.00     0.117 C 
HETATM    2  C9  UNL     1      -2.670   6.093  21.836  1.00  0.00     0.262 C 
HETATM    3  N2  UNL     1      -2.560   6.566  20.498  1.00  0.00    -0.071 N 
HETATM    4  C10 UNL     1      -1.278   7.141  20.182  1.00  0.00     0.272 C 
HETATM    5  C11 UNL     1      -3.545   7.657  20.371  1.00  0.00     0.272 C 
HETATM    6  C12 UNL     1      -2.999   5.550  19.569  1.00  0.00     0.256 C 
HETATM    7  C13 UNL     1      -2.423   4.209  19.812  1.00  0.00     0.154 C 
HETATM    8  N3  UNL     1      -2.190   3.801  21.201  1.00  0.00    -0.350 N 
ENDROOT
BRANCH   8   9
HETATM    9  C14 UNL     1      -2.268   2.411  21.457  1.00  0.00     0.171 C 
HETATM   10  S1  UNL     1      -3.763   1.715  21.048  1.00  0.00    -0.041 SA
BRANCH   9  11
HETATM   11  N4  UNL     1      -1.413   1.485  22.033  1.00  0.00    -0.357 N 
ATOM     12  H4  UNL     1      -1.899   0.897  22.710  1.00  0.00     0.162 HD
BRANCH  11  13
HETATM   13  C15 UNL     1      -0.046   1.139  21.931  1.00  0.00     0.216 C 
BRANCH  13  14
HETATM   14  C16 UNL     1       0.332   1.005  20.477  1.00  0.00    -0.085 C 
HETATM   15  C17 UNL     1       0.626   0.927  19.315  1.00  0.00    -0.078 C 
BRANCH  15  16
HETATM   16  C18 UNL     1       0.986   0.862  17.901  1.00  0.00     0.272 C 
BRANCH  16  17
HETATM   17  O2  UNL     1       0.005   0.060  17.247  1.00  0.00    -0.310 OA
BRANCH  17  18
HETATM   18  C19 UNL     1       0.467  -1.141  16.734  1.00  0.00     0.215 C 
HETATM   19  N5  UNL     1       1.415  -1.831  17.276  1.00  0.00    -0.365 N 
ATOM     20  H52 UNL     1       1.841  -1.463  18.127  1.00  0.00     0.159 HD
ATOM     21  H51 UNL     1       1.755  -2.715  16.899  1.00  0.00     0.159 HD
BRANCH  18  22
HETATM   22  N6  UNL     1      -0.125  -1.652  15.551  1.00  0.00    -0.348 N 
HETATM   23  C20 UNL     1      -1.135  -1.191  14.619  1.00  0.00     0.128 C 
HETATM   24  C21 UNL     1      -1.300  -2.572  14.035  1.00  0.00     0.040 C 
HETATM   25  C22 UNL     1       0.002  -2.864  14.743  1.00  0.00     0.128 C 
ENDBRANCH  18  22
ENDBRANCH  17  18
ENDBRANCH  16  17
ENDBRANCH  15  16
ENDBRANCH  13  14
ENDBRANCH  11  13
ENDBRANCH   9  11
ENDBRANCH   8   9
BRANCH   1  26
HETATM   26  C7  UNL     1      -1.827   4.655  23.567  1.00  0.00     0.071 C 
BRANCH  26  27
HETATM   27  C6  UNL     1      -3.020   5.127  24.264  1.00  0.00     0.066 C 
HETATM   28  N1  UNL     1      -3.119   5.365  25.504  1.00  0.00    -0.341 N 
HETATM   29  C5  UNL     1      -2.108   5.233  26.473  1.00  0.00     0.221 C 
ATOM     30  H1  UNL     1      -4.029   5.687  25.835  1.00  0.00     0.167 HD
HETATM   31  O1  UNL     1      -1.039   4.592  26.247  1.00  0.00    -0.273 OA
BRANCH  29  32
HETATM   32  C4  UNL     1      -2.239   5.846  27.832  1.00  0.00     0.106 C 
BRANCH  32  33
HETATM   33  C2  UNL     1      -0.941   5.844  28.584  1.00  0.00    -0.014 C 
HETATM   34  C1  UNL     1      -0.921   4.708  29.581  1.00  0.00     0.010 C 
HETATM   35  C3  UNL     1      -0.673   7.163  29.259  1.00  0.00     0.010 C 
ENDBRANCH  32  33
ENDBRANCH  29  32
ENDBRANCH  26  27
ENDBRANCH   1  26
TORSDOF 12
ENDMDL
MODEL 2
REMARK VINA RESULT: -6.624441196      4.271      7.556
REMARK  12 active torsions:
REMARK  status: ('A' for Active; 'I' for Inactive)
REMARK    1  A    between atoms: C2_2  and  C4_4 
REMARK    2  A    between atoms: C4_4  and  C5_5 
REMARK       I    between atoms: C5_5  and  N1_7 
REMARK    3  A    between atoms: C6_9  and  C7_10 
REMARK    4  A    between atoms: C7_10  and  C8_11 
REMARK    5  A    between atoms: N3_18  and  C14_19 
REMARK    6  A    between atoms: C14_19  and  N4_21 
REMARK    7  A    between atoms: N4_21  and  C15_23 
REMARK    8  A    between atoms: C15_23  and  C16_24 
REMARK    9  A    between atoms: C17_25  and  C18_26 
REMARK   10  A    between atoms: C18_26  and  O2_27 
REMARK   11  A    between atoms: O2_27  and  C19_28 
REMARK   12  A    between atoms: C19_28  and  N6_32 
ROOT
HETATM    1  C8  UNL     1      -7.083   2.905  19.074  1.00  0.00     0.117 C 
HETATM    2  C9  UNL     1      -8.259   3.852  19.299  1.00  0.00     0.262 C 
HETATM    3  N2  UNL     1      -9.462   3.387  18.698  1.00  0.00    -0.071 N 
HETATM    4  C10 UNL     1      -9.459   3.442  17.259  1.00  0.00     0.272 C 
HETATM    5  C11 UNL     1     -10.523   4.310  19.144  1.00  0.00     0.272 C 
HETATM    6  C12 UNL     1      -9.829   2.099  19.240  1.00  0.00     0.256 C 
HETATM    7  C13 UNL     1      -8.724   1.116  19.281  1.00  0.00     0.154 C 
HETATM    8  N3  UNL     1      -7.372   1.610  19.563  1.00  0.00    -0.350 N 
ENDROOT
BRANCH   8   9
HETATM    9  C14 UNL     1      -6.505   0.699  20.211  1.00  0.00     0.171 C 
HETATM   10  S1  UNL     1      -6.823  -0.932  19.855  1.00  0.00    -0.041 SA
BRANCH   9  11
HETATM   11  N4  UNL     1      -5.479   0.830  21.134  1.00  0.00    -0.357 N 
ATOM     12  H4  UNL     1      -5.664   1.583  21.795  1.00  0.00     0.162 HD
BRANCH  11  13
HETATM   13  C15 UNL     1      -4.244   0.196  21.401  1.00  0.00     0.216 C 
BRANCH  13  14
HETATM   14  C16 UNL     1      -3.117   1.049  20.875  1.00  0.00    -0.085 C 
HETATM   15  C17 UNL     1      -2.237   1.752  20.458  1.00  0.00    -0.078 C 
BRANCH  15  16
HETATM   16  C18 UNL     1      -1.181   2.631  19.961  1.00  0.00     0.272 C 
BRANCH  16  17
HETATM   17  O2  UNL     1      -0.397   3.033  21.082  1.00  0.00    -0.310 OA
BRANCH  17  18
HETATM   18  C19 UNL     1      -0.633   4.320  21.539  1.00  0.00     0.215 C 
HETATM   19  N5  UNL     1      -0.483   5.376  20.810  1.00  0.00    -0.365 N 
ATOM     20  H52 UNL     1      -0.172   5.245  19.847  1.00  0.00     0.159 HD
ATOM     21  H51 UNL     1      -0.657   6.322  21.146  1.00  0.00     0.159 HD
BRANCH  18  22
HETATM   22  N6  UNL     1      -1.066   4.500  22.878  1.00  0.00    -0.348 N 
HETATM   23  C20 UNL     1      -0.486   4.283  24.189  1.00  0.00     0.128 C 
HETATM   24  C21 UNL     1      -1.836   4.376  24.856  1.00  0.00     0.040 C 
HETATM   25  C22 UNL     1      -2.279   4.975  23.543  1.00  0.00     0.128 C 
ENDBRANCH  18  22
ENDBRANCH  17  18
ENDBRANCH  16  17
ENDBRANCH  15  16
ENDBRANCH  13  14
ENDBRANCH  11  13
ENDBRANCH   9  11
ENDBRANCH   8   9
BRANCH   1  26
HETATM   26  C7  UNL     1      -5.872   3.660  19.501  1.00  0.00     0.071 C 
BRANCH  26  27
HETATM   27  C6  UNL     1      -6.050   4.527  20.663  1.00  0.00     0.066 C 
HETATM   28  N1  UNL     1      -5.278   5.463  21.025  1.00  0.00    -0.341 N 
HETATM   29  C5  UNL     1      -4.092   5.874  20.389  1.00  0.00     0.221 C 
ATOM     30  H1  UNL     1      -5.543   5.974  21.867  1.00  0.00     0.167 HD
HETATM   31  O1  UNL     1      -3.516   5.161  19.515  1.00  0.00    -0.273 OA
BRANCH  29  32
HETATM   32  C4  UNL     1      -3.442   7.184  20.711  1.00  0.00     0.106 C 
BRANCH  32  33
HETATM   33  C2  UNL     1      -3.397   8.102  19.525  1.00  0.00    -0.014 C 
HETATM   34  C1  UNL     1      -1.998   8.138  18.951  1.00  0.00     0.010 C 
HETATM   35  C3  UNL     1      -3.881   9.488  19.860  1.00  0.00     0.010 C 
ENDBRANCH  32  33
ENDBRANCH  29  32
ENDBRANCH  26  27
ENDBRANCH   1  26
TORSDOF 12
ENDMDL
MODEL 3
REMARK VINA RESULT: -6.620725706      3.140      5.702
REMARK  12 active torsions:
REMARK  status: ('A' for Active; 'I' for Inactive)
REMARK    1  A    between atoms: C2_2  and  C4_4 
REMARK    2  A    between atoms: C4_4  and  C5_5 
REMARK       I    between atoms: C5_5  and  N1_7 
REMARK    3  A    between atoms: C6_9  and  C7_10 
REMARK    4  A    between atoms: C7_10  and  C8_11 
REMARK    5  A    between atoms: N3_18  and  C14_19 
REMARK    6  A    between atoms: C14_19  and  N4_21 
REMARK    7  A    between atoms: N4_21  and  C15_23 
REMARK    8  A    between atoms: C15_23  and  C16_24 
REMARK    9  A    between atoms: C17_25  and  C18_26 
REMARK   10  A    between atoms: C18_26  and  O2_27 
REMARK   11  A    between atoms: O2_27  and  C19_28 
REMARK   12  A    between atoms: C19_28  and  N6_32 
ROOT
HETATM    1  C8  UNL     1      -1.234   3.023  24.254  1.00  0.00     0.117 C 
HETATM    2  C9  UNL     1       0.104   2.292  24.169  1.00  0.00     0.262 C 
HETATM    3  N2  UNL     1       0.143   1.121  24.976  1.00  0.00    -0.071 N 
HETATM    4  C10 UNL     1       0.170   1.383  26.391  1.00  0.00     0.272 C 
HETATM    5  C11 UNL     1       1.417   0.448  24.655  1.00  0.00     0.272 C 
HETATM    6  C12 UNL     1      -0.887   0.194  24.565  1.00  0.00     0.256 C 
HETATM    7  C13 UNL     1      -2.226   0.802  24.401  1.00  0.00     0.154 C 
HETATM    8  N3  UNL     1      -2.302   2.172  23.884  1.00  0.00    -0.350 N 
ENDROOT
BRANCH   8   9
HETATM    9  C14 UNL     1      -3.472   2.492  23.155  1.00  0.00     0.171 C 
HETATM   10  S1  UNL     1      -4.874   2.597  24.108  1.00  0.00    -0.041 SA
BRANCH   9  11
HETATM   11  N4  UNL     1      -3.752   2.681  21.811  1.00  0.00    -0.357 N 
ATOM     12  H4  UNL     1      -4.361   3.487  21.665  1.00  0.00     0.162 HD
BRANCH  11  13
HETATM   13  C15 UNL     1      -3.419   2.054  20.589  1.00  0.00     0.216 C 
BRANCH  13  14
HETATM   14  C16 UNL     1      -2.005   1.534  20.660  1.00  0.00    -0.085 C 
HETATM   15  C17 UNL     1      -0.886   1.106  20.742  1.00  0.00    -0.078 C 
BRANCH  15  16
HETATM   16  C18 UNL     1       0.466   0.565  20.861  1.00  0.00     0.272 C 
BRANCH  16  17
HETATM   17  O2  UNL     1       1.279   1.227  19.895  1.00  0.00    -0.310 OA
BRANCH  17  18
HETATM   18  C19 UNL     1       1.513   0.515  18.729  1.00  0.00     0.215 C 
HETATM   19  N5  UNL     1       1.314   0.997  17.547  1.00  0.00    -0.365 N 
ATOM     20  H52 UNL     1       0.965   1.953  17.478  1.00  0.00     0.159 HD
ATOM     21  H51 UNL     1       1.486   0.473  16.689  1.00  0.00     0.159 HD
BRANCH  18  22
HETATM   22  N6  UNL     1       1.998  -0.813  18.826  1.00  0.00    -0.348 N 
HETATM   23  C20 UNL     1       3.180  -1.443  19.382  1.00  0.00     0.128 C 
HETATM   24  C21 UNL     1       2.922  -2.718  18.616  1.00  0.00     0.040 C 
HETATM   25  C22 UNL     1       1.542  -2.139  18.410  1.00  0.00     0.128 C 
ENDBRANCH  18  22
ENDBRANCH  17  18
ENDBRANCH  16  17
ENDBRANCH  15  16
ENDBRANCH  13  14
ENDBRANCH  11  13
ENDBRANCH   9  11
ENDBRANCH   8   9
BRANCH   1  26
HETATM   26  C7  UNL     1      -1.012   4.343  23.602  1.00  0.00     0.071 C 
BRANCH  26  27
HETATM   27  C6  UNL     1      -0.262   4.308  22.350  1.00  0.00     0.066 C 
HETATM   28  N1  UNL     1      -0.607   4.840  21.254  1.00  0.00    -0.341 N 
HETATM   29  C5  UNL     1      -1.777   5.580  21.006  1.00  0.00     0.221 C 
ATOM     30  H1  UNL     1       0.031   4.720  20.467  1.00  0.00     0.167 HD
HETATM   31  O1  UNL     1      -2.762   5.568  21.802  1.00  0.00    -0.273 OA
BRANCH  29  32
HETATM   32  C4  UNL     1      -1.924   6.429  19.781  1.00  0.00     0.106 C 
BRANCH  32  33
HETATM   33  C2  UNL     1      -2.442   7.801  20.099  1.00  0.00    -0.014 C 
HETATM   34  C1  UNL     1      -3.800   8.002  19.465  1.00  0.00     0.010 C 
HETATM   35  C3  UNL     1      -1.482   8.883  19.680  1.00  0.00     0.010 C 
ENDBRANCH  32  33
ENDBRANCH  29  32
ENDBRANCH  26  27
ENDBRANCH   1  26
TORSDOF 12
ENDMDL
MODEL 4
REMARK VINA RESULT: -6.504395499      2.731      9.721
REMARK  12 active torsions:
REMARK  status: ('A' for Active; 'I' for Inactive)
REMARK    1  A    between atoms: C2_2  and  C4_4 
REMARK    2  A    between atoms: C4_4  and  C5_5 
REMARK       I    between atoms: C5_5  and  N1_7 
REMARK    3  A    between atoms: C6_9  and  C7_10 
REMARK    4  A    between atoms: C7_10  and  C8_11 
REMARK    5  A    between atoms: N3_18  and  C14_19 
REMARK    6  A    between atoms: C14_19  and  N4_21 
REMARK    7  A    between atoms: N4_21  and  C15_23 
REMARK    8  A    between atoms: C15_23  and  C16_24 
REMARK    9  A    between atoms: C17_25  and  C18_26 
REMARK   10  A    between atoms: C18_26  and  O2_27 
REMARK   11  A    between atoms: O2_27  and  C19_28 
REMARK   12  A    between atoms: C19_28  and  N6_32 
ROOT
HETATM    1  C8  UNL     1      -0.110   1.581  20.973  1.00  0.00     0.117 C 
HETATM    2  C9  UNL     1      -0.489   0.697  19.787  1.00  0.00     0.262 C 
HETATM    3  N2  UNL     1       0.558  -0.187  19.404  1.00  0.00    -0.071 N 
HETATM    4  C10 UNL     1       1.684   0.466  18.789  1.00  0.00     0.272 C 
HETATM    5  C11 UNL     1      -0.016  -1.075  18.375  1.00  0.00     0.272 C 
HETATM    6  C12 UNL     1       0.906  -1.058  20.503  1.00  0.00     0.256 C 
HETATM    7  C13 UNL     1       1.109  -0.363  21.793  1.00  0.00     0.154 C 
HETATM    8  N3  UNL     1       0.265   0.798  22.090  1.00  0.00    -0.350 N 
ENDROOT
BRANCH   8   9
HETATM    9  C14 UNL     1       0.004   1.037  23.461  1.00  0.00     0.171 C 
HETATM   10  S1  UNL     1      -1.116  -0.039  24.150  1.00  0.00    -0.041 SA
BRANCH   9  11
HETATM   11  N4  UNL     1       0.411   2.002  24.368  1.00  0.00    -0.357 N 
ATOM     12  H4  UNL     1       0.786   1.582  25.218  1.00  0.00     0.162 HD
BRANCH  11  13
HETATM   13  C15 UNL     1       0.444   3.414  24.429  1.00  0.00     0.216 C 
BRANCH  13  14
HETATM   14  C16 UNL     1      -0.530   3.896  25.475  1.00  0.00    -0.085 C 
HETATM   15  C17 UNL     1      -1.287   4.270  26.328  1.00  0.00    -0.078 C 
BRANCH  15  16
HETATM   16  C18 UNL     1      -2.186   4.725  27.387  1.00  0.00     0.272 C 
BRANCH  16  17
HETATM   17  O2  UNL     1      -1.864   3.991  28.565  1.00  0.00    -0.310 OA
BRANCH  17  18
HETATM   18  C19 UNL     1      -0.937   4.590  29.403  1.00  0.00     0.215 C 
HETATM   19  N5  UNL     1       0.078   3.968  29.904  1.00  0.00    -0.365 N 
ATOM     20  H52 UNL     1       0.194   2.983  29.666  1.00  0.00     0.159 HD
ATOM     21  H51 UNL     1       0.761   4.408  30.520  1.00  0.00     0.159 HD
BRANCH  18  22
HETATM   22  N6  UNL     1      -1.098   5.959  29.733  1.00  0.00    -0.348 N 
HETATM   23  C20 UNL     1      -0.403   7.189  29.407  1.00  0.00     0.128 C 
HETATM   24  C21 UNL     1      -1.077   7.929  30.536  1.00  0.00     0.040 C 
HETATM   25  C22 UNL     1      -2.021   6.750  30.547  1.00  0.00     0.128 C 
ENDBRANCH  18  22
ENDBRANCH  17  18
ENDBRANCH  16  17
ENDBRANCH  15  16
ENDBRANCH  13  14
ENDBRANCH  11  13
ENDBRANCH   9  11
ENDBRANCH   8   9
BRANCH   1  26
HETATM   26  C7  UNL     1      -1.173   2.620  21.055  1.00  0.00     0.071 C 
BRANCH  26  27
HETATM   27  C6  UNL     1      -1.474   3.313  19.805  1.00  0.00     0.066 C 
HETATM   28  N1  UNL     1      -1.561   4.566  19.644  1.00  0.00    -0.341 N 
HETATM   29  C5  UNL     1      -1.383   5.557  20.626  1.00  0.00     0.221 C 
ATOM     30  H1  UNL     1      -1.784   4.890  18.703  1.00  0.00     0.167 HD
HETATM   31  O1  UNL     1      -1.379   5.287  21.863  1.00  0.00    -0.273 OA
BRANCH  29  32
HETATM   32  C4  UNL     1      -1.187   6.996  20.261  1.00  0.00     0.106 C 
BRANCH  32  33
HETATM   33  C2  UNL     1      -2.435   7.617  19.705  1.00  0.00    -0.014 C 
HETATM   34  C1  UNL     1      -2.242   9.107  19.537  1.00  0.00     0.010 C 
HETATM   35  C3  UNL     1      -3.644   7.319  20.550  1.00  0.00     0.010 C 
ENDBRANCH  32  33
ENDBRANCH  29  32
ENDBRANCH  26  27
ENDBRANCH   1  26
TORSDOF 12
ENDMDL
MODEL 5
REMARK VINA RESULT: -6.496892607      2.554      9.913
REMARK  12 active torsions:
REMARK  status: ('A' for Active; 'I' for Inactive)
REMARK    1  A    between atoms: C2_2  and  C4_4 
REMARK    2  A    between atoms: C4_4  and  C5_5 
REMARK       I    between atoms: C5_5  and  N1_7 
REMARK    3  A    between atoms: C6_9  and  C7_10 
REMARK    4  A    between atoms: C7_10  and  C8_11 
REMARK    5  A    between atoms: N3_18  and  C14_19 
REMARK    6  A    between atoms: C14_19  and  N4_21 
REMARK    7  A    between atoms: N4_21  and  C15_23 
REMARK    8  A    between atoms: C15_23  and  C16_24 
REMARK    9  A    between atoms: C17_25  and  C18_26 
REMARK   10  A    between atoms: C18_26  and  O2_27 
REMARK   11  A    between atoms: O2_27  and  C19_28 
REMARK   12  A    between atoms: C19_28  and  N6_32 
ROOT
HETATM    1  C8  UNL     1      -3.281   3.295  21.143  1.00  0.00     0.117 C 
HETATM    2  C9  UNL     1      -4.646   3.449  20.475  1.00  0.00     0.262 C 
HETATM    3  N2  UNL     1      -5.650   3.903  21.375  1.00  0.00    -0.071 N 
HETATM    4  C10 UNL     1      -6.041   2.928  22.360  1.00  0.00     0.272 C 
HETATM    5  C11 UNL     1      -6.847   4.160  20.552  1.00  0.00     0.272 C 
HETATM    6  C12 UNL     1      -5.287   5.188  21.926  1.00  0.00     0.256 C 
HETATM    7  C13 UNL     1      -3.901   5.264  22.439  1.00  0.00     0.154 C 
HETATM    8  N3  UNL     1      -2.861   4.513  21.727  1.00  0.00    -0.350 N 
ENDROOT
BRANCH   8   9
HETATM    9  C14 UNL     1      -1.556   5.058  21.788  1.00  0.00     0.171 C 
HETATM   10  S1  UNL     1      -1.217   6.182  20.560  1.00  0.00    -0.041 SA
BRANCH   9  11
HETATM   11  N4  UNL     1      -0.452   4.834  22.596  1.00  0.00    -0.357 N 
ATOM     12  H4  UNL     1       0.283   5.519  22.423  1.00  0.00     0.162 HD
BRANCH  11  13
HETATM   13  C15 UNL     1      -0.075   3.908  23.595  1.00  0.00     0.216 C 
BRANCH  13  14
HETATM   14  C16 UNL     1      -0.707   4.299  24.908  1.00  0.00    -0.085 C 
HETATM   15  C17 UNL     1      -1.211   4.582  25.961  1.00  0.00    -0.078 C 
BRANCH  15  16
HETATM   16  C18 UNL     1      -1.815   4.899  27.252  1.00  0.00     0.272 C 
BRANCH  16  17
HETATM   17  O2  UNL     1      -1.379   3.911  28.183  1.00  0.00    -0.310 OA
BRANCH  17  18
HETATM   18  C19 UNL     1      -0.710   4.399  29.294  1.00  0.00     0.215 C 
HETATM   19  N5  UNL     1       0.159   3.714  29.961  1.00  0.00    -0.365 N 
ATOM     20  H52 UNL     1       0.354   2.763  29.647  1.00  0.00     0.159 HD
ATOM     21  H51 UNL     1       0.652   4.072  30.779  1.00  0.00     0.159 HD
BRANCH  18  22
HETATM   22  N6  UNL     1      -0.982   5.720  29.731  1.00  0.00    -0.348 N 
HETATM   23  C20 UNL     1      -1.990   6.345  30.564  1.00  0.00     0.128 C 
HETATM   24  C21 UNL     1      -1.634   7.719  30.051  1.00  0.00     0.040 C 
HETATM   25  C22 UNL     1      -0.385   7.042  29.540  1.00  0.00     0.128 C 
ENDBRANCH  18  22
ENDBRANCH  17  18
ENDBRANCH  16  17
ENDBRANCH  15  16
ENDBRANCH  13  14
ENDBRANCH  11  13
ENDBRANCH   9  11
ENDBRANCH   8   9
BRANCH   1  26
HETATM   26  C7  UNL     1      -2.437   2.554  20.166  1.00  0.00     0.071 C 
BRANCH  26  27
HETATM   27  C6  UNL     1      -1.993   1.230  20.594  1.00  0.00     0.066 C 
HETATM   28  N1  UNL     1      -0.955   0.623  20.197  1.00  0.00    -0.341 N 
HETATM   29  C5  UNL     1      -0.008   1.088  19.267  1.00  0.00     0.221 C 
ATOM     30  H1  UNL     1      -0.789  -0.302  20.593  1.00  0.00     0.167 HD
HETATM   31  O1  UNL     1      -0.237   2.077  18.510  1.00  0.00    -0.273 OA
BRANCH  29  32
HETATM   32  C4  UNL     1       1.333   0.437  19.120  1.00  0.00     0.106 C 
BRANCH  32  33
HETATM   33  C2  UNL     1       1.224  -1.006  18.724  1.00  0.00    -0.014 C 
HETATM   34  C1  UNL     1       2.603  -1.612  18.594  1.00  0.00     0.010 C 
HETATM   35  C3  UNL     1       0.429  -1.190  17.459  1.00  0.00     0.010 C 
ENDBRANCH  32  33
ENDBRANCH  29  32
ENDBRANCH  26  27
ENDBRANCH   1  26
TORSDOF 12
ENDMDL
