MODEL 1
REMARK VINA RESULT: -8.035873636      0.000      0.000
REMARK  5 active torsions:
REMARK  status: ('A' for Active; 'I' for Inactive)
REMARK    1  A    between atoms: N2_5  and  C3_6 
REMARK    2  A    between atoms: C6_9  and  N3_10 
REMARK    3  A    between atoms: N3_10  and  C7_12 
REMARK    4  A    between atoms: C7_12  and  C8_16 
REMARK    5  A    between atoms: C8_16  and  N5_17 
REMARK       I    between atoms: N7_33  and  C23_35 
ROOT
HETATM    1  C3  UNL     1      -1.463   0.622  19.718  1.00  0.00     0.089 C 
HETATM    2  C4  UNL     1      -1.152   2.091  19.396  1.00  0.00     0.027 C 
HETATM    3  C5  UNL     1      -1.530   2.869  20.628  1.00  0.00     0.027 C 
HETATM    4  C6  UNL     1      -2.947   2.721  21.036  1.00  0.00     0.083 C 
HETATM    5  C15 UNL     1      -3.486   1.322  20.946  1.00  0.00     0.027 C 
HETATM    6  C16 UNL     1      -2.973   0.547  19.781  1.00  0.00     0.027 C 
ENDROOT
BRANCH   1   7
HETATM    7  N2  UNL     1      -0.895  -0.263  18.761  1.00  0.00    -0.327 N 
HETATM    8  C2  UNL     1       0.401  -0.780  19.132  1.00  0.00     0.327 C 
HETATM    9  N1  UNL     1       1.189  -1.707  18.347  1.00  0.00    -0.269 N 
HETATM   10  O1  UNL     1       0.867  -0.384  20.226  1.00  0.00    -0.247 OA
HETATM   11  C1  UNL     1       2.610  -1.709  18.705  1.00  0.00     0.164 C 
HETATM   12  C22 UNL     1       0.749  -2.564  17.315  1.00  0.00     0.293 C 
HETATM   13  N6  UNL     1      -0.203  -2.226  16.294  1.00  0.00    -0.004 N 
HETATM   14  N7  UNL     1       1.201  -3.729  17.272  1.00  0.00    -0.276 N 
HETATM   15  C18 UNL     1      -0.651  -0.885  16.406  1.00  0.00     0.267 C 
HETATM   16  C19 UNL     1      -1.228  -3.243  16.183  1.00  0.00     0.249 C 
HETATM   17  C21 UNL     1       0.258  -2.621  14.963  1.00  0.00     0.249 C 
HETATM   18  C17 UNL     1      -1.596  -0.587  17.530  1.00  0.00     0.156 C 
HETATM   19  C20 UNL     1      -0.524  -3.894  15.012  1.00  0.00     0.057 C 
HETATM   20  C23 UNL     1       2.081  -4.485  18.008  1.00  0.00     0.335 C 
ATOM     21  H7  UNL     1       0.817  -4.255  16.487  1.00  0.00     0.173 HD
HETATM   22  N8  UNL     1       1.822  -4.871  19.373  1.00  0.00    -0.040 NA
HETATM   23  O2  UNL     1       3.172  -4.888  17.524  1.00  0.00    -0.251 OA
ENDBRANCH   1   7
BRANCH   4  24
HETATM   24  N3  UNL     1      -3.123   3.283  22.349  1.00  0.00    -0.374 N 
ATOM     25  H3  UNL     1      -3.287   2.642  23.125  1.00  0.00     0.161 HD
BRANCH  24  26
HETATM   26  C7  UNL     1      -3.083   4.673  22.629  1.00  0.00     0.099 C 
HETATM   27  N4  UNL     1      -2.390   5.163  23.612  1.00  0.00    -0.388 N 
ATOM     28  H42 UNL     1      -1.868   4.498  24.183  1.00  0.00     0.157 HD
ATOM     29  H41 UNL     1      -2.361   6.162  23.814  1.00  0.00     0.157 HD
BRANCH  26  30
HETATM   30  C8  UNL     1      -3.842   5.638  21.801  1.00  0.00     0.347 C 
BRANCH  30  31
HETATM   31  N5  UNL     1      -3.150   6.039  20.606  1.00  0.00     0.095 N 
HETATM   32  C9  UNL     1      -1.803   6.371  20.922  1.00  0.00     0.273 C 
HETATM   33  C10 UNL     1      -1.018   6.992  19.818  1.00  0.00     0.030 C 
HETATM   34  C11 UNL     1      -1.121   8.502  19.784  1.00  0.00     0.002 C 
HETATM   35  C12 UNL     1      -2.448   8.945  19.226  1.00  0.00     0.002 C 
HETATM   36  C13 UNL     1      -3.527   8.418  20.163  1.00  0.00     0.030 C 
HETATM   37  C14 UNL     1      -3.840   6.980  19.803  1.00  0.00     0.273 C 
ENDBRANCH  30  31
ENDBRANCH  26  30
ENDBRANCH  24  26
ENDBRANCH   4  24
TORSDOF 5
ENDMDL
MODEL 2
REMARK VINA RESULT: -7.864596788      6.307     11.110
REMARK  5 active torsions:
REMARK  status: ('A' for Active; 'I' for Inactive)
REMARK    1  A    between atoms: N2_5  and  C3_6 
REMARK    2  A    between atoms: C6_9  and  N3_10 
REMARK    3  A    between atoms: N3_10  and  C7_12 
REMARK    4  A    between atoms: C7_12  and  C8_16 
REMARK    5  A    between atoms: C8_16  and  N5_17 
REMARK       I    between atoms: N7_33  and  C23_35 
ROOT
HETATM    1  C3  UNL     1      -1.163   3.914  26.356  1.00  0.00     0.089 C 
HETATM    2  C4  UNL     1      -0.118   2.896  25.875  1.00  0.00     0.027 C 
HETATM    3  C5  UNL     1       0.266   3.329  24.486  1.00  0.00     0.027 C 
HETATM    4  C6  UNL     1      -0.864   3.397  23.530  1.00  0.00     0.083 C 
HETATM    5  C15 UNL     1      -2.124   3.997  24.084  1.00  0.00     0.027 C 
HETATM    6  C16 UNL     1      -2.388   3.646  25.509  1.00  0.00     0.027 C 
ENDROOT
BRANCH   1   7
HETATM    7  N2  UNL     1      -1.409   3.802  27.752  1.00  0.00    -0.327 N 
HETATM    8  C2  UNL     1      -1.433   5.066  28.450  1.00  0.00     0.327 C 
HETATM    9  N1  UNL     1      -1.677   5.235  29.867  1.00  0.00    -0.269 N 
HETATM   10  O1  UNL     1      -1.224   6.088  27.758  1.00  0.00    -0.247 OA
HETATM   11  C1  UNL     1      -1.200   6.519  30.388  1.00  0.00     0.164 C 
HETATM   12  C22 UNL     1      -2.290   4.327  30.758  1.00  0.00     0.293 C 
HETATM   13  N6  UNL     1      -2.088   2.907  30.778  1.00  0.00    -0.004 N 
HETATM   14  N7  UNL     1      -3.097   4.774  31.603  1.00  0.00    -0.276 N 
HETATM   15  C18 UNL     1      -1.150   2.488  29.801  1.00  0.00     0.267 C 
HETATM   16  C19 UNL     1      -3.353   2.202  30.802  1.00  0.00     0.249 C 
HETATM   17  C21 UNL     1      -1.845   2.407  32.132  1.00  0.00     0.249 C 
HETATM   18  C17 UNL     1      -1.614   2.505  28.376  1.00  0.00     0.156 C 
HETATM   19  C20 UNL     1      -3.279   2.019  32.302  1.00  0.00     0.057 C 
HETATM   20  C23 UNL     1      -3.605   6.004  31.945  1.00  0.00     0.335 C 
ATOM     21  H7  UNL     1      -3.476   4.032  32.192  1.00  0.00     0.173 HD
HETATM   22  N8  UNL     1      -4.448   6.770  31.061  1.00  0.00    -0.040 NA
HETATM   23  O2  UNL     1      -3.360   6.533  33.062  1.00  0.00    -0.251 OA
ENDBRANCH   1   7
BRANCH   4  24
HETATM   24  N3  UNL     1      -0.431   4.066  22.332  1.00  0.00    -0.374 N 
ATOM     25  H3  UNL     1       0.103   4.930  22.432  1.00  0.00     0.161 HD
BRANCH  24  26
HETATM   26  C7  UNL     1      -0.702   3.599  21.020  1.00  0.00     0.099 C 
HETATM   27  N4  UNL     1      -0.304   2.435  20.602  1.00  0.00    -0.388 N 
ATOM     28  H42 UNL     1       0.218   1.863  21.264  1.00  0.00     0.157 HD
ATOM     29  H41 UNL     1      -0.499   2.099  19.658  1.00  0.00     0.157 HD
BRANCH  26  30
HETATM   30  C8  UNL     1      -1.460   4.431  20.057  1.00  0.00     0.347 C 
BRANCH  30  31
HETATM   31  N5  UNL     1      -1.859   5.706  20.588  1.00  0.00     0.095 N 
HETATM   32  C9  UNL     1      -3.264   5.867  20.440  1.00  0.00     0.273 C 
HETATM   33  C10 UNL     1      -3.794   7.221  20.767  1.00  0.00     0.030 C 
HETATM   34  C11 UNL     1      -3.813   8.160  19.580  1.00  0.00     0.002 C 
HETATM   35  C12 UNL     1      -2.429   8.666  19.265  1.00  0.00     0.002 C 
HETATM   36  C13 UNL     1      -1.582   7.455  18.897  1.00  0.00     0.030 C 
HETATM   37  C14 UNL     1      -1.069   6.803  20.165  1.00  0.00     0.273 C 
ENDBRANCH  30  31
ENDBRANCH  26  30
ENDBRANCH  24  26
ENDBRANCH   4  24
TORSDOF 5
ENDMDL
MODEL 3
REMARK VINA RESULT: -7.578220615      1.621      2.944
REMARK  5 active torsions:
REMARK  status: ('A' for Active; 'I' for Inactive)
REMARK    1  A    between atoms: N2_5  and  C3_6 
REMARK    2  A    between atoms: C6_9  and  N3_10 
REMARK    3  A    between atoms: N3_10  and  C7_12 
REMARK    4  A    between atoms: C7_12  and  C8_16 
REMARK    5  A    between atoms: C8_16  and  N5_17 
REMARK       I    between atoms: N7_33  and  C23_35 
ROOT
HETATM    1  C3  UNL     1      -1.098   0.476  20.932  1.00  0.00     0.089 C 
HETATM    2  C4  UNL     1      -1.331   0.134  22.411  1.00  0.00     0.027 C 
HETATM    3  C5  UNL     1      -2.219   1.224  22.948  1.00  0.00     0.027 C 
HETATM    4  C6  UNL     1      -1.659   2.590  22.819  1.00  0.00     0.083 C 
HETATM    5  C15 UNL     1      -0.985   2.873  21.508  1.00  0.00     0.027 C 
HETATM    6  C16 UNL     1      -0.230   1.715  20.951  1.00  0.00     0.027 C 
ENDROOT
BRANCH   1   7
HETATM    7  N2  UNL     1      -0.514  -0.610  20.222  1.00  0.00    -0.327 N 
HETATM    8  C2  UNL     1      -1.230  -0.984  19.025  1.00  0.00     0.327 C 
HETATM    9  N1  UNL     1      -0.844  -2.042  18.116  1.00  0.00    -0.269 N 
HETATM   10  O1  UNL     1      -2.267  -0.330  18.769  1.00  0.00    -0.247 OA
HETATM   11  C1  UNL     1      -1.946  -2.511  17.271  1.00  0.00     0.164 C 
HETATM   12  C22 UNL     1       0.424  -2.645  17.973  1.00  0.00     0.293 C 
HETATM   13  N6  UNL     1       1.311  -2.997  19.045  1.00  0.00    -0.004 N 
HETATM   14  N7  UNL     1       0.842  -2.891  16.820  1.00  0.00    -0.276 N 
HETATM   15  C18 UNL     1       0.755  -2.700  20.316  1.00  0.00     0.267 C 
HETATM   16  C19 UNL     1       2.649  -2.504  18.795  1.00  0.00     0.249 C 
HETATM   17  C21 UNL     1       1.840  -4.353  18.897  1.00  0.00     0.249 C 
HETATM   18  C17 UNL     1       0.698  -1.253  20.700  1.00  0.00     0.156 C 
HETATM   19  C20 UNL     1       3.099  -3.850  18.267  1.00  0.00     0.057 C 
HETATM   20  C23 UNL     1       0.381  -2.727  15.535  1.00  0.00     0.335 C 
ATOM     21  H7  UNL     1       1.764  -3.326  16.837  1.00  0.00     0.173 HD
HETATM   22  N8  UNL     1       0.171  -1.428  14.945  1.00  0.00    -0.040 NA
HETATM   23  O2  UNL     1       0.116  -3.712  14.797  1.00  0.00    -0.251 OA
ENDBRANCH   1   7
BRANCH   4  24
HETATM   24  N3  UNL     1      -2.687   3.553  23.114  1.00  0.00    -0.374 N 
ATOM     25  H3  UNL     1      -2.754   3.903  24.070  1.00  0.00     0.161 HD
BRANCH  24  26
HETATM   26  C7  UNL     1      -3.613   4.046  22.158  1.00  0.00     0.099 C 
HETATM   27  N4  UNL     1      -4.396   3.261  21.482  1.00  0.00    -0.388 N 
ATOM     28  H42 UNL     1      -4.317   2.261  21.668  1.00  0.00     0.157 HD
ATOM     29  H41 UNL     1      -5.061   3.615  20.795  1.00  0.00     0.157 HD
BRANCH  26  30
HETATM   30  C8  UNL     1      -3.726   5.497  21.888  1.00  0.00     0.347 C 
BRANCH  30  31
HETATM   31  N5  UNL     1      -3.076   5.909  20.673  1.00  0.00     0.095 N 
HETATM   32  C9  UNL     1      -1.746   6.325  20.961  1.00  0.00     0.273 C 
HETATM   33  C10 UNL     1      -1.014   6.964  19.830  1.00  0.00     0.030 C 
HETATM   34  C11 UNL     1      -1.204   8.464  19.764  1.00  0.00     0.002 C 
HETATM   35  C12 UNL     1      -2.562   8.817  19.217  1.00  0.00     0.002 C 
HETATM   36  C13 UNL     1      -3.596   8.251  20.183  1.00  0.00     0.030 C 
HETATM   37  C14 UNL     1      -3.831   6.790  19.860  1.00  0.00     0.273 C 
ENDBRANCH  30  31
ENDBRANCH  26  30
ENDBRANCH  24  26
ENDBRANCH   4  24
TORSDOF 5
ENDMDL
MODEL 4
REMARK VINA RESULT: -7.566776751      1.872      3.249
REMARK  5 active torsions:
REMARK  status: ('A' for Active; 'I' for Inactive)
REMARK    1  A    between atoms: N2_5  and  C3_6 
REMARK    2  A    between atoms: C6_9  and  N3_10 
REMARK    3  A    between atoms: N3_10  and  C7_12 
REMARK    4  A    between atoms: C7_12  and  C8_16 
REMARK    5  A    between atoms: C8_16  and  N5_17 
REMARK       I    between atoms: N7_33  and  C23_35 
ROOT
HETATM    1  C3  UNL     1      -1.495   0.629  21.104  1.00  0.00     0.089 C 
HETATM    2  C4  UNL     1      -1.316   1.320  22.465  1.00  0.00     0.027 C 
HETATM    3  C5  UNL     1      -2.629   1.992  22.758  1.00  0.00     0.027 C 
HETATM    4  C6  UNL     1      -3.058   2.974  21.735  1.00  0.00     0.083 C 
HETATM    5  C15 UNL     1      -2.841   2.540  20.314  1.00  0.00     0.027 C 
HETATM    6  C16 UNL     1      -1.590   1.759  20.103  1.00  0.00     0.027 C 
ENDROOT
BRANCH   1   7
HETATM    7  N2  UNL     1      -0.437  -0.281  20.828  1.00  0.00    -0.327 N 
HETATM    8  C2  UNL     1      -0.836  -1.431  20.052  1.00  0.00     0.327 C 
HETATM    9  N1  UNL     1       0.044  -2.497  19.622  1.00  0.00    -0.269 N 
HETATM   10  O1  UNL     1      -2.046  -1.496  19.733  1.00  0.00    -0.247 OA
HETATM   11  C1  UNL     1      -0.668  -3.729  19.268  1.00  0.00     0.164 C 
HETATM   12  C22 UNL     1       1.452  -2.475  19.522  1.00  0.00     0.293 C 
HETATM   13  N6  UNL     1       2.349  -1.869  20.464  1.00  0.00    -0.004 N 
HETATM   14  N7  UNL     1       1.988  -3.009  18.527  1.00  0.00    -0.276 N 
HETATM   15  C18 UNL     1       1.661  -1.302  21.568  1.00  0.00     0.267 C 
HETATM   16  C19 UNL     1       3.308  -1.016  19.794  1.00  0.00     0.249 C 
HETATM   17  C21 UNL     1       3.460  -2.756  20.812  1.00  0.00     0.249 C 
HETATM   18  C17 UNL     1       0.912  -0.031  21.307  1.00  0.00     0.156 C 
HETATM   19  C20 UNL     1       4.362  -2.102  19.814  1.00  0.00     0.057 C 
HETATM   20  C23 UNL     1       1.564  -3.671  17.400  1.00  0.00     0.335 C 
ATOM     21  H7  UNL     1       3.005  -2.935  18.561  1.00  0.00     0.173 HD
HETATM   22  N8  UNL     1       0.795  -3.027  16.363  1.00  0.00    -0.040 NA
HETATM   23  O2  UNL     1       1.829  -4.887  17.208  1.00  0.00    -0.251 OA
ENDBRANCH   1   7
BRANCH   4  24
HETATM   24  N3  UNL     1      -4.426   3.348  21.981  1.00  0.00    -0.374 N 
ATOM     25  H3  UNL     1      -5.095   2.607  22.187  1.00  0.00     0.161 HD
BRANCH  24  26
HETATM   26  C7  UNL     1      -4.900   4.685  21.956  1.00  0.00     0.099 C 
HETATM   27  N4  UNL     1      -5.473   5.238  22.982  1.00  0.00    -0.388 N 
ATOM     28  H42 UNL     1      -5.570   4.664  23.819  1.00  0.00     0.157 HD
ATOM     29  H41 UNL     1      -5.814   6.199  22.963  1.00  0.00     0.157 HD
BRANCH  26  30
HETATM   30  C8  UNL     1      -4.759   5.519  20.740  1.00  0.00     0.347 C 
BRANCH  30  31
HETATM   31  N5  UNL     1      -3.839   6.614  20.896  1.00  0.00     0.095 N 
HETATM   32  C9  UNL     1      -3.967   7.506  19.796  1.00  0.00     0.273 C 
HETATM   33  C10 UNL     1      -2.941   8.584  19.721  1.00  0.00     0.030 C 
HETATM   34  C11 UNL     1      -1.710   8.188  18.935  1.00  0.00     0.002 C 
HETATM   35  C12 UNL     1      -0.828   7.265  19.735  1.00  0.00     0.002 C 
HETATM   36  C13 UNL     1      -1.636   6.005  20.017  1.00  0.00     0.030 C 
HETATM   37  C14 UNL     1      -2.515   6.238  21.230  1.00  0.00     0.273 C 
ENDBRANCH  30  31
ENDBRANCH  26  30
ENDBRANCH  24  26
ENDBRANCH   4  24
TORSDOF 5
ENDMDL
MODEL 5
REMARK VINA RESULT: -7.479425413      5.800     10.902
REMARK  5 active torsions:
REMARK  status: ('A' for Active; 'I' for Inactive)
REMARK    1  A    between atoms: N2_5  and  C3_6 
REMARK    2  A    between atoms: C6_9  and  N3_10 
REMARK    3  A    between atoms: N3_10  and  C7_12 
REMARK    4  A    between atoms: C7_12  and  C8_16 
REMARK    5  A    between atoms: C8_16  and  N5_17 
REMARK       I    between atoms: N7_33  and  C23_35 
ROOT
HETATM    1  C3  UNL     1      -2.267   4.171  25.801  1.00  0.00     0.089 C 
HETATM    2  C4  UNL     1      -2.913   5.170  24.829  1.00  0.00     0.027 C 
HETATM    3  C5  UNL     1      -2.997   4.457  23.506  1.00  0.00     0.027 C 
HETATM    4  C6  UNL     1      -1.693   3.993  22.976  1.00  0.00     0.083 C 
HETATM    5  C15 UNL     1      -0.777   3.384  23.998  1.00  0.00     0.027 C 
HETATM    6  C16 UNL     1      -0.834   4.043  25.334  1.00  0.00     0.027 C 
ENDROOT
BRANCH   1   7
HETATM    7  N2  UNL     1      -2.383   4.597  27.153  1.00  0.00    -0.327 N 
HETATM    8  C2  UNL     1      -2.921   3.596  28.043  1.00  0.00     0.327 C 
HETATM    9  N1  UNL     1      -3.128   3.764  29.466  1.00  0.00    -0.269 N 
HETATM   10  O1  UNL     1      -3.230   2.498  27.525  1.00  0.00    -0.247 OA
HETATM   11  C1  UNL     1      -4.084   2.808  30.031  1.00  0.00     0.164 C 
HETATM   12  C22 UNL     1      -2.536   4.717  30.323  1.00  0.00     0.293 C 
HETATM   13  N6  UNL     1      -2.307   6.099  30.009  1.00  0.00    -0.004 N 
HETATM   14  N7  UNL     1      -2.154   4.347  31.455  1.00  0.00    -0.276 N 
HETATM   15  C18 UNL     1      -2.782   6.438  28.717  1.00  0.00     0.267 C 
HETATM   16  C19 UNL     1      -0.945   6.483  30.318  1.00  0.00     0.249 C 
HETATM   17  C21 UNL     1      -2.745   6.986  31.087  1.00  0.00     0.249 C 
HETATM   18  C17 UNL     1      -1.980   5.934  27.555  1.00  0.00     0.156 C 
HETATM   19  C20 UNL     1      -1.361   7.075  31.647  1.00  0.00     0.057 C 
HETATM   20  C23 UNL     1      -2.143   3.173  32.170  1.00  0.00     0.335 C 
ATOM     21  H7  UNL     1      -1.746   5.115  31.986  1.00  0.00     0.173 HD
HETATM   22  N8  UNL     1      -1.359   2.029  31.774  1.00  0.00    -0.040 NA
HETATM   23  O2  UNL     1      -2.823   3.032  33.221  1.00  0.00    -0.251 OA
ENDBRANCH   1   7
BRANCH   4  24
HETATM   24  N3  UNL     1      -1.921   3.110  21.863  1.00  0.00    -0.374 N 
ATOM     25  H3  UNL     1      -2.544   2.315  22.003  1.00  0.00     0.161 HD
BRANCH  24  26
HETATM   26  C7  UNL     1      -1.333   3.278  20.583  1.00  0.00     0.099 C 
HETATM   27  N4  UNL     1      -0.370   2.518  20.156  1.00  0.00    -0.388 N 
ATOM     28  H42 UNL     1      -0.049   1.785  20.788  1.00  0.00     0.157 HD
ATOM     29  H41 UNL     1       0.053   2.638  19.236  1.00  0.00     0.157 HD
BRANCH  26  30
HETATM   30  C8  UNL     1      -1.799   4.342  19.665  1.00  0.00     0.347 C 
BRANCH  30  31
HETATM   31  N5  UNL     1      -2.095   5.584  20.328  1.00  0.00     0.095 N 
HETATM   32  C9  UNL     1      -3.457   5.930  20.108  1.00  0.00     0.273 C 
HETATM   33  C10 UNL     1      -3.857   7.290  20.570  1.00  0.00     0.030 C 
HETATM   34  C11 UNL     1      -3.675   8.359  19.515  1.00  0.00     0.002 C 
HETATM   35  C12 UNL     1      -2.223   8.729  19.360  1.00  0.00     0.002 C 
HETATM   36  C13 UNL     1      -1.488   7.477  18.897  1.00  0.00     0.030 C 
HETATM   37  C14 UNL     1      -1.156   6.621  20.102  1.00  0.00     0.273 C 
ENDBRANCH  30  31
ENDBRANCH  26  30
ENDBRANCH  24  26
ENDBRANCH   4  24
TORSDOF 5
ENDMDL
