MODEL 1
REMARK VINA RESULT: -6.215210402      0.000      0.000
REMARK  5 active torsions:
REMARK  status: ('A' for Active; 'I' for Inactive)
REMARK    1  A    between atoms: C2_2  and  C5_5 
REMARK    2  A    between atoms: C5_5  and  N2_9 
REMARK    3  A    between atoms: N2_9  and  C6_11 
REMARK    4  A    between atoms: C10_17  and  C11_18 
REMARK    5  A    between atoms: C12_21  and  C13_22 
ROOT
HETATM    1  C6  UNL     1      57.575  70.813  23.578  1.00  0.00     0.198 C 
HETATM    2  C7  UNL     1      58.856  71.529  23.365  1.00  0.00     0.245 C 
HETATM    3  O1  UNL     1      59.908  71.635  24.005  1.00  0.00    -0.271 OA
HETATM    4  N3  UNL     1      58.366  72.025  22.140  1.00  0.00    -0.327 N 
HETATM    5  C8  UNL     1      57.026  71.875  22.710  1.00  0.00     0.121 C 
HETATM    6  C9  UNL     1      56.201  71.563  21.522  1.00  0.00     0.046 C 
HETATM    7  C10 UNL     1      56.808  72.532  20.493  1.00  0.00     0.122 C 
HETATM    8  C12 UNL     1      58.266  72.546  20.785  1.00  0.00     0.203 C 
ENDROOT
BRANCH   1   9
HETATM    9  N2  UNL     1      57.532  69.454  23.180  1.00  0.00    -0.364 N 
ATOM     10  H2  UNL     1      58.298  69.111  22.600  1.00  0.00     0.161 HD
BRANCH   9  11
HETATM   11  C5  UNL     1      56.514  68.534  23.523  1.00  0.00     0.079 C 
HETATM   12  N1  UNL     1      55.370  68.978  23.871  1.00  0.00    -0.389 N 
ATOM     13  H12 UNL     1      54.636  68.315  24.117  1.00  0.00     0.157 HD
ATOM     14  H11 UNL     1      55.174  69.978  23.908  1.00  0.00     0.157 HD
BRANCH  11  15
HETATM   15  C2  UNL     1      56.797  67.089  23.468  1.00  0.00     0.007 C 
HETATM   16  C1  UNL     1      58.130  66.728  24.060  1.00  0.00     0.022 C 
HETATM   17  C3  UNL     1      56.803  66.577  22.027  1.00  0.00     0.022 C 
HETATM   18  C4  UNL     1      55.742  66.309  24.258  1.00  0.00     0.022 C 
ENDBRANCH  11  15
ENDBRANCH   9  11
ENDBRANCH   1   9
BRANCH   8  19
HETATM   19  C13 UNL     1      58.973  73.810  20.613  1.00  0.00     0.197 C 
HETATM   20  O4  UNL     1      58.849  74.490  19.567  1.00  0.00    -0.646 OA
HETATM   21  O5  UNL     1      59.825  74.327  21.602  1.00  0.00    -0.646 OA
ENDBRANCH   8  19
BRANCH   7  22
HETATM   22  C11 UNL     1      56.220  73.874  20.668  1.00  0.00     0.179 C 
HETATM   23  O2  UNL     1      55.493  74.336  19.736  1.00  0.00    -0.648 OA
HETATM   24  O3  UNL     1      56.393  74.685  21.775  1.00  0.00    -0.648 OA
ENDBRANCH   7  22
TORSDOF 5
ENDMDL
MODEL 2
REMARK VINA RESULT: -5.871700355      3.588      5.285
REMARK  5 active torsions:
REMARK  status: ('A' for Active; 'I' for Inactive)
REMARK    1  A    between atoms: C2_2  and  C5_5 
REMARK    2  A    between atoms: C5_5  and  N2_9 
REMARK    3  A    between atoms: N2_9  and  C6_11 
REMARK    4  A    between atoms: C10_17  and  C11_18 
REMARK    5  A    between atoms: C12_21  and  C13_22 
ROOT
HETATM    1  C6  UNL     1      57.729  73.910  19.765  1.00  0.00     0.198 C 
HETATM    2  C7  UNL     1      57.052  73.618  18.478  1.00  0.00     0.245 C 
HETATM    3  O1  UNL     1      57.439  73.348  17.335  1.00  0.00    -0.271 OA
HETATM    4  N3  UNL     1      55.802  73.779  19.108  1.00  0.00    -0.327 N 
HETATM    5  C8  UNL     1      56.487  74.654  20.061  1.00  0.00     0.121 C 
HETATM    6  C9  UNL     1      55.725  74.433  21.310  1.00  0.00     0.046 C 
HETATM    7  C10 UNL     1      54.289  74.390  20.761  1.00  0.00     0.122 C 
HETATM    8  C12 UNL     1      54.392  73.686  19.455  1.00  0.00     0.203 C 
ENDROOT
BRANCH   1   9
HETATM    9  N2  UNL     1      58.113  72.793  20.548  1.00  0.00    -0.364 N 
ATOM     10  H2  UNL     1      57.633  71.910  20.373  1.00  0.00     0.161 HD
BRANCH   9  11
HETATM   11  C5  UNL     1      59.108  72.804  21.553  1.00  0.00     0.079 C 
HETATM   12  N1  UNL     1      60.220  73.380  21.317  1.00  0.00    -0.389 N 
ATOM     13  H12 UNL     1      60.938  73.388  22.041  1.00  0.00     0.157 HD
ATOM     14  H11 UNL     1      60.409  73.833  20.422  1.00  0.00     0.157 HD
BRANCH  11  15
HETATM   15  C2  UNL     1      58.836  72.151  22.846  1.00  0.00     0.007 C 
HETATM   16  C1  UNL     1      57.937  72.961  23.736  1.00  0.00     0.022 C 
HETATM   17  C3  UNL     1      60.127  71.908  23.629  1.00  0.00     0.022 C 
HETATM   18  C4  UNL     1      58.139  70.805  22.627  1.00  0.00     0.022 C 
ENDBRANCH  11  15
ENDBRANCH   9  11
ENDBRANCH   1   9
BRANCH   8  19
HETATM   19  C13 UNL     1      53.515  74.134  18.379  1.00  0.00     0.197 C 
HETATM   20  O4  UNL     1      52.294  73.848  18.370  1.00  0.00    -0.646 OA
HETATM   21  O5  UNL     1      53.988  74.904  17.304  1.00  0.00    -0.646 OA
ENDBRANCH   8  19
BRANCH   7  22
HETATM   22  C11 UNL     1      53.784  75.765  20.583  1.00  0.00     0.179 C 
HETATM   23  O2  UNL     1      53.520  76.446  21.621  1.00  0.00    -0.648 OA
HETATM   24  O3  UNL     1      53.571  76.388  19.367  1.00  0.00    -0.648 OA
ENDBRANCH   7  22
TORSDOF 5
ENDMDL
MODEL 3
REMARK VINA RESULT: -5.789602019      1.462      2.626
REMARK  5 active torsions:
REMARK  status: ('A' for Active; 'I' for Inactive)
REMARK    1  A    between atoms: C2_2  and  C5_5 
REMARK    2  A    between atoms: C5_5  and  N2_9 
REMARK    3  A    between atoms: N2_9  and  C6_11 
REMARK    4  A    between atoms: C10_17  and  C11_18 
REMARK    5  A    between atoms: C12_21  and  C13_22 
ROOT
HETATM    1  C6  UNL     1      57.867  69.956  22.341  1.00  0.00     0.198 C 
HETATM    2  C7  UNL     1      56.761  70.390  21.454  1.00  0.00     0.245 C 
HETATM    3  O1  UNL     1      55.979  69.809  20.693  1.00  0.00    -0.271 OA
HETATM    4  N3  UNL     1      56.982  71.726  21.847  1.00  0.00    -0.327 N 
HETATM    5  C8  UNL     1      58.364  71.330  22.123  1.00  0.00     0.121 C 
HETATM    6  C9  UNL     1      58.735  72.214  23.250  1.00  0.00     0.046 C 
HETATM    7  C10 UNL     1      58.086  73.533  22.801  1.00  0.00     0.122 C 
HETATM    8  C12 UNL     1      56.806  73.137  22.155  1.00  0.00     0.203 C 
ENDROOT
BRANCH   1   9
HETATM    9  N2  UNL     1      57.504  69.510  23.637  1.00  0.00    -0.364 N 
ATOM     10  H2  UNL     1      58.060  69.851  24.422  1.00  0.00     0.161 HD
BRANCH   9  11
HETATM   11  C5  UNL     1      56.435  68.631  23.930  1.00  0.00     0.079 C 
HETATM   12  N1  UNL     1      55.329  69.117  24.337  1.00  0.00    -0.389 N 
ATOM     13  H12 UNL     1      54.558  68.483  24.548  1.00  0.00     0.157 HD
ATOM     14  H11 UNL     1      55.197  70.121  24.456  1.00  0.00     0.157 HD
BRANCH  11  15
HETATM   15  C2  UNL     1      56.626  67.181  23.757  1.00  0.00     0.007 C 
HETATM   16  C1  UNL     1      57.942  66.692  24.291  1.00  0.00     0.022 C 
HETATM   17  C3  UNL     1      56.576  66.785  22.281  1.00  0.00     0.022 C 
HETATM   18  C4  UNL     1      55.536  66.408  24.505  1.00  0.00     0.022 C 
ENDBRANCH  11  15
ENDBRANCH   9  11
ENDBRANCH   1   9
BRANCH   8  19
HETATM   19  C13 UNL     1      56.366  73.916  21.003  1.00  0.00     0.197 C 
HETATM   20  O4  UNL     1      55.734  74.990  21.144  1.00  0.00    -0.646 OA
HETATM   21  O5  UNL     1      56.624  73.506  19.685  1.00  0.00    -0.646 OA
ENDBRANCH   8  19
BRANCH   7  22
HETATM   22  C11 UNL     1      58.972  74.222  21.843  1.00  0.00     0.179 C 
HETATM   23  O2  UNL     1      59.194  75.459  22.016  1.00  0.00    -0.648 OA
HETATM   24  O3  UNL     1      59.591  73.630  20.757  1.00  0.00    -0.648 OA
ENDBRANCH   7  22
TORSDOF 5
ENDMDL
MODEL 4
REMARK VINA RESULT: -5.551867202      2.101      3.140
REMARK  5 active torsions:
REMARK  status: ('A' for Active; 'I' for Inactive)
REMARK    1  A    between atoms: C2_2  and  C5_5 
REMARK    2  A    between atoms: C5_5  and  N2_9 
REMARK    3  A    between atoms: N2_9  and  C6_11 
REMARK    4  A    between atoms: C10_17  and  C11_18 
REMARK    5  A    between atoms: C12_21  and  C13_22 
ROOT
HETATM    1  C6  UNL     1      57.915  73.624  22.488  1.00  0.00     0.198 C 
HETATM    2  C7  UNL     1      58.633  73.201  21.261  1.00  0.00     0.245 C 
HETATM    3  O1  UNL     1      59.810  72.938  20.992  1.00  0.00    -0.271 OA
HETATM    4  N3  UNL     1      57.416  73.227  20.550  1.00  0.00    -0.327 N 
HETATM    5  C8  UNL     1      56.960  74.216  21.529  1.00  0.00     0.121 C 
HETATM    6  C9  UNL     1      55.507  73.948  21.607  1.00  0.00     0.046 C 
HETATM    7  C10 UNL     1      55.183  73.705  20.124  1.00  0.00     0.122 C 
HETATM    8  C12 UNL     1      56.359  72.971  19.584  1.00  0.00     0.203 C 
ENDROOT
BRANCH   1   9
HETATM    9  N2  UNL     1      57.511  72.594  23.375  1.00  0.00    -0.364 N 
ATOM     10  H2  UNL     1      56.855  72.844  24.115  1.00  0.00     0.161 HD
BRANCH   9  11
HETATM   11  C5  UNL     1      57.944  71.249  23.316  1.00  0.00     0.079 C 
HETATM   12  N1  UNL     1      59.184  70.991  23.463  1.00  0.00    -0.389 N 
ATOM     13  H12 UNL     1      59.497  70.021  23.421  1.00  0.00     0.157 HD
ATOM     14  H11 UNL     1      59.869  71.730  23.622  1.00  0.00     0.157 HD
BRANCH  11  15
HETATM   15  C2  UNL     1      56.955  70.181  23.088  1.00  0.00     0.007 C 
HETATM   16  C1  UNL     1      57.526  68.803  23.262  1.00  0.00     0.022 C 
HETATM   17  C3  UNL     1      56.386  70.245  21.670  1.00  0.00     0.022 C 
HETATM   18  C4  UNL     1      55.797  70.305  24.083  1.00  0.00     0.022 C 
ENDBRANCH  11  15
ENDBRANCH   9  11
ENDBRANCH   1   9
BRANCH   8  19
HETATM   19  C13 UNL     1      56.763  73.265  18.214  1.00  0.00     0.197 C 
HETATM   20  O4  UNL     1      57.965  73.204  17.861  1.00  0.00    -0.646 OA
HETATM   21  O5  UNL     1      55.835  73.629  17.226  1.00  0.00    -0.646 OA
ENDBRANCH   8  19
BRANCH   7  22
HETATM   22  C11 UNL     1      55.005  74.998  19.436  1.00  0.00     0.179 C 
HETATM   23  O2  UNL     1      53.823  75.416  19.242  1.00  0.00    -0.648 OA
HETATM   24  O3  UNL     1      56.029  75.808  18.976  1.00  0.00    -0.648 OA
ENDBRANCH   7  22
TORSDOF 5
ENDMDL
MODEL 5
REMARK VINA RESULT: -5.423604798      7.414      9.164
REMARK  5 active torsions:
REMARK  status: ('A' for Active; 'I' for Inactive)
REMARK    1  A    between atoms: C2_2  and  C5_5 
REMARK    2  A    between atoms: C5_5  and  N2_9 
REMARK    3  A    between atoms: N2_9  and  C6_11 
REMARK    4  A    between atoms: C10_17  and  C11_18 
REMARK    5  A    between atoms: C12_21  and  C13_22 
ROOT
HETATM    1  C6  UNL     1      59.941  64.076  25.733  1.00  0.00     0.198 C 
HETATM    2  C7  UNL     1      61.326  64.046  25.205  1.00  0.00     0.245 C 
HETATM    3  O1  UNL     1      61.904  63.405  24.319  1.00  0.00    -0.271 OA
HETATM    4  N3  UNL     1      61.692  65.043  26.131  1.00  0.00    -0.327 N 
HETATM    5  C8  UNL     1      60.596  64.552  26.968  1.00  0.00     0.121 C 
HETATM    6  C9  UNL     1      60.147  65.777  27.666  1.00  0.00     0.046 C 
HETATM    7  C10 UNL     1      61.501  66.436  27.980  1.00  0.00     0.122 C 
HETATM    8  C12 UNL     1      62.354  66.155  26.795  1.00  0.00     0.203 C 
ENDROOT
BRANCH   1   9
HETATM    9  N2  UNL     1      59.014  64.893  25.038  1.00  0.00    -0.364 N 
ATOM     10  H2  UNL     1      58.801  65.806  25.441  1.00  0.00     0.161 HD
BRANCH   9  11
HETATM   11  C5  UNL     1      58.360  64.545  23.833  1.00  0.00     0.079 C 
HETATM   12  N1  UNL     1      58.941  63.752  23.021  1.00  0.00    -0.389 N 
ATOM     13  H12 UNL     1      58.469  63.500  22.152  1.00  0.00     0.157 HD
ATOM     14  H11 UNL     1      59.863  63.364  23.220  1.00  0.00     0.157 HD
BRANCH  11  15
HETATM   15  C2  UNL     1      57.028  65.105  23.547  1.00  0.00     0.007 C 
HETATM   16  C1  UNL     1      56.959  65.815  22.225  1.00  0.00     0.022 C 
HETATM   17  C3  UNL     1      56.610  66.119  24.612  1.00  0.00     0.022 C 
HETATM   18  C4  UNL     1      55.980  63.989  23.500  1.00  0.00     0.022 C 
ENDBRANCH  11  15
ENDBRANCH   9  11
ENDBRANCH   1   9
BRANCH   8  19
HETATM   19  C13 UNL     1      63.772  65.908  27.031  1.00  0.00     0.197 C 
HETATM   20  O4  UNL     1      64.567  66.847  27.273  1.00  0.00    -0.646 OA
HETATM   21  O5  UNL     1      64.318  64.615  27.000  1.00  0.00    -0.646 OA
ENDBRANCH   8  19
BRANCH   7  22
HETATM   22  C11 UNL     1      62.074  65.835  29.200  1.00  0.00     0.179 C 
HETATM   23  O2  UNL     1      62.629  66.604  30.043  1.00  0.00    -0.648 OA
HETATM   24  O3  UNL     1      62.061  64.487  29.510  1.00  0.00    -0.648 OA
ENDBRANCH   7  22
TORSDOF 5
ENDMDL
