MODEL 1
REMARK VINA RESULT: -5.180355826      0.000      0.000
REMARK  5 active torsions:
REMARK  status: ('A' for Active; 'I' for Inactive)
REMARK       I    between atoms: C1_4  and  N3_6 
REMARK       I    between atoms: N3_6  and  C2_7 
REMARK    1  A    between atoms: C2_7  and  C3_9 
REMARK    2  A    between atoms: C8_14  and  C9_15 
REMARK    3  A    between atoms: C9_15  and  O2_16 
REMARK    4  A    between atoms: C9_15  and  N4_18 
REMARK    5  A    between atoms: C13_22  and  N5_23 
ROOT
HETATM    1  C3  UNL     1      57.116  64.969  23.380  1.00  0.00     0.057 A 
HETATM    2  C4  UNL     1      56.743  65.888  24.354  1.00  0.00     0.019 A 
HETATM    3  C5  UNL     1      56.184  67.093  23.982  1.00  0.00     0.001 A 
HETATM    4  C6  UNL     1      56.016  67.343  22.649  1.00  0.00     0.001 A 
HETATM    5  C7  UNL     1      56.392  66.419  21.705  1.00  0.00     0.012 A 
HETATM    6  C8  UNL     1      56.962  65.185  22.049  1.00  0.00     0.006 A 
ENDROOT
BRANCH   6   7
HETATM    7  C9  UNL     1      57.345  64.216  21.009  1.00  0.00     0.251 C 
BRANCH   7   8
HETATM    8  O2  UNL     1      56.192  63.877  20.248  1.00  0.00    -0.373 OA
ATOM      9  H2  UNL     1      56.192  62.941  20.090  1.00  0.00     0.212 HD
ENDBRANCH   7   8
BRANCH   7  10
HETATM   10  N4  UNL     1      58.420  64.581  20.168  1.00  0.00    -0.382 N 
HETATM   11  C10 UNL     1      58.224  64.586  18.768  1.00  0.00     0.119 C 
HETATM   12  C11 UNL     1      58.306  63.212  18.137  1.00  0.00     0.022 C 
HETATM   13  C12 UNL     1      59.697  62.710  18.418  1.00  0.00     0.036 C 
HETATM   14  C13 UNL     1      60.119  62.816  19.852  1.00  0.00     0.201 C 
HETATM   15  C14 UNL     1      59.697  64.053  20.549  1.00  0.00     0.152 C 
BRANCH  14  16
HETATM   16  N5  UNL     1      61.568  62.734  19.884  1.00  0.00    -0.073 N 
ATOM     17  H53 UNL     1      61.908  61.828  20.207  1.00  0.00     0.274 HD
ATOM     18  H52 UNL     1      61.987  62.710  18.954  1.00  0.00     0.274 HD
ATOM     19  H51 UNL     1      61.905  63.511  20.453  1.00  0.00     0.274 HD
ENDBRANCH  14  16
ENDBRANCH   7  10
ENDBRANCH   6   7
BRANCH   1  20
HETATM   20  C2  UNL     1      57.734  63.703  23.839  1.00  0.00     0.329 C 
HETATM   21  N3  UNL     1      59.029  63.764  24.271  1.00  0.00    -0.334 NA
HETATM   22  C1  UNL     1      60.292  63.817  24.695  1.00  0.00     0.264 C 
HETATM   23  N1  UNL     1      60.948  65.001  24.710  1.00  0.00    -0.362 N 
HETATM   24  N2  UNL     1      61.167  62.772  25.178  1.00  0.00    -0.049 NA
ATOM     25  H12 UNL     1      61.915  65.042  25.033  1.00  0.00     0.159 HD
ATOM     26  H11 UNL     1      60.331  65.738  24.369  1.00  0.00     0.159 HD
HETATM   27  O1  UNL     1      56.996  62.710  23.776  1.00  0.00    -0.251 OA
ENDBRANCH   1  20
TORSDOF 5
ENDMDL
MODEL 2
REMARK VINA RESULT: -4.946129642      2.929      5.285
REMARK  5 active torsions:
REMARK  status: ('A' for Active; 'I' for Inactive)
REMARK       I    between atoms: C1_4  and  N3_6 
REMARK       I    between atoms: N3_6  and  C2_7 
REMARK    1  A    between atoms: C2_7  and  C3_9 
REMARK    2  A    between atoms: C8_14  and  C9_15 
REMARK    3  A    between atoms: C9_15  and  O2_16 
REMARK    4  A    between atoms: C9_15  and  N4_18 
REMARK    5  A    between atoms: C13_22  and  N5_23 
ROOT
HETATM    1  C3  UNL     1      60.605  65.169  26.545  1.00  0.00     0.057 A 
HETATM    2  C4  UNL     1      60.966  65.045  27.882  1.00  0.00     0.019 A 
HETATM    3  C5  UNL     1      60.156  64.340  28.747  1.00  0.00     0.001 A 
HETATM    4  C6  UNL     1      59.011  63.782  28.253  1.00  0.00     0.001 A 
HETATM    5  C7  UNL     1      58.676  63.918  26.927  1.00  0.00     0.012 A 
HETATM    6  C8  UNL     1      59.477  64.627  26.020  1.00  0.00     0.006 A 
ENDROOT
BRANCH   6   7
HETATM    7  C9  UNL     1      59.089  64.743  24.606  1.00  0.00     0.251 C 
BRANCH   7   8
HETATM    8  O2  UNL     1      59.728  63.711  23.865  1.00  0.00    -0.373 OA
ATOM      9  H2  UNL     1      59.613  63.881  22.938  1.00  0.00     0.212 HD
ENDBRANCH   7   8
BRANCH   7  10
HETATM   10  N4  UNL     1      57.704  64.783  24.330  1.00  0.00    -0.382 N 
HETATM   11  C10 UNL     1      57.189  63.982  23.284  1.00  0.00     0.119 C 
HETATM   12  C11 UNL     1      57.396  64.573  21.906  1.00  0.00     0.022 C 
HETATM   13  C12 UNL     1      56.656  65.885  21.903  1.00  0.00     0.036 C 
HETATM   14  C13 UNL     1      56.965  66.774  23.069  1.00  0.00     0.201 C 
HETATM   15  C14 UNL     1      57.111  66.088  24.373  1.00  0.00     0.152 C 
BRANCH  14  16
HETATM   16  N5  UNL     1      55.889  67.744  23.170  1.00  0.00    -0.073 N 
ATOM     17  H53 UNL     1      55.158  67.602  22.473  1.00  0.00     0.274 HD
ATOM     18  H52 UNL     1      55.310  67.611  24.000  1.00  0.00     0.274 HD
ATOM     19  H51 UNL     1      56.309  68.672  23.122  1.00  0.00     0.274 HD
ENDBRANCH  14  16
ENDBRANCH   7  10
ENDBRANCH   6   7
BRANCH   1  20
HETATM   20  C2  UNL     1      61.501  65.958  25.668  1.00  0.00     0.329 C 
HETATM   21  N3  UNL     1      62.197  65.274  24.712  1.00  0.00    -0.334 NA
HETATM   22  C1  UNL     1      62.879  64.612  23.777  1.00  0.00     0.264 C 
HETATM   23  N1  UNL     1      62.720  63.274  23.649  1.00  0.00    -0.362 N 
HETATM   24  N2  UNL     1      63.832  65.083  22.797  1.00  0.00    -0.049 NA
ATOM     25  H12 UNL     1      63.242  62.767  22.934  1.00  0.00     0.159 HD
ATOM     26  H11 UNL     1      62.048  62.942  24.340  1.00  0.00     0.159 HD
HETATM   27  O1  UNL     1      61.523  67.175  25.905  1.00  0.00    -0.251 OA
ENDBRANCH   1  20
TORSDOF 5
ENDMDL
MODEL 3
REMARK VINA RESULT: -4.802134572      2.498      5.649
REMARK  5 active torsions:
REMARK  status: ('A' for Active; 'I' for Inactive)
REMARK       I    between atoms: C1_4  and  N3_6 
REMARK       I    between atoms: N3_6  and  C2_7 
REMARK    1  A    between atoms: C2_7  and  C3_9 
REMARK    2  A    between atoms: C8_14  and  C9_15 
REMARK    3  A    between atoms: C9_15  and  O2_16 
REMARK    4  A    between atoms: C9_15  and  N4_18 
REMARK    5  A    between atoms: C13_22  and  N5_23 
ROOT
HETATM    1  C3  UNL     1      57.138  64.749  22.070  1.00  0.00     0.057 A 
HETATM    2  C4  UNL     1      57.006  64.910  20.696  1.00  0.00     0.019 A 
HETATM    3  C5  UNL     1      57.962  64.388  19.850  1.00  0.00     0.001 A 
HETATM    4  C6  UNL     1      59.021  63.723  20.401  1.00  0.00     0.001 A 
HETATM    5  C7  UNL     1      59.129  63.577  21.763  1.00  0.00     0.012 A 
HETATM    6  C8  UNL     1      58.175  64.094  22.651  1.00  0.00     0.006 A 
ENDROOT
BRANCH   6   7
HETATM    7  C9  UNL     1      58.321  63.909  24.103  1.00  0.00     0.251 C 
BRANCH   7   8
HETATM    8  O2  UNL     1      57.647  62.717  24.487  1.00  0.00    -0.373 OA
ATOM      9  H2  UNL     1      57.989  62.425  25.324  1.00  0.00     0.212 HD
ENDBRANCH   7   8
BRANCH   7  10
HETATM   10  N4  UNL     1      59.638  63.935  24.616  1.00  0.00    -0.382 N 
HETATM   11  C10 UNL     1      59.993  63.028  25.641  1.00  0.00     0.119 C 
HETATM   12  C11 UNL     1      59.537  63.457  27.019  1.00  0.00     0.022 C 
HETATM   13  C12 UNL     1      60.223  64.769  27.292  1.00  0.00     0.036 C 
HETATM   14  C13 UNL     1      60.087  65.781  26.195  1.00  0.00     0.201 C 
HETATM   15  C14 UNL     1      60.187  65.244  24.818  1.00  0.00     0.152 C 
BRANCH  14  16
HETATM   16  N5  UNL     1      61.133  66.770  26.386  1.00  0.00    -0.073 N 
ATOM     17  H53 UNL     1      61.016  67.313  27.242  1.00  0.00     0.274 HD
ATOM     18  H52 UNL     1      62.037  66.355  26.615  1.00  0.00     0.274 HD
ATOM     19  H51 UNL     1      61.162  67.350  25.547  1.00  0.00     0.274 HD
ENDBRANCH  14  16
ENDBRANCH   7  10
ENDBRANCH   6   7
BRANCH   1  20
HETATM   20  C2  UNL     1      56.094  65.352  22.931  1.00  0.00     0.329 C 
HETATM   21  N3  UNL     1      56.054  66.716  22.997  1.00  0.00    -0.334 NA
HETATM   22  C1  UNL     1      56.011  68.047  23.066  1.00  0.00     0.264 C 
HETATM   23  N1  UNL     1      56.888  68.788  22.350  1.00  0.00    -0.362 N 
HETATM   24  N2  UNL     1      55.139  68.922  23.819  1.00  0.00    -0.049 NA
ATOM     25  H12 UNL     1      56.855  69.806  22.403  1.00  0.00     0.159 HD
ATOM     26  H11 UNL     1      57.503  68.171  21.820  1.00  0.00     0.159 HD
HETATM   27  O1  UNL     1      55.360  64.538  23.509  1.00  0.00    -0.251 OA
ENDBRANCH   1  20
TORSDOF 5
ENDMDL
MODEL 4
REMARK VINA RESULT: -4.774299423      7.051      9.348
REMARK  5 active torsions:
REMARK  status: ('A' for Active; 'I' for Inactive)
REMARK       I    between atoms: C1_4  and  N3_6 
REMARK       I    between atoms: N3_6  and  C2_7 
REMARK    1  A    between atoms: C2_7  and  C3_9 
REMARK    2  A    between atoms: C8_14  and  C9_15 
REMARK    3  A    between atoms: C9_15  and  O2_16 
REMARK    4  A    between atoms: C9_15  and  N4_18 
REMARK    5  A    between atoms: C13_22  and  N5_23 
ROOT
HETATM    1  C3  UNL     1      56.008  74.075  19.972  1.00  0.00     0.057 A 
HETATM    2  C4  UNL     1      55.369  75.156  19.375  1.00  0.00     0.019 A 
HETATM    3  C5  UNL     1      54.099  75.509  19.780  1.00  0.00     0.001 A 
HETATM    4  C6  UNL     1      53.506  74.773  20.767  1.00  0.00     0.001 A 
HETATM    5  C7  UNL     1      54.159  73.710  21.342  1.00  0.00     0.012 A 
HETATM    6  C8  UNL     1      55.450  73.324  20.955  1.00  0.00     0.006 A 
ENDROOT
BRANCH   6   7
HETATM    7  C9  UNL     1      56.120  72.185  21.601  1.00  0.00     0.251 C 
BRANCH   7   8
HETATM    8  O2  UNL     1      56.723  72.628  22.810  1.00  0.00    -0.373 OA
ATOM      9  H2  UNL     1      57.597  72.263  22.871  1.00  0.00     0.212 HD
ENDBRANCH   7   8
BRANCH   7  10
HETATM   10  N4  UNL     1      55.337  71.029  21.818  1.00  0.00    -0.382 N 
HETATM   11  C10 UNL     1      54.566  70.935  22.999  1.00  0.00     0.119 C 
HETATM   12  C11 UNL     1      55.365  70.521  24.217  1.00  0.00     0.022 C 
HETATM   13  C12 UNL     1      55.918  69.155  23.904  1.00  0.00     0.036 C 
HETATM   14  C13 UNL     1      56.611  69.054  22.580  1.00  0.00     0.201 C 
HETATM   15  C14 UNL     1      55.968  69.791  21.467  1.00  0.00     0.152 C 
BRANCH  14  16
HETATM   16  N5  UNL     1      56.676  67.646  22.231  1.00  0.00    -0.073 N 
ATOM     17  H53 UNL     1      56.672  67.034  23.047  1.00  0.00     0.274 HD
ATOM     18  H52 UNL     1      55.817  67.302  21.802  1.00  0.00     0.274 HD
ATOM     19  H51 UNL     1      57.497  67.516  21.639  1.00  0.00     0.274 HD
ENDBRANCH  14  16
ENDBRANCH   7  10
ENDBRANCH   6   7
BRANCH   1  20
HETATM   20  C2  UNL     1      57.361  73.727  19.479  1.00  0.00     0.329 C 
HETATM   21  N3  UNL     1      58.388  73.797  20.377  1.00  0.00    -0.334 NA
HETATM   22  C1  UNL     1      59.394  73.864  21.250  1.00  0.00     0.264 C 
HETATM   23  N1  UNL     1      59.151  74.220  22.533  1.00  0.00    -0.362 N 
HETATM   24  N2  UNL     1      60.808  73.611  21.077  1.00  0.00    -0.049 NA
ATOM     25  H12 UNL     1      59.921  74.271  23.200  1.00  0.00     0.159 HD
ATOM     26  H11 UNL     1      58.154  74.398  22.654  1.00  0.00     0.159 HD
HETATM   27  O1  UNL     1      57.414  73.408  18.282  1.00  0.00    -0.251 OA
ENDBRANCH   1  20
TORSDOF 5
ENDMDL
MODEL 5
REMARK VINA RESULT: -4.617548039      4.995      8.304
REMARK  5 active torsions:
REMARK  status: ('A' for Active; 'I' for Inactive)
REMARK       I    between atoms: C1_4  and  N3_6 
REMARK       I    between atoms: N3_6  and  C2_7 
REMARK    1  A    between atoms: C2_7  and  C3_9 
REMARK    2  A    between atoms: C8_14  and  C9_15 
REMARK    3  A    between atoms: C9_15  and  O2_16 
REMARK    4  A    between atoms: C9_15  and  N4_18 
REMARK    5  A    between atoms: C13_22  and  N5_23 
ROOT
HETATM    1  C3  UNL     1      61.707  65.313  25.518  1.00  0.00     0.057 A 
HETATM    2  C4  UNL     1      60.736  64.730  24.712  1.00  0.00     0.019 A 
HETATM    3  C5  UNL     1      59.407  64.816  25.068  1.00  0.00     0.001 A 
HETATM    4  C6  UNL     1      59.088  65.481  26.219  1.00  0.00     0.001 A 
HETATM    5  C7  UNL     1      60.066  66.049  26.999  1.00  0.00     0.012 A 
HETATM    6  C8  UNL     1      61.426  65.980  26.666  1.00  0.00     0.006 A 
ENDROOT
BRANCH   6   7
HETATM    7  C9  UNL     1      62.443  66.609  27.522  1.00  0.00     0.251 C 
BRANCH   7   8
HETATM    8  O2  UNL     1      62.355  68.022  27.383  1.00  0.00    -0.373 OA
ATOM      9  H2  UNL     1      62.473  68.249  26.469  1.00  0.00     0.212 HD
ENDBRANCH   7   8
BRANCH   7  10
HETATM   10  N4  UNL     1      62.446  66.232  28.884  1.00  0.00    -0.382 N 
HETATM   11  C10 UNL     1      62.918  67.151  29.849  1.00  0.00     0.119 C 
HETATM   12  C11 UNL     1      64.427  67.210  29.948  1.00  0.00     0.022 C 
HETATM   13  C12 UNL     1      64.869  65.829  30.356  1.00  0.00     0.036 C 
HETATM   14  C13 UNL     1      64.293  64.722  29.527  1.00  0.00     0.201 C 
HETATM   15  C14 UNL     1      62.873  64.888  29.143  1.00  0.00     0.152 C 
BRANCH  14  16
HETATM   16  N5  UNL     1      64.431  63.494  30.288  1.00  0.00    -0.073 N 
ATOM     17  H53 UNL     1      63.705  63.381  30.996  1.00  0.00     0.274 HD
ATOM     18  H52 UNL     1      64.214  62.660  29.741  1.00  0.00     0.274 HD
ATOM     19  H51 UNL     1      65.373  63.481  30.679  1.00  0.00     0.274 HD
ENDBRANCH  14  16
ENDBRANCH   7  10
ENDBRANCH   6   7
BRANCH   1  20
HETATM   20  C2  UNL     1      63.120  65.166  25.097  1.00  0.00     0.329 C 
HETATM   21  N3  UNL     1      63.353  64.533  23.909  1.00  0.00    -0.334 NA
HETATM   22  C1  UNL     1      63.586  63.917  22.750  1.00  0.00     0.264 C 
HETATM   23  N1  UNL     1      62.549  63.473  22.002  1.00  0.00    -0.362 N 
HETATM   24  N2  UNL     1      64.832  63.605  22.084  1.00  0.00    -0.049 NA
ATOM     25  H12 UNL     1      62.728  63.001  21.116  1.00  0.00     0.159 HD
ATOM     26  H11 UNL     1      61.671  63.693  22.472  1.00  0.00     0.159 HD
HETATM   27  O1  UNL     1      63.951  65.638  25.886  1.00  0.00    -0.251 OA
ENDBRANCH   1  20
TORSDOF 5
ENDMDL
