MODEL 1
REMARK VINA RESULT: -6.546835718      0.000      0.000
REMARK  4 active torsions:
REMARK  status: ('A' for Active; 'I' for Inactive)
REMARK       I    between atoms: C2_5  and  N4_7 
REMARK    1  A    between atoms: N4_7  and  C3_9 
REMARK    2  A    between atoms: C3_9  and  C4_10 
REMARK    3  A    between atoms: C3_9  and  C5_13 
REMARK    4  A    between atoms: C8_16  and  C9_17 
ROOT
HETATM    1  N1  UNL     1      56.073  66.515  22.383  1.00  0.00    -0.172 NA
HETATM    2  C1  UNL     1      56.647  67.522  22.487  1.00  0.00     0.184 C 
HETATM    3  N2  UNL     1      57.337  68.708  22.627  1.00  0.00    -0.268 N 
ATOM      4  H2  UNL     1      58.291  68.674  22.987  1.00  0.00     0.180 HD
HETATM    5  C2  UNL     1      56.838  69.857  22.328  1.00  0.00     0.198 C 
HETATM    6  N3  UNL     1      55.508  69.871  21.830  1.00  0.00    -0.063 NA
HETATM    7  N4  UNL     1      57.566  71.070  22.479  1.00  0.00    -0.349 N 
ATOM      8  H4  UNL     1      57.886  71.315  23.416  1.00  0.00     0.163 HD
ENDROOT
BRANCH   7   9
HETATM    9  C3  UNL     1      57.879  71.965  21.422  1.00  0.00     0.192 C 
BRANCH   9  10
HETATM   10  C4  UNL     1      59.039  72.846  21.726  1.00  0.00     0.197 C 
HETATM   11  O1  UNL     1      59.599  73.585  20.886  1.00  0.00    -0.646 OA
HETATM   12  O2  UNL     1      59.522  72.841  23.022  1.00  0.00    -0.646 OA
ENDBRANCH   9  10
BRANCH   9  13
HETATM   13  C5  UNL     1      56.728  72.851  21.094  1.00  0.00     0.062 C 
HETATM   14  C6  UNL     1      56.939  74.312  21.444  1.00  0.00     0.014 C 
HETATM   15  C7  UNL     1      55.527  74.919  21.414  1.00  0.00     0.043 C 
HETATM   16  C8  UNL     1      54.939  74.610  20.062  1.00  0.00     0.224 C 
HETATM   17  O5  UNL     1      54.783  73.248  19.909  1.00  0.00    -0.355 OA
HETATM   18  C10 UNL     1      56.072  72.653  19.776  1.00  0.00     0.235 C 
HETATM   19  C11 UNL     1      56.764  73.271  18.683  1.00  0.00     0.091 C 
HETATM   20  N5  UNL     1      57.301  73.771  17.781  1.00  0.00    -0.195 NA
BRANCH  16  21
HETATM   21  C9  UNL     1      53.626  75.296  19.933  1.00  0.00     0.203 C 
HETATM   22  O3  UNL     1      53.357  76.304  20.619  1.00  0.00    -0.646 OA
HETATM   23  O4  UNL     1      52.701  74.812  19.048  1.00  0.00    -0.646 OA
ENDBRANCH  16  21
ENDBRANCH   9  13
ENDBRANCH   7   9
TORSDOF 4
ENDMDL
MODEL 2
REMARK VINA RESULT: -5.427788463      1.568      1.902
REMARK  4 active torsions:
REMARK  status: ('A' for Active; 'I' for Inactive)
REMARK       I    between atoms: C2_5  and  N4_7 
REMARK    1  A    between atoms: N4_7  and  C3_9 
REMARK    2  A    between atoms: C3_9  and  C4_10 
REMARK    3  A    between atoms: C3_9  and  C5_13 
REMARK    4  A    between atoms: C8_16  and  C9_17 
ROOT
HETATM    1  N1  UNL     1      55.960  65.785  22.083  1.00  0.00    -0.172 NA
HETATM    2  C1  UNL     1      56.430  66.786  22.446  1.00  0.00     0.184 C 
HETATM    3  N2  UNL     1      56.989  67.964  22.896  1.00  0.00    -0.268 N 
ATOM      4  H2  UNL     1      57.697  67.914  23.629  1.00  0.00     0.180 HD
HETATM    5  C2  UNL     1      56.662  69.122  22.440  1.00  0.00     0.198 C 
HETATM    6  N3  UNL     1      55.673  69.156  21.421  1.00  0.00    -0.063 NA
HETATM    7  N4  UNL     1      57.250  70.326  22.917  1.00  0.00    -0.349 N 
ATOM      8  H4  UNL     1      57.137  70.547  23.906  1.00  0.00     0.163 HD
ENDROOT
BRANCH   7   9
HETATM    9  C3  UNL     1      57.982  71.243  22.117  1.00  0.00     0.192 C 
BRANCH   9  10
HETATM   10  C4  UNL     1      58.903  72.103  22.908  1.00  0.00     0.197 C 
HETATM   11  O1  UNL     1      58.559  72.763  23.914  1.00  0.00    -0.646 OA
HETATM   12  O2  UNL     1      60.222  72.174  22.497  1.00  0.00    -0.646 OA
ENDBRANCH   9  10
BRANCH   9  13
HETATM   13  C5  UNL     1      57.079  72.150  21.356  1.00  0.00     0.062 C 
HETATM   14  C6  UNL     1      55.996  72.806  22.192  1.00  0.00     0.014 C 
HETATM   15  C7  UNL     1      54.980  73.326  21.161  1.00  0.00     0.043 C 
HETATM   16  C8  UNL     1      55.737  74.203  20.197  1.00  0.00     0.224 C 
HETATM   17  O5  UNL     1      56.660  73.457  19.495  1.00  0.00    -0.355 OA
HETATM   18  C10 UNL     1      57.710  73.078  20.383  1.00  0.00     0.235 C 
HETATM   19  C11 UNL     1      58.268  74.256  20.980  1.00  0.00     0.091 C 
HETATM   20  N5  UNL     1      58.720  75.224  21.438  1.00  0.00    -0.195 NA
BRANCH  16  21
HETATM   21  C9  UNL     1      54.773  74.843  19.261  1.00  0.00     0.203 C 
HETATM   22  O3  UNL     1      54.912  74.738  18.025  1.00  0.00    -0.646 OA
HETATM   23  O4  UNL     1      53.721  75.556  19.767  1.00  0.00    -0.646 OA
ENDBRANCH  16  21
ENDBRANCH   9  13
ENDBRANCH   7   9
TORSDOF 4
ENDMDL
MODEL 3
REMARK VINA RESULT: -5.284651576      9.863     11.783
REMARK  4 active torsions:
REMARK  status: ('A' for Active; 'I' for Inactive)
REMARK       I    between atoms: C2_5  and  N4_7 
REMARK    1  A    between atoms: N4_7  and  C3_9 
REMARK    2  A    between atoms: C3_9  and  C4_10 
REMARK    3  A    between atoms: C3_9  and  C5_13 
REMARK    4  A    between atoms: C8_16  and  C9_17 
ROOT
HETATM    1  N1  UNL     1      56.483  64.166  23.515  1.00  0.00    -0.172 NA
HETATM    2  C1  UNL     1      57.621  63.970  23.666  1.00  0.00     0.184 C 
HETATM    3  N2  UNL     1      58.965  63.716  23.841  1.00  0.00    -0.268 N 
ATOM      4  H2  UNL     1      59.395  62.975  23.286  1.00  0.00     0.180 HD
HETATM    5  C2  UNL     1      59.706  64.366  24.669  1.00  0.00     0.198 C 
HETATM    6  N3  UNL     1      59.078  65.389  25.427  1.00  0.00    -0.063 NA
HETATM    7  N4  UNL     1      61.092  64.089  24.835  1.00  0.00    -0.349 N 
ATOM      8  H4  UNL     1      61.353  63.153  25.144  1.00  0.00     0.163 HD
ENDROOT
BRANCH   7   9
HETATM    9  C3  UNL     1      62.138  65.022  24.603  1.00  0.00     0.192 C 
BRANCH   9  10
HETATM   10  C4  UNL     1      63.203  64.494  23.709  1.00  0.00     0.197 C 
HETATM   11  O1  UNL     1      63.833  65.189  22.880  1.00  0.00    -0.646 OA
HETATM   12  O2  UNL     1      63.510  63.149  23.804  1.00  0.00    -0.646 OA
ENDBRANCH   9  10
BRANCH   9  13
HETATM   13  C5  UNL     1      62.796  65.436  25.874  1.00  0.00     0.062 C 
HETATM   14  C6  UNL     1      62.309  66.760  26.431  1.00  0.00     0.014 C 
HETATM   15  C7  UNL     1      63.385  67.161  27.455  1.00  0.00     0.043 C 
HETATM   16  C8  UNL     1      63.526  66.014  28.421  1.00  0.00     0.224 C 
HETATM   17  O5  UNL     1      64.003  64.896  27.770  1.00  0.00    -0.355 OA
HETATM   18  C10 UNL     1      62.978  64.393  26.916  1.00  0.00     0.235 C 
HETATM   19  C11 UNL     1      61.802  64.137  27.695  1.00  0.00     0.091 C 
HETATM   20  N5  UNL     1      60.865  63.918  28.347  1.00  0.00    -0.195 NA
BRANCH  16  21
HETATM   21  C9  UNL     1      64.455  66.409  29.514  1.00  0.00     0.203 C 
HETATM   22  O3  UNL     1      64.456  67.572  29.968  1.00  0.00    -0.646 OA
HETATM   23  O4  UNL     1      65.321  65.481  30.025  1.00  0.00    -0.646 OA
ENDBRANCH  16  21
ENDBRANCH   9  13
ENDBRANCH   7   9
TORSDOF 4
ENDMDL
MODEL 4
REMARK VINA RESULT: -5.255129562      2.416      3.790
REMARK  4 active torsions:
REMARK  status: ('A' for Active; 'I' for Inactive)
REMARK       I    between atoms: C2_5  and  N4_7 
REMARK    1  A    between atoms: N4_7  and  C3_9 
REMARK    2  A    between atoms: C3_9  and  C4_10 
REMARK    3  A    between atoms: C3_9  and  C5_13 
REMARK    4  A    between atoms: C8_16  and  C9_17 
ROOT
HETATM    1  N1  UNL     1      55.539  64.197  23.239  1.00  0.00    -0.172 NA
HETATM    2  C1  UNL     1      55.798  65.253  22.824  1.00  0.00     0.184 C 
HETATM    3  N2  UNL     1      56.107  66.496  22.313  1.00  0.00    -0.268 N 
ATOM      4  H2  UNL     1      55.776  66.731  21.377  1.00  0.00     0.180 HD
HETATM    5  C2  UNL     1      56.793  67.376  22.956  1.00  0.00     0.198 C 
HETATM    6  N3  UNL     1      57.239  67.019  24.256  1.00  0.00    -0.063 NA
HETATM    7  N4  UNL     1      57.101  68.654  22.412  1.00  0.00    -0.349 N 
ATOM      8  H4  UNL     1      57.644  68.681  21.549  1.00  0.00     0.163 HD
ENDROOT
BRANCH   7   9
HETATM    9  C3  UNL     1      56.708  69.894  22.982  1.00  0.00     0.192 C 
BRANCH   9  10
HETATM   10  C4  UNL     1      55.338  69.863  23.561  1.00  0.00     0.197 C 
HETATM   11  O1  UNL     1      54.288  69.812  22.881  1.00  0.00    -0.646 OA
HETATM   12  O2  UNL     1      55.225  69.896  24.938  1.00  0.00    -0.646 OA
ENDBRANCH   9  10
BRANCH   9  13
HETATM   13  C5  UNL     1      56.736  70.993  21.977  1.00  0.00     0.062 C 
HETATM   14  C6  UNL     1      55.913  72.210  22.353  1.00  0.00     0.014 C 
HETATM   15  C7  UNL     1      55.758  72.988  21.036  1.00  0.00     0.043 C 
HETATM   16  C8  UNL     1      57.145  73.230  20.498  1.00  0.00     0.224 C 
HETATM   17  O5  UNL     1      57.748  72.032  20.176  1.00  0.00    -0.355 OA
HETATM   18  C10 UNL     1      58.054  71.337  21.384  1.00  0.00     0.235 C 
HETATM   19  C11 UNL     1      58.866  72.177  22.216  1.00  0.00     0.091 C 
HETATM   20  N5  UNL     1      59.539  72.865  22.867  1.00  0.00    -0.195 NA
BRANCH  16  21
HETATM   21  C9  UNL     1      57.055  74.100  19.294  1.00  0.00     0.203 C 
HETATM   22  O3  UNL     1      56.541  75.236  19.360  1.00  0.00    -0.646 OA
HETATM   23  O4  UNL     1      57.543  73.644  18.100  1.00  0.00    -0.646 OA
ENDBRANCH  16  21
ENDBRANCH   9  13
ENDBRANCH   7   9
TORSDOF 4
ENDMDL
MODEL 5
REMARK VINA RESULT: -5.248555847      1.098      1.276
REMARK  4 active torsions:
REMARK  status: ('A' for Active; 'I' for Inactive)
REMARK       I    between atoms: C2_5  and  N4_7 
REMARK    1  A    between atoms: N4_7  and  C3_9 
REMARK    2  A    between atoms: C3_9  and  C4_10 
REMARK    3  A    between atoms: C3_9  and  C5_13 
REMARK    4  A    between atoms: C8_16  and  C9_17 
ROOT
HETATM    1  N1  UNL     1      54.419  69.186  23.915  1.00  0.00    -0.172 NA
HETATM    2  C1  UNL     1      55.356  69.437  23.273  1.00  0.00     0.184 C 
HETATM    3  N2  UNL     1      56.472  69.713  22.510  1.00  0.00    -0.268 N 
ATOM      4  H2  UNL     1      56.725  69.060  21.768  1.00  0.00     0.180 HD
HETATM    5  C2  UNL     1      57.211  70.753  22.686  1.00  0.00     0.198 C 
HETATM    6  N3  UNL     1      56.833  71.641  23.727  1.00  0.00    -0.063 NA
HETATM    7  N4  UNL     1      58.358  71.020  21.889  1.00  0.00    -0.349 N 
ATOM      8  H4  UNL     1      59.110  70.331  21.897  1.00  0.00     0.163 HD
ENDROOT
BRANCH   7   9
HETATM    9  C3  UNL     1      58.533  72.175  21.082  1.00  0.00     0.192 C 
BRANCH   9  10
HETATM   10  C4  UNL     1      59.560  73.110  21.616  1.00  0.00     0.197 C 
HETATM   11  O1  UNL     1      60.086  74.031  20.951  1.00  0.00    -0.646 OA
HETATM   12  O2  UNL     1      59.954  72.944  22.931  1.00  0.00    -0.646 OA
ENDBRANCH   9  10
BRANCH   9  13
HETATM   13  C5  UNL     1      57.266  72.946  20.946  1.00  0.00     0.062 C 
HETATM   14  C6  UNL     1      57.398  74.430  21.234  1.00  0.00     0.014 C 
HETATM   15  C7  UNL     1      55.952  74.909  21.441  1.00  0.00     0.043 C 
HETATM   16  C8  UNL     1      55.173  74.508  20.214  1.00  0.00     0.224 C 
HETATM   17  O5  UNL     1      55.119  73.134  20.110  1.00  0.00    -0.355 OA
HETATM   18  C10 UNL     1      56.416  72.652  19.764  1.00  0.00     0.235 C 
HETATM   19  C11 UNL     1      56.851  73.297  18.559  1.00  0.00     0.091 C 
HETATM   20  N5  UNL     1      57.177  73.815  17.572  1.00  0.00    -0.195 NA
BRANCH  16  21
HETATM   21  C9  UNL     1      53.799  75.072  20.305  1.00  0.00     0.203 C 
HETATM   22  O3  UNL     1      53.492  75.877  21.209  1.00  0.00    -0.646 OA
HETATM   23  O4  UNL     1      52.860  74.700  19.382  1.00  0.00    -0.646 OA
ENDBRANCH  16  21
ENDBRANCH   9  13
ENDBRANCH   7   9
TORSDOF 4
ENDMDL
