MODEL 1
REMARK VINA RESULT: -6.575064752      0.000      0.000
REMARK  4 active torsions:
REMARK  status: ('A' for Active; 'I' for Inactive)
REMARK    1  A    between atoms: C2_3  and  C3_4 
REMARK    2  A    between atoms: C4_6  and  N2_7 
REMARK    3  A    between atoms: C8_13  and  O2_14 
REMARK    4  A    between atoms: C9_18  and  O3_19 
ROOT
HETATM    1  N1  UNL     1      -7.824   0.940  17.004  1.00  0.00    -0.197 NA
HETATM    2  C1  UNL     1      -6.707   1.144  17.218  1.00  0.00     0.061 C 
HETATM    3  C2  UNL     1      -5.314   1.398  17.491  1.00  0.00     0.160 C 
ENDROOT
BRANCH   3   4
HETATM    4  C3  UNL     1      -4.538   1.784  16.231  1.00  0.00     0.185 C 
HETATM    5  O1  UNL     1      -5.230   2.878  15.684  1.00  0.00    -0.350 OA
HETATM    6  C4  UNL     1      -4.463   3.376  14.663  1.00  0.00     0.291 C 
HETATM    7  C8  UNL     1      -4.185   2.403  13.570  1.00  0.00     0.266 C 
HETATM    8  N4  UNL     1      -4.282   1.040  13.901  1.00  0.00    -0.366 N 
HETATM    9  C9  UNL     1      -4.602   0.687  15.222  1.00  0.00     0.245 C 
ATOM     10  H4  UNL     1      -4.123   0.321  13.195  1.00  0.00     0.158 HD
BRANCH   6  11
HETATM   11  N2  UNL     1      -5.103   4.599  14.183  1.00  0.00    -0.270 N 
HETATM   12  C5  UNL     1      -6.285   5.090  14.600  1.00  0.00     0.114 A 
HETATM   13  C6  UNL     1      -6.565   6.252  13.927  1.00  0.00     0.037 A 
HETATM   14  C7  UNL     1      -5.505   6.459  13.076  1.00  0.00     0.108 A 
HETATM   15  N3  UNL     1      -4.644   5.439  13.261  1.00  0.00    -0.308 N 
ATOM     16  H3  UNL     1      -3.762   5.328  12.763  1.00  0.00     0.186 HD
ENDBRANCH   6  11
BRANCH   7  17
HETATM   17  O2  UNL     1      -5.047   2.651  12.476  1.00  0.00    -0.372 OA
ATOM     18  H2  UNL     1      -4.545   2.972  11.737  1.00  0.00     0.212 HD
ENDBRANCH   7  17
BRANCH   9  19
HETATM   19  O3  UNL     1      -3.745  -0.334  15.654  1.00  0.00    -0.374 OA
ATOM     20  H3  UNL     1      -4.282  -1.013  16.047  1.00  0.00     0.212 HD
ENDBRANCH   9  19
ENDBRANCH   3   4
TORSDOF 4
ENDMDL
MODEL 2
REMARK VINA RESULT: -6.139712127      2.385      4.918
REMARK  4 active torsions:
REMARK  status: ('A' for Active; 'I' for Inactive)
REMARK    1  A    between atoms: C2_3  and  C3_4 
REMARK    2  A    between atoms: C4_6  and  N2_7 
REMARK    3  A    between atoms: C8_13  and  O2_14 
REMARK    4  A    between atoms: C9_18  and  O3_19 
ROOT
HETATM    1  N1  UNL     1      -2.164   7.703  13.916  1.00  0.00    -0.197 NA
HETATM    2  C1  UNL     1      -1.984   6.566  14.020  1.00  0.00     0.061 C 
HETATM    3  C2  UNL     1      -1.753   5.148  14.150  1.00  0.00     0.160 C 
ENDROOT
BRANCH   3   4
HETATM    4  C3  UNL     1      -2.939   4.320  13.651  1.00  0.00     0.185 C 
HETATM    5  O1  UNL     1      -3.437   3.655  14.784  1.00  0.00    -0.350 OA
HETATM    6  C4  UNL     1      -4.613   3.054  14.420  1.00  0.00     0.291 C 
HETATM    7  C8  UNL     1      -4.483   2.064  13.314  1.00  0.00     0.266 C 
HETATM    8  N4  UNL     1      -3.366   2.205  12.471  1.00  0.00    -0.366 N 
HETATM    9  C9  UNL     1      -2.475   3.266  12.702  1.00  0.00     0.245 C 
ATOM     10  H4  UNL     1      -3.206   1.549  11.707  1.00  0.00     0.158 HD
BRANCH   6  11
HETATM   11  N2  UNL     1      -5.212   2.482  15.624  1.00  0.00    -0.270 N 
HETATM   12  C5  UNL     1      -6.461   2.711  16.072  1.00  0.00     0.114 A 
HETATM   13  C6  UNL     1      -6.671   2.005  17.229  1.00  0.00     0.037 A 
HETATM   14  C7  UNL     1      -5.500   1.330  17.477  1.00  0.00     0.108 A 
HETATM   15  N3  UNL     1      -4.644   1.644  16.484  1.00  0.00    -0.308 N 
ATOM     16  H3  UNL     1      -3.693   1.287  16.405  1.00  0.00     0.186 HD
ENDBRANCH   6  11
BRANCH   7  17
HETATM   17  O2  UNL     1      -4.469   0.753  13.844  1.00  0.00    -0.372 OA
ATOM     18  H2  UNL     1      -3.874   0.711  14.583  1.00  0.00     0.212 HD
ENDBRANCH   7  17
BRANCH   9  19
HETATM   19  O3  UNL     1      -2.171   3.895  11.488  1.00  0.00    -0.374 OA
ATOM     20  H3  UNL     1      -2.207   3.234  10.805  1.00  0.00     0.212 HD
ENDBRANCH   9  19
ENDBRANCH   3   4
TORSDOF 4
ENDMDL
MODEL 3
REMARK VINA RESULT: -5.985745967      2.133      2.772
REMARK  4 active torsions:
REMARK  status: ('A' for Active; 'I' for Inactive)
REMARK    1  A    between atoms: C2_3  and  C3_4 
REMARK    2  A    between atoms: C4_6  and  N2_7 
REMARK    3  A    between atoms: C8_13  and  O2_14 
REMARK    4  A    between atoms: C9_18  and  O3_19 
ROOT
HETATM    1  N1  UNL     1      -3.900   0.922  16.550  1.00  0.00    -0.197 NA
HETATM    2  C1  UNL     1      -4.466   1.721  15.936  1.00  0.00     0.061 C 
HETATM    3  C2  UNL     1      -5.178   2.717  15.173  1.00  0.00     0.160 C 
ENDROOT
BRANCH   3   4
HETATM    4  C3  UNL     1      -4.410   3.147  13.923  1.00  0.00     0.185 C 
HETATM    5  O1  UNL     1      -5.045   4.319  13.476  1.00  0.00    -0.350 OA
HETATM    6  C4  UNL     1      -4.272   4.843  12.472  1.00  0.00     0.291 C 
HETATM    7  C8  UNL     1      -4.083   3.938  11.305  1.00  0.00     0.266 C 
HETATM    8  N4  UNL     1      -4.258   2.562  11.539  1.00  0.00    -0.366 N 
HETATM    9  C9  UNL     1      -4.567   2.133  12.840  1.00  0.00     0.245 C 
ATOM     10  H4  UNL     1      -4.162   1.889  10.778  1.00  0.00     0.158 HD
BRANCH   6  11
HETATM   11  N2  UNL     1      -4.845   6.134  12.100  1.00  0.00    -0.270 N 
HETATM   12  C5  UNL     1      -5.956   6.688  12.622  1.00  0.00     0.114 A 
HETATM   13  C6  UNL     1      -6.187   7.903  12.030  1.00  0.00     0.037 A 
HETATM   14  C7  UNL     1      -5.173   8.078  11.119  1.00  0.00     0.108 A 
HETATM   15  N3  UNL     1      -4.383   6.989  11.193  1.00  0.00    -0.308 N 
ATOM     16  H3  UNL     1      -3.546   6.841  10.630  1.00  0.00     0.186 HD
ENDBRANCH   6  11
BRANCH   7  17
HETATM   17  O2  UNL     1      -4.954   4.318  10.257  1.00  0.00    -0.372 OA
ATOM     18  H2  UNL     1      -5.783   3.864  10.346  1.00  0.00     0.212 HD
ENDBRANCH   7  17
BRANCH   9  19
HETATM   19  O3  UNL     1      -3.766   1.032  13.172  1.00  0.00    -0.374 OA
ATOM     20  H3  UNL     1      -4.291   0.249  13.052  1.00  0.00     0.212 HD
ENDBRANCH   9  19
ENDBRANCH   3   4
TORSDOF 4
ENDMDL
MODEL 4
REMARK VINA RESULT: -5.818959347      3.277      4.909
REMARK  4 active torsions:
REMARK  status: ('A' for Active; 'I' for Inactive)
REMARK    1  A    between atoms: C2_3  and  C3_4 
REMARK    2  A    between atoms: C4_6  and  N2_7 
REMARK    3  A    between atoms: C8_13  and  O2_14 
REMARK    4  A    between atoms: C9_18  and  O3_19 
ROOT
HETATM    1  N1  UNL     1      -3.691  -0.233  12.404  1.00  0.00    -0.197 NA
HETATM    2  C1  UNL     1      -4.282   0.754  12.295  1.00  0.00     0.061 C 
HETATM    3  C2  UNL     1      -5.021   1.984  12.155  1.00  0.00     0.160 C 
ENDROOT
BRANCH   3   4
HETATM    4  C3  UNL     1      -4.377   3.138  12.924  1.00  0.00     0.185 C 
HETATM    5  O1  UNL     1      -3.039   3.175  12.496  1.00  0.00    -0.350 OA
HETATM    6  C4  UNL     1      -2.476   4.312  13.014  1.00  0.00     0.291 C 
HETATM    7  C8  UNL     1      -2.494   4.385  14.502  1.00  0.00     0.266 C 
HETATM    8  N4  UNL     1      -3.462   3.604  15.159  1.00  0.00    -0.366 N 
HETATM    9  C9  UNL     1      -4.352   2.841  14.386  1.00  0.00     0.245 C 
ATOM     10  H4  UNL     1      -3.516   3.592  16.178  1.00  0.00     0.158 HD
BRANCH   6  11
HETATM   11  N2  UNL     1      -1.130   4.435  12.458  1.00  0.00    -0.270 N 
HETATM   12  C5  UNL     1      -0.520   3.540  11.658  1.00  0.00     0.114 A 
HETATM   13  C6  UNL     1       0.733   3.992  11.334  1.00  0.00     0.037 A 
HETATM   14  C7  UNL     1       0.873   5.204  11.967  1.00  0.00     0.108 A 
HETATM   15  N3  UNL     1      -0.275   5.436  12.634  1.00  0.00    -0.308 N 
ATOM     16  H3  UNL     1      -0.460   6.266  13.197  1.00  0.00     0.186 HD
ENDBRANCH   6  11
BRANCH   7  17
HETATM   17  O2  UNL     1      -1.223   4.031  15.014  1.00  0.00    -0.372 OA
ATOM     18  H2  UNL     1      -0.728   4.816  15.216  1.00  0.00     0.212 HD
ENDBRANCH   7  17
BRANCH   9  19
HETATM   19  O3  UNL     1      -5.655   3.007  14.874  1.00  0.00    -0.374 OA
ATOM     20  H3  UNL     1      -5.623   2.907  15.818  1.00  0.00     0.212 HD
ENDBRANCH   9  19
ENDBRANCH   3   4
TORSDOF 4
ENDMDL
MODEL 5
REMARK VINA RESULT: -5.753649474      2.223      2.852
REMARK  4 active torsions:
REMARK  status: ('A' for Active; 'I' for Inactive)
REMARK    1  A    between atoms: C2_3  and  C3_4 
REMARK    2  A    between atoms: C4_6  and  N2_7 
REMARK    3  A    between atoms: C8_13  and  O2_14 
REMARK    4  A    between atoms: C9_18  and  O3_19 
ROOT
HETATM    1  N1  UNL     1      -3.837   1.040  16.491  1.00  0.00    -0.197 NA
HETATM    2  C1  UNL     1      -4.160   0.658  15.450  1.00  0.00     0.061 C 
HETATM    3  C2  UNL     1      -4.564   0.177  14.151  1.00  0.00     0.160 C 
ENDROOT
BRANCH   3   4
HETATM    4  C3  UNL     1      -4.027   1.051  13.017  1.00  0.00     0.185 C 
HETATM    5  O1  UNL     1      -4.368   2.369  13.364  1.00  0.00    -0.350 OA
HETATM    6  C4  UNL     1      -3.740   3.200  12.473  1.00  0.00     0.291 C 
HETATM    7  C8  UNL     1      -4.118   2.977  11.050  1.00  0.00     0.266 C 
HETATM    8  N4  UNL     1      -4.637   1.709  10.727  1.00  0.00    -0.366 N 
HETATM    9  C9  UNL     1      -4.738   0.743  11.741  1.00  0.00     0.245 C 
ATOM     10  H4  UNL     1      -4.934   1.496   9.775  1.00  0.00     0.158 HD
BRANCH   6  11
HETATM   11  N2  UNL     1      -3.970   4.575  12.910  1.00  0.00    -0.270 N 
HETATM   12  C5  UNL     1      -4.758   4.959  13.933  1.00  0.00     0.114 A 
HETATM   13  C6  UNL     1      -4.730   6.325  14.048  1.00  0.00     0.037 A 
HETATM   14  C7  UNL     1      -3.892   6.770  13.053  1.00  0.00     0.108 A 
HETATM   15  N3  UNL     1      -3.453   5.683  12.390  1.00  0.00    -0.308 N 
ATOM     16  H3  UNL     1      -2.813   5.707  11.597  1.00  0.00     0.186 HD
ENDBRANCH   6  11
BRANCH   7  17
HETATM   17  O2  UNL     1      -5.061   3.951  10.645  1.00  0.00    -0.372 OA
ATOM     18  H2  UNL     1      -4.666   4.536  10.009  1.00  0.00     0.212 HD
ENDBRANCH   7  17
BRANCH   9  19
HETATM   19  O3  UNL     1      -4.249  -0.483  11.270  1.00  0.00    -0.374 OA
ATOM     20  H3  UNL     1      -4.913  -1.141  11.440  1.00  0.00     0.212 HD
ENDBRANCH   9  19
ENDBRANCH   3   4
TORSDOF 4
ENDMDL
