MODEL 1
REMARK VINA RESULT: -6.517631810      0.000      0.000
REMARK  7 active torsions:
REMARK  status: ('A' for Active; 'I' for Inactive)
REMARK    1  A    between atoms: C2_2  and  C4_4 
REMARK    2  A    between atoms: C2_2  and  C5_7 
REMARK    3  A    between atoms: C4_4  and  O1_5 
REMARK    4  A    between atoms: C5_7  and  O2_8 
REMARK    5  A    between atoms: C5_7  and  C6_10 
REMARK    6  A    between atoms: C6_10  and  C7_11 
REMARK    7  A    between atoms: C7_11  and  C8_12 
REMARK       I    between atoms: C8_12  and  N1_14 
ROOT
HETATM    1  C7  UNL     1      14.745  10.979  -2.079  1.00  0.00     0.105 C 
ENDROOT
BRANCH   1   2
HETATM    2  C6  UNL     1      14.662  10.325  -3.434  1.00  0.00     0.041 C 
BRANCH   2   3
HETATM    3  C5  UNL     1      14.143   8.906  -3.346  1.00  0.00     0.128 C 
BRANCH   3   4
HETATM    4  C2  UNL     1      15.121   8.000  -4.012  1.00  0.00    -0.000 C 
HETATM    5  C1  UNL     1      15.879   8.784  -5.056  1.00  0.00     0.019 C 
HETATM    6  C3  UNL     1      16.147   7.510  -2.987  1.00  0.00     0.019 C 
BRANCH   4   7
HETATM    7  C4  UNL     1      14.484   6.762  -4.597  1.00  0.00     0.175 C 
BRANCH   7   8
HETATM    8  O1  UNL     1      13.730   6.086  -3.646  1.00  0.00    -0.400 OA
ATOM      9  H1  UNL     1      13.273   6.691  -3.074  1.00  0.00     0.209 HD
ENDBRANCH   7   8
ENDBRANCH   4   7
ENDBRANCH   3   4
BRANCH   3  10
HETATM   10  O2  UNL     1      12.851   8.795  -3.796  1.00  0.00    -0.395 OA
ATOM     11  H2  UNL     1      12.388   8.019  -3.499  1.00  0.00     0.210 HD
ENDBRANCH   3  10
ENDBRANCH   2   3
ENDBRANCH   1   2
BRANCH   1  12
HETATM   12  C8  UNL     1      15.965  10.524  -1.378  1.00  0.00     0.219 C 
HETATM   13  O3  UNL     1      17.099  10.726  -1.904  1.00  0.00    -0.273 OA
HETATM   14  N1  UNL     1      15.938   9.859  -0.123  1.00  0.00    -0.349 N 
HETATM   15  C9  UNL     1      14.632   9.634   0.469  1.00  0.00     0.154 C 
HETATM   16  C14 UNL     1      17.129   9.430   0.532  1.00  0.00     0.154 C 
HETATM   17  C10 UNL     1      14.756   8.877   1.751  1.00  0.00     0.256 C 
HETATM   18  N2  UNL     1      15.642   7.744   1.543  1.00  0.00    -0.072 N 
HETATM   19  C11 UNL     1      15.122   6.926   0.459  1.00  0.00     0.272 C 
HETATM   20  C12 UNL     1      15.556   6.937   2.748  1.00  0.00     0.272 C 
HETATM   21  C13 UNL     1      16.998   8.142   1.284  1.00  0.00     0.256 C 
ENDBRANCH   1  12
TORSDOF 7
ENDMDL
MODEL 2
REMARK VINA RESULT: -6.417052849      5.936      8.069
REMARK  7 active torsions:
REMARK  status: ('A' for Active; 'I' for Inactive)
REMARK    1  A    between atoms: C2_2  and  C4_4 
REMARK    2  A    between atoms: C2_2  and  C5_7 
REMARK    3  A    between atoms: C4_4  and  O1_5 
REMARK    4  A    between atoms: C5_7  and  O2_8 
REMARK    5  A    between atoms: C5_7  and  C6_10 
REMARK    6  A    between atoms: C6_10  and  C7_11 
REMARK    7  A    between atoms: C7_11  and  C8_12 
REMARK       I    between atoms: C8_12  and  N1_14 
ROOT
HETATM    1  C7  UNL     1      10.693   8.356   3.150  1.00  0.00     0.105 C 
ENDROOT
BRANCH   1   2
HETATM    2  C6  UNL     1       9.707   9.493   3.088  1.00  0.00     0.041 C 
BRANCH   2   3
HETATM    3  C5  UNL     1       8.288   9.023   3.320  1.00  0.00     0.128 C 
BRANCH   3   4
HETATM    4  C2  UNL     1       7.824   9.541   4.638  1.00  0.00    -0.000 C 
HETATM    5  C1  UNL     1       8.383  10.929   4.840  1.00  0.00     0.019 C 
HETATM    6  C3  UNL     1       6.299   9.669   4.631  1.00  0.00     0.019 C 
BRANCH   4   7
HETATM    7  C4  UNL     1       8.166   8.628   5.792  1.00  0.00     0.175 C 
BRANCH   7   8
HETATM    8  O1  UNL     1       9.114   9.204   6.627  1.00  0.00    -0.400 OA
ATOM      9  H1  UNL     1       9.997   8.996   6.343  1.00  0.00     0.209 HD
ENDBRANCH   7   8
ENDBRANCH   4   7
ENDBRANCH   3   4
BRANCH   3  10
HETATM   10  O2  UNL     1       8.154   7.666   3.151  1.00  0.00    -0.395 OA
ATOM     11  H2  UNL     1       8.174   7.370   2.248  1.00  0.00     0.210 HD
ENDBRANCH   3  10
ENDBRANCH   2   3
ENDBRANCH   1   2
BRANCH   1  12
HETATM   12  C8  UNL     1      11.776   8.685   4.102  1.00  0.00     0.219 C 
HETATM   13  O3  UNL     1      11.547   9.490   5.054  1.00  0.00    -0.273 OA
HETATM   14  N1  UNL     1      13.085   8.141   4.011  1.00  0.00    -0.349 N 
HETATM   15  C9  UNL     1      13.333   7.220   2.917  1.00  0.00     0.154 C 
HETATM   16  C14 UNL     1      14.110   8.475   4.942  1.00  0.00     0.154 C 
HETATM   17  C10 UNL     1      14.760   6.777   2.912  1.00  0.00     0.256 C 
HETATM   18  N2  UNL     1      15.614   7.944   3.063  1.00  0.00    -0.072 N 
HETATM   19  C11 UNL     1      15.319   8.889   1.998  1.00  0.00     0.272 C 
HETATM   20  C12 UNL     1      16.973   7.481   2.840  1.00  0.00     0.272 C 
HETATM   21  C13 UNL     1      15.484   8.563   4.352  1.00  0.00     0.256 C 
ENDBRANCH   1  12
TORSDOF 7
ENDMDL
MODEL 3
REMARK VINA RESULT: -6.271794682      1.955      3.087
REMARK  7 active torsions:
REMARK  status: ('A' for Active; 'I' for Inactive)
REMARK    1  A    between atoms: C2_2  and  C4_4 
REMARK    2  A    between atoms: C2_2  and  C5_7 
REMARK    3  A    between atoms: C4_4  and  O1_5 
REMARK    4  A    between atoms: C5_7  and  O2_8 
REMARK    5  A    between atoms: C5_7  and  C6_10 
REMARK    6  A    between atoms: C6_10  and  C7_11 
REMARK    7  A    between atoms: C7_11  and  C8_12 
REMARK       I    between atoms: C8_12  and  N1_14 
ROOT
HETATM    1  C7  UNL     1      15.517   7.086  -0.532  1.00  0.00     0.105 C 
ENDROOT
BRANCH   1   2
HETATM    2  C6  UNL     1      16.245   7.760  -1.667  1.00  0.00     0.041 C 
BRANCH   2   3
HETATM    3  C5  UNL     1      15.533   7.565  -2.988  1.00  0.00     0.128 C 
BRANCH   3   4
HETATM    4  C2  UNL     1      15.356   8.896  -3.634  1.00  0.00    -0.000 C 
HETATM    5  C1  UNL     1      16.142   9.924  -2.856  1.00  0.00     0.019 C 
HETATM    6  C3  UNL     1      15.940   8.863  -5.049  1.00  0.00     0.019 C 
BRANCH   4   7
HETATM    7  C4  UNL     1      13.908   9.298  -3.785  1.00  0.00     0.175 C 
BRANCH   7   8
HETATM    8  O1  UNL     1      13.308   9.497  -2.548  1.00  0.00    -0.400 OA
ATOM      9  H1  UNL     1      12.642  10.172  -2.592  1.00  0.00     0.209 HD
ENDBRANCH   7   8
ENDBRANCH   4   7
ENDBRANCH   3   4
BRANCH   3  10
HETATM   10  O2  UNL     1      14.382   6.827  -2.857  1.00  0.00    -0.395 OA
ATOM     11  H2  UNL     1      14.433   5.941  -3.196  1.00  0.00     0.210 HD
ENDBRANCH   3  10
ENDBRANCH   2   3
ENDBRANCH   1   2
BRANCH   1  12
HETATM   12  C8  UNL     1      16.196   7.389   0.746  1.00  0.00     0.219 C 
HETATM   13  O3  UNL     1      17.392   7.010   0.923  1.00  0.00    -0.273 OA
HETATM   14  N1  UNL     1      15.573   8.097   1.809  1.00  0.00    -0.349 N 
HETATM   15  C9  UNL     1      14.204   8.526   1.592  1.00  0.00     0.154 C 
HETATM   16  C14 UNL     1      16.250   8.376   3.031  1.00  0.00     0.154 C 
HETATM   17  C10 UNL     1      13.662   9.201   2.810  1.00  0.00     0.256 C 
HETATM   18  N2  UNL     1      13.973   8.387   3.974  1.00  0.00    -0.072 N 
HETATM   19  C11 UNL     1      13.424   7.054   3.783  1.00  0.00     0.272 C 
HETATM   20  C12 UNL     1      13.247   8.978   5.086  1.00  0.00     0.272 C 
HETATM   21  C13 UNL     1      15.381   8.329   4.250  1.00  0.00     0.256 C 
ENDBRANCH   1  12
TORSDOF 7
ENDMDL
MODEL 4
REMARK VINA RESULT: -6.245608640      1.800      3.081
REMARK  7 active torsions:
REMARK  status: ('A' for Active; 'I' for Inactive)
REMARK    1  A    between atoms: C2_2  and  C4_4 
REMARK    2  A    between atoms: C2_2  and  C5_7 
REMARK    3  A    between atoms: C4_4  and  O1_5 
REMARK    4  A    between atoms: C5_7  and  O2_8 
REMARK    5  A    between atoms: C5_7  and  C6_10 
REMARK    6  A    between atoms: C6_10  and  C7_11 
REMARK    7  A    between atoms: C7_11  and  C8_12 
REMARK       I    between atoms: C8_12  and  N1_14 
ROOT
HETATM    1  C7  UNL     1      15.849   6.966  -0.684  1.00  0.00     0.105 C 
ENDROOT
BRANCH   1   2
HETATM    2  C6  UNL     1      15.289   7.838  -1.778  1.00  0.00     0.041 C 
BRANCH   2   3
HETATM    3  C5  UNL     1      15.964   7.579  -3.108  1.00  0.00     0.128 C 
BRANCH   3   4
HETATM    4  C2  UNL     1      16.400   8.884  -3.681  1.00  0.00    -0.000 C 
HETATM    5  C1  UNL     1      15.998   8.936  -5.135  1.00  0.00     0.019 C 
HETATM    6  C3  UNL     1      15.669  10.026  -2.972  1.00  0.00     0.019 C 
BRANCH   4   7
HETATM    7  C4  UNL     1      17.876   9.151  -3.500  1.00  0.00     0.175 C 
BRANCH   7   8
HETATM    8  O1  UNL     1      18.113   9.936  -2.380  1.00  0.00    -0.400 OA
ATOM      9  H1  UNL     1      19.031  10.170  -2.310  1.00  0.00     0.209 HD
ENDBRANCH   7   8
ENDBRANCH   4   7
ENDBRANCH   3   4
BRANCH   3  10
HETATM   10  O2  UNL     1      15.193   6.808  -3.943  1.00  0.00    -0.395 OA
ATOM     11  H2  UNL     1      15.656   6.434  -4.684  1.00  0.00     0.210 HD
ENDBRANCH   3  10
ENDBRANCH   2   3
ENDBRANCH   1   2
BRANCH   1  12
HETATM   12  C8  UNL     1      16.717   7.771   0.201  1.00  0.00     0.219 C 
HETATM   13  O3  UNL     1      17.906   8.025  -0.154  1.00  0.00    -0.273 OA
HETATM   14  N1  UNL     1      16.286   8.288   1.453  1.00  0.00    -0.349 N 
HETATM   15  C9  UNL     1      14.921   7.989   1.846  1.00  0.00     0.154 C 
HETATM   16  C14 UNL     1      17.143   9.062   2.287  1.00  0.00     0.154 C 
HETATM   17  C10 UNL     1      14.629   8.544   3.202  1.00  0.00     0.256 C 
HETATM   18  N2  UNL     1      15.718   8.188   4.098  1.00  0.00    -0.072 N 
HETATM   19  C11 UNL     1      15.874   6.742   4.107  1.00  0.00     0.272 C 
HETATM   20  C12 UNL     1      15.283   8.565   5.433  1.00  0.00     0.272 C 
HETATM   21  C13 UNL     1      16.952   8.838   3.755  1.00  0.00     0.256 C 
ENDBRANCH   1  12
TORSDOF 7
ENDMDL
MODEL 5
REMARK VINA RESULT: -6.238765279      5.526      7.925
REMARK  7 active torsions:
REMARK  status: ('A' for Active; 'I' for Inactive)
REMARK    1  A    between atoms: C2_2  and  C4_4 
REMARK    2  A    between atoms: C2_2  and  C5_7 
REMARK    3  A    between atoms: C4_4  and  O1_5 
REMARK    4  A    between atoms: C5_7  and  O2_8 
REMARK    5  A    between atoms: C5_7  and  C6_10 
REMARK    6  A    between atoms: C6_10  and  C7_11 
REMARK    7  A    between atoms: C7_11  and  C8_12 
REMARK       I    between atoms: C8_12  and  N1_14 
ROOT
HETATM    1  C7  UNL     1      12.099   7.524   3.213  1.00  0.00     0.105 C 
ENDROOT
BRANCH   1   2
HETATM    2  C6  UNL     1      13.158   7.236   4.246  1.00  0.00     0.041 C 
BRANCH   2   3
HETATM    3  C5  UNL     1      14.457   6.789   3.613  1.00  0.00     0.128 C 
BRANCH   3   4
HETATM    4  C2  UNL     1      15.537   7.729   4.029  1.00  0.00    -0.000 C 
HETATM    5  C1  UNL     1      15.048   8.542   5.204  1.00  0.00     0.019 C 
HETATM    6  C3  UNL     1      16.753   6.933   4.511  1.00  0.00     0.019 C 
BRANCH   4   7
HETATM    7  C4  UNL     1      16.027   8.610   2.905  1.00  0.00     0.175 C 
BRANCH   7   8
HETATM    8  O1  UNL     1      15.049   9.513   2.510  1.00  0.00    -0.400 OA
ATOM      9  H1  UNL     1      15.431  10.267   2.075  1.00  0.00     0.209 HD
ENDBRANCH   7   8
ENDBRANCH   4   7
ENDBRANCH   3   4
BRANCH   3  10
HETATM   10  O2  UNL     1      14.341   6.605   2.257  1.00  0.00    -0.395 OA
ATOM     11  H2  UNL     1      14.940   7.121   1.729  1.00  0.00     0.210 HD
ENDBRANCH   3  10
ENDBRANCH   2   3
ENDBRANCH   1   2
BRANCH   1  12
HETATM   12  C8  UNL     1      11.585   8.898   3.395  1.00  0.00     0.219 C 
HETATM   13  O3  UNL     1      12.400   9.864   3.485  1.00  0.00    -0.273 OA
HETATM   14  N1  UNL     1      10.200   9.206   3.477  1.00  0.00    -0.349 N 
HETATM   15  C9  UNL     1       9.277   8.091   3.372  1.00  0.00     0.154 C 
HETATM   16  C14 UNL     1       9.730  10.539   3.653  1.00  0.00     0.154 C 
HETATM   17  C10 UNL     1       7.866   8.555   3.534  1.00  0.00     0.256 C 
HETATM   18  N2  UNL     1       7.791   9.429   4.693  1.00  0.00    -0.072 N 
HETATM   19  C11 UNL     1       8.281   8.715   5.861  1.00  0.00     0.272 C 
HETATM   20  C12 UNL     1       6.377   9.675   4.922  1.00  0.00     0.272 C 
HETATM   21  C13 UNL     1       8.505  10.661   4.505  1.00  0.00     0.256 C 
ENDBRANCH   1  12
TORSDOF 7
ENDMDL
