MODEL 1
REMARK VINA RESULT: -8.587132117      0.000      0.000
REMARK  8 active torsions:
REMARK  status: ('A' for Active; 'I' for Inactive)
REMARK    1  A    between atoms: C2_2  and  C4_4 
REMARK    2  A    between atoms: C4_4  and  C5_5 
REMARK    3  A    between atoms: C5_5  and  N1_6 
REMARK    4  A    between atoms: C5_5  and  C11_14 
REMARK       I    between atoms: N1_6  and  C6_8 
REMARK    5  A    between atoms: C6_8  and  C7_10 
REMARK       I    between atoms: C11_14  and  N2_16 
REMARK    6  A    between atoms: C15_21  and  C16_22 
REMARK    7  A    between atoms: C16_22  and  N3_23 
REMARK       I    between atoms: N3_23  and  C17_25 
REMARK    8  A    between atoms: C17_25  and  C18_27 
ROOT
HETATM    1  C11 UNL     1      12.465  10.249   0.121  1.00  0.00     0.243 C 
HETATM    2  O2  UNL     1      11.522  10.159  -0.693  1.00  0.00    -0.271 OA
HETATM    3  N2  UNL     1      12.269   9.717   1.413  1.00  0.00    -0.343 N 
HETATM    4  C12 UNL     1      13.199   9.581   2.515  1.00  0.00     0.142 C 
HETATM    5  C13 UNL     1      12.733   8.336   3.260  1.00  0.00     0.078 C 
HETATM    6 BR1  UNL     1      14.103   6.953   3.178  1.00  0.00    -0.089 Br
HETATM    7  C14 UNL     1      11.472   7.892   2.565  1.00  0.00     0.044 C 
HETATM    8  C15 UNL     1      10.992   9.208   1.985  1.00  0.00     0.106 C 
ENDROOT
BRANCH   1   9
HETATM    9  C5  UNL     1      13.723  10.907  -0.320  1.00  0.00     0.177 C 
BRANCH   9  10
HETATM   10  C4  UNL     1      13.659  12.309  -0.702  1.00  0.00     0.038 C 
BRANCH  10  11
HETATM   11  C2  UNL     1      12.781  13.261  -0.005  1.00  0.00    -0.020 C 
HETATM   12  C1  UNL     1      12.968  14.608  -0.736  1.00  0.00     0.009 C 
HETATM   13  C3  UNL     1      13.075  13.525   1.427  1.00  0.00     0.009 C 
ENDBRANCH  10  11
ENDBRANCH   9  10
BRANCH   9  14
HETATM   14  N1  UNL     1      14.433  10.050  -1.253  1.00  0.00    -0.347 N 
HETATM   15  C6  UNL     1      15.784   9.836  -1.383  1.00  0.00     0.222 C 
HETATM   16  O1  UNL     1      16.597  10.443  -0.598  1.00  0.00    -0.273 OA
ATOM     17  H1  UNL     1      13.844   9.533  -1.906  1.00  0.00     0.163 HD
BRANCH  15  18
HETATM   18  C7  UNL     1      16.382   8.942  -2.387  1.00  0.00     0.078 C 
HETATM   19  C8  UNL     1      17.527   9.542  -3.178  1.00  0.00     0.014 C 
HETATM   20  C9  UNL     1      16.599   9.732  -4.341  1.00  0.00     0.002 C 
HETATM   21  C10 UNL     1      15.608   8.800  -3.668  1.00  0.00     0.014 C 
ENDBRANCH  15  18
ENDBRANCH   9  14
ENDBRANCH   1   9
BRANCH   8  22
HETATM   22  C16 UNL     1      10.557  10.111   3.100  1.00  0.00     0.147 C 
BRANCH  22  23
HETATM   23  N3  UNL     1       9.124  10.233   3.121  1.00  0.00    -0.359 N 
HETATM   24  C17 UNL     1       8.261   9.405   3.872  1.00  0.00     0.221 C 
HETATM   25  O3  UNL     1       8.673   8.491   4.600  1.00  0.00    -0.273 OA
ATOM     26  H3  UNL     1       8.702  10.969   2.554  1.00  0.00     0.162 HD
BRANCH  24  27
HETATM   27  C18 UNL     1       6.780   9.607   3.817  1.00  0.00     0.070 C 
HETATM   28  C19 UNL     1       6.379  10.223   2.507  1.00  0.00     0.019 C 
HETATM   29  C20 UNL     1       6.380  10.460   4.966  1.00  0.00     0.019 C 
ENDBRANCH  24  27
ENDBRANCH  22  23
ENDBRANCH   8  22
TORSDOF 8
ENDMDL
MODEL 2
REMARK VINA RESULT: -8.585834284      0.896      1.240
REMARK  8 active torsions:
REMARK  status: ('A' for Active; 'I' for Inactive)
REMARK    1  A    between atoms: C2_2  and  C4_4 
REMARK    2  A    between atoms: C4_4  and  C5_5 
REMARK    3  A    between atoms: C5_5  and  N1_6 
REMARK    4  A    between atoms: C5_5  and  C11_14 
REMARK       I    between atoms: N1_6  and  C6_8 
REMARK    5  A    between atoms: C6_8  and  C7_10 
REMARK       I    between atoms: C11_14  and  N2_16 
REMARK    6  A    between atoms: C15_21  and  C16_22 
REMARK    7  A    between atoms: C16_22  and  N3_23 
REMARK       I    between atoms: N3_23  and  C17_25 
REMARK    8  A    between atoms: C17_25  and  C18_27 
ROOT
HETATM    1  C11 UNL     1      12.765  10.268  -0.043  1.00  0.00     0.243 C 
HETATM    2  O2  UNL     1      11.680  10.246  -0.660  1.00  0.00    -0.271 OA
HETATM    3  N2  UNL     1      12.794   9.713   1.254  1.00  0.00    -0.343 N 
HETATM    4  C12 UNL     1      13.911   9.502   2.153  1.00  0.00     0.142 C 
HETATM    5  C13 UNL     1      13.531   8.263   2.954  1.00  0.00     0.078 C 
HETATM    6 BR1  UNL     1      14.783   6.817   2.586  1.00  0.00    -0.089 Br
HETATM    7  C14 UNL     1      12.138   7.900   2.509  1.00  0.00     0.044 C 
HETATM    8  C15 UNL     1      11.626   9.253   2.054  1.00  0.00     0.106 C 
ENDROOT
BRANCH   1   9
HETATM    9  C5  UNL     1      13.948  10.874  -0.709  1.00  0.00     0.177 C 
BRANCH   9  10
HETATM   10  C4  UNL     1      13.800  12.204  -1.280  1.00  0.00     0.038 C 
BRANCH  10  11
HETATM   11  C2  UNL     1      14.289  13.403  -0.583  1.00  0.00    -0.020 C 
HETATM   12  C1  UNL     1      13.067  14.337  -0.460  1.00  0.00     0.009 C 
HETATM   13  C3  UNL     1      15.346  14.194  -1.264  1.00  0.00     0.009 C 
ENDBRANCH  10  11
ENDBRANCH   9  10
BRANCH   9  14
HETATM   14  N1  UNL     1      14.583   9.902  -1.580  1.00  0.00    -0.347 N 
HETATM   15  C6  UNL     1      15.883   9.846  -2.021  1.00  0.00     0.222 C 
HETATM   16  O1  UNL     1      16.715  10.747  -1.647  1.00  0.00    -0.273 OA
ATOM     17  H1  UNL     1      13.977   9.151  -1.912  1.00  0.00     0.163 HD
BRANCH  15  18
HETATM   18  C7  UNL     1      16.402   8.803  -2.920  1.00  0.00     0.078 C 
HETATM   19  C8  UNL     1      17.457   9.271  -3.903  1.00  0.00     0.014 C 
HETATM   20  C9  UNL     1      16.420   9.265  -4.988  1.00  0.00     0.002 C 
HETATM   21  C10 UNL     1      15.515   8.451  -4.082  1.00  0.00     0.014 C 
ENDBRANCH  15  18
ENDBRANCH   9  14
ENDBRANCH   1   9
BRANCH   8  22
HETATM   22  C16 UNL     1      11.463  10.147   3.246  1.00  0.00     0.147 C 
BRANCH  22  23
HETATM   23  N3  UNL     1      10.108  10.620   3.341  1.00  0.00    -0.359 N 
HETATM   24  C17 UNL     1       9.067   9.941   4.014  1.00  0.00     0.221 C 
HETATM   25  O3  UNL     1       9.239   8.863   4.600  1.00  0.00    -0.273 OA
ATOM     26  H3  UNL     1       9.883  11.508   2.892  1.00  0.00     0.162 HD
BRANCH  24  27
HETATM   27  C18 UNL     1       7.686  10.514   4.045  1.00  0.00     0.070 C 
HETATM   28  C19 UNL     1       6.902   9.944   5.192  1.00  0.00     0.019 C 
HETATM   29  C20 UNL     1       7.032  10.228   2.741  1.00  0.00     0.019 C 
ENDBRANCH  24  27
ENDBRANCH  22  23
ENDBRANCH   8  22
TORSDOF 8
ENDMDL
MODEL 3
REMARK VINA RESULT: -8.321203039      2.027      7.724
REMARK  8 active torsions:
REMARK  status: ('A' for Active; 'I' for Inactive)
REMARK    1  A    between atoms: C2_2  and  C4_4 
REMARK    2  A    between atoms: C4_4  and  C5_5 
REMARK    3  A    between atoms: C5_5  and  N1_6 
REMARK    4  A    between atoms: C5_5  and  C11_14 
REMARK       I    between atoms: N1_6  and  C6_8 
REMARK    5  A    between atoms: C6_8  and  C7_10 
REMARK       I    between atoms: C11_14  and  N2_16 
REMARK    6  A    between atoms: C15_21  and  C16_22 
REMARK    7  A    between atoms: C16_22  and  N3_23 
REMARK       I    between atoms: N3_23  and  C17_25 
REMARK    8  A    between atoms: C17_25  and  C18_27 
ROOT
HETATM    1  C11 UNL     1      11.784  10.284   1.383  1.00  0.00     0.243 C 
HETATM    2  O2  UNL     1      12.097  11.484   1.233  1.00  0.00    -0.271 OA
HETATM    3  N2  UNL     1      12.818   9.366   1.661  1.00  0.00    -0.343 N 
HETATM    4  C12 UNL     1      12.749   7.955   1.985  1.00  0.00     0.142 C 
HETATM    5  C13 UNL     1      13.945   7.710   2.896  1.00  0.00     0.078 C 
HETATM    6 BR1  UNL     1      13.340   7.174   4.668  1.00  0.00    -0.089 Br
HETATM    7  C14 UNL     1      14.691   9.019   2.951  1.00  0.00     0.044 C 
HETATM    8  C15 UNL     1      14.282   9.632   1.626  1.00  0.00     0.106 C 
ENDROOT
BRANCH   1   9
HETATM    9  C5  UNL     1      10.352   9.905   1.259  1.00  0.00     0.177 C 
BRANCH   9  10
HETATM   10  C4  UNL     1       9.600  10.446   0.137  1.00  0.00     0.038 C 
BRANCH  10  11
HETATM   11  C2  UNL     1       8.259   9.948  -0.206  1.00  0.00    -0.020 C 
HETATM   12  C1  UNL     1       8.107  10.181  -1.725  1.00  0.00     0.009 C 
HETATM   13  C3  UNL     1       7.103  10.628   0.433  1.00  0.00     0.009 C 
ENDBRANCH  10  11
ENDBRANCH   9  10
BRANCH   9  14
HETATM   14  N1  UNL     1       9.692  10.016   2.547  1.00  0.00    -0.347 N 
HETATM   15  C6  UNL     1       8.939   9.087   3.222  1.00  0.00     0.222 C 
HETATM   16  O1  UNL     1       8.752   7.929   2.704  1.00  0.00    -0.273 OA
ATOM     17  H1  UNL     1       9.804  10.913   3.019  1.00  0.00     0.163 HD
BRANCH  15  18
HETATM   18  C7  UNL     1       8.310   9.332   4.530  1.00  0.00     0.078 C 
HETATM   19  C8  UNL     1       6.795   9.285   4.531  1.00  0.00     0.014 C 
HETATM   20  C9  UNL     1       6.769  10.785   4.577  1.00  0.00     0.002 C 
HETATM   21  C10 UNL     1       8.239  10.773   4.954  1.00  0.00     0.014 C 
ENDBRANCH  15  18
ENDBRANCH   9  14
ENDBRANCH   1   9
BRANCH   8  22
HETATM   22  C16 UNL     1      14.898   8.848   0.507  1.00  0.00     0.147 C 
BRANCH  22  23
HETATM   23  N3  UNL     1      15.639   9.715  -0.369  1.00  0.00    -0.359 N 
HETATM   24  C17 UNL     1      15.060  10.534  -1.364  1.00  0.00     0.221 C 
HETATM   25  O3  UNL     1      13.839  10.585  -1.564  1.00  0.00    -0.273 OA
ATOM     26  H3  UNL     1      16.654   9.740  -0.265  1.00  0.00     0.162 HD
BRANCH  24  27
HETATM   27  C18 UNL     1      15.923  11.394  -2.233  1.00  0.00     0.070 C 
HETATM   28  C19 UNL     1      17.295  10.800  -2.370  1.00  0.00     0.019 C 
HETATM   29  C20 UNL     1      15.973  12.756  -1.642  1.00  0.00     0.019 C 
ENDBRANCH  24  27
ENDBRANCH  22  23
ENDBRANCH   8  22
TORSDOF 8
ENDMDL
MODEL 4
REMARK VINA RESULT: -8.319593561      1.198      1.389
REMARK  8 active torsions:
REMARK  status: ('A' for Active; 'I' for Inactive)
REMARK    1  A    between atoms: C2_2  and  C4_4 
REMARK    2  A    between atoms: C4_4  and  C5_5 
REMARK    3  A    between atoms: C5_5  and  N1_6 
REMARK    4  A    between atoms: C5_5  and  C11_14 
REMARK       I    between atoms: N1_6  and  C6_8 
REMARK    5  A    between atoms: C6_8  and  C7_10 
REMARK       I    between atoms: C11_14  and  N2_16 
REMARK    6  A    between atoms: C15_21  and  C16_22 
REMARK    7  A    between atoms: C16_22  and  N3_23 
REMARK       I    between atoms: N3_23  and  C17_25 
REMARK    8  A    between atoms: C17_25  and  C18_27 
ROOT
HETATM    1  C11 UNL     1      12.744   9.670   0.869  1.00  0.00     0.243 C 
HETATM    2  O2  UNL     1      11.662   9.384   0.316  1.00  0.00    -0.271 OA
HETATM    3  N2  UNL     1      12.988   9.135   2.151  1.00  0.00    -0.343 N 
HETATM    4  C12 UNL     1      14.176   9.202   2.979  1.00  0.00     0.142 C 
HETATM    5  C13 UNL     1      14.163   7.904   3.777  1.00  0.00     0.078 C 
HETATM    6 BR1  UNL     1      15.707   6.814   3.308  1.00  0.00    -0.089 Br
HETATM    7  C14 UNL     1      12.877   7.211   3.408  1.00  0.00     0.044 C 
HETATM    8  C15 UNL     1      12.021   8.397   3.009  1.00  0.00     0.106 C 
ENDROOT
BRANCH   1   9
HETATM    9  C5  UNL     1      13.698  10.552   0.146  1.00  0.00     0.177 C 
BRANCH   9  10
HETATM   10  C4  UNL     1      13.183  11.788  -0.424  1.00  0.00     0.038 C 
BRANCH  10  11
HETATM   11  C2  UNL     1      13.809  13.089  -0.143  1.00  0.00    -0.020 C 
HETATM   12  C1  UNL     1      12.640  14.070   0.086  1.00  0.00     0.009 C 
HETATM   13  C3  UNL     1      14.642  13.683  -1.219  1.00  0.00     0.009 C 
ENDBRANCH  10  11
ENDBRANCH   9  10
BRANCH   9  14
HETATM   14  N1  UNL     1      14.526   9.765  -0.748  1.00  0.00    -0.347 N 
HETATM   15  C6  UNL     1      15.866   9.887  -1.027  1.00  0.00     0.222 C 
HETATM   16  O1  UNL     1      16.550  10.804  -0.448  1.00  0.00    -0.273 OA
ATOM     17  H1  UNL     1      14.045   9.011  -1.240  1.00  0.00     0.163 HD
BRANCH  15  18
HETATM   18  C7  UNL     1      16.591   9.022  -1.972  1.00  0.00     0.078 C 
HETATM   19  C8  UNL     1      17.649   9.723  -2.800  1.00  0.00     0.014 C 
HETATM   20  C9  UNL     1      16.713   9.708  -3.973  1.00  0.00     0.002 C 
HETATM   21  C10 UNL     1      15.855   8.692  -3.241  1.00  0.00     0.014 C 
ENDBRANCH  15  18
ENDBRANCH   9  14
ENDBRANCH   1   9
BRANCH   8  22
HETATM   22  C16 UNL     1      11.717   9.218   4.226  1.00  0.00     0.147 C 
BRANCH  22  23
HETATM   23  N3  UNL     1      10.332   9.085   4.592  1.00  0.00    -0.359 N 
HETATM   24  C17 UNL     1       9.252   9.601   3.842  1.00  0.00     0.221 C 
HETATM   25  O3  UNL     1       9.407  10.216   2.779  1.00  0.00    -0.273 OA
ATOM     26  H3  UNL     1      10.115   8.582   5.454  1.00  0.00     0.162 HD
BRANCH  24  27
HETATM   27  C18 UNL     1       7.845   9.418   4.317  1.00  0.00     0.070 C 
HETATM   28  C19 UNL     1       6.891  10.190   3.452  1.00  0.00     0.019 C 
HETATM   29  C20 UNL     1       7.770   9.853   5.736  1.00  0.00     0.019 C 
ENDBRANCH  24  27
ENDBRANCH  22  23
ENDBRANCH   8  22
TORSDOF 8
ENDMDL
MODEL 5
REMARK VINA RESULT: -8.314879567      1.992      7.821
REMARK  8 active torsions:
REMARK  status: ('A' for Active; 'I' for Inactive)
REMARK    1  A    between atoms: C2_2  and  C4_4 
REMARK    2  A    between atoms: C4_4  and  C5_5 
REMARK    3  A    between atoms: C5_5  and  N1_6 
REMARK    4  A    between atoms: C5_5  and  C11_14 
REMARK       I    between atoms: N1_6  and  C6_8 
REMARK    5  A    between atoms: C6_8  and  C7_10 
REMARK       I    between atoms: C11_14  and  N2_16 
REMARK    6  A    between atoms: C15_21  and  C16_22 
REMARK    7  A    between atoms: C16_22  and  N3_23 
REMARK       I    between atoms: N3_23  and  C17_25 
REMARK    8  A    between atoms: C17_25  and  C18_27 
ROOT
HETATM    1  C11 UNL     1      11.937  10.167   1.245  1.00  0.00     0.243 C 
HETATM    2  O2  UNL     1      12.290  11.337   0.989  1.00  0.00    -0.271 OA
HETATM    3  N2  UNL     1      12.940   9.245   1.613  1.00  0.00    -0.343 N 
HETATM    4  C12 UNL     1      12.823   7.873   2.062  1.00  0.00     0.142 C 
HETATM    5  C13 UNL     1      14.007   7.673   3.001  1.00  0.00     0.078 C 
HETATM    6 BR1  UNL     1      13.377   7.319   4.810  1.00  0.00    -0.089 Br
HETATM    7  C14 UNL     1      14.795   8.957   2.942  1.00  0.00     0.044 C 
HETATM    8  C15 UNL     1      14.412   9.460   1.565  1.00  0.00     0.106 C 
ENDROOT
BRANCH   1   9
HETATM    9  C5  UNL     1      10.494   9.824   1.145  1.00  0.00     0.177 C 
BRANCH   9  10
HETATM   10  C4  UNL     1       9.737  10.383   0.036  1.00  0.00     0.038 C 
BRANCH  10  11
HETATM   11  C2  UNL     1       8.373   9.929  -0.276  1.00  0.00    -0.020 C 
HETATM   12  C1  UNL     1       8.178  10.209  -1.781  1.00  0.00     0.009 C 
HETATM   13  C3  UNL     1       7.257  10.619   0.421  1.00  0.00     0.009 C 
ENDBRANCH  10  11
ENDBRANCH   9  10
BRANCH   9  14
HETATM   14  N1  UNL     1       9.859   9.952   2.444  1.00  0.00    -0.347 N 
HETATM   15  C6  UNL     1       9.140   9.023   3.157  1.00  0.00     0.222 C 
HETATM   16  O1  UNL     1       8.967   7.850   2.670  1.00  0.00    -0.273 OA
ATOM     17  H1  UNL     1       9.962  10.862   2.893  1.00  0.00     0.163 HD
BRANCH  15  18
HETATM   18  C7  UNL     1       8.533   9.286   4.472  1.00  0.00     0.078 C 
HETATM   19  C8  UNL     1       7.019   9.217   4.504  1.00  0.00     0.014 C 
HETATM   20  C9  UNL     1       6.971  10.716   4.519  1.00  0.00     0.002 C 
HETATM   21  C10 UNL     1       8.448  10.735   4.866  1.00  0.00     0.014 C 
ENDBRANCH  15  18
ENDBRANCH   9  14
ENDBRANCH   1   9
BRANCH   8  22
HETATM   22  C16 UNL     1      15.007   8.559   0.526  1.00  0.00     0.147 C 
BRANCH  22  23
HETATM   23  N3  UNL     1      15.090   9.234  -0.742  1.00  0.00    -0.359 N 
HETATM   24  C17 UNL     1      16.295   9.508  -1.426  1.00  0.00     0.221 C 
HETATM   25  O3  UNL     1      17.405   9.173  -0.990  1.00  0.00    -0.273 OA
ATOM     26  H3  UNL     1      14.218   9.538  -1.176  1.00  0.00     0.162 HD
BRANCH  24  27
HETATM   27  C18 UNL     1      16.275  10.229  -2.737  1.00  0.00     0.070 C 
HETATM   28  C19 UNL     1      14.867  10.571  -3.130  1.00  0.00     0.019 C 
HETATM   29  C20 UNL     1      16.933   9.369  -3.754  1.00  0.00     0.019 C 
ENDBRANCH  24  27
ENDBRANCH  22  23
ENDBRANCH   8  22
TORSDOF 8
ENDMDL
