MODEL 1
REMARK VINA RESULT: -9.121092630      0.000      0.000
REMARK  17 active torsions:
REMARK  status: ('A' for Active; 'I' for Inactive)
REMARK    1  A    between atoms: C2_2  and  O1_3 
REMARK    2  A    between atoms: C2_2  and  C3_5 
REMARK    3  A    between atoms: C3_5  and  C4_6 
REMARK    4  A    between atoms: C4_6  and  C5_7 
REMARK    5  A    between atoms: C5_7  and  C6_8 
REMARK    6  A    between atoms: C6_8  and  O2_9 
REMARK    7  A    between atoms: C6_8  and  C7_11 
REMARK    8  A    between atoms: C7_11  and  C8_12 
REMARK    9  A    between atoms: C8_12  and  C9_13 
REMARK   10  A    between atoms: C9_13  and  C10_14 
REMARK   11  A    between atoms: C11_15  and  C12_16 
REMARK   12  A    between atoms: C12_16  and  C13_17 
REMARK   13  A    between atoms: C15_19  and  C17_21 
REMARK   14  A    between atoms: C17_21  and  O3_22 
REMARK   15  A    between atoms: O3_22  and  C18_23 
REMARK   16  A    between atoms: C20_26  and  O5_27 
REMARK   17  A    between atoms: C21_30  and  O7_31 
ROOT
HETATM    1  C13 UNL     1      17.651  35.922  60.340  1.00  0.00    -0.000 A 
HETATM    2  C14 UNL     1      19.050  36.286  59.972  1.00  0.00     0.017 A 
HETATM    3  C15 UNL     1      18.162  35.409  59.074  1.00  0.00    -0.018 A 
HETATM    4  C16 UNL     1      18.626  33.943  59.098  1.00  0.00     0.018 C 
ENDROOT
BRANCH   1   5
HETATM    5  C12 UNL     1      16.706  37.086  60.474  1.00  0.00     0.032 C 
BRANCH   5   6
HETATM    6  C11 UNL     1      15.973  37.052  61.756  1.00  0.00    -0.030 C 
HETATM    7  C10 UNL     1      14.818  37.614  62.028  1.00  0.00    -0.031 C 
BRANCH   7   8
HETATM    8  C9  UNL     1      14.010  38.399  61.102  1.00  0.00     0.027 C 
BRANCH   8   9
HETATM    9  C8  UNL     1      12.514  38.187  61.334  1.00  0.00     0.006 C 
BRANCH   9  10
HETATM   10  C7  UNL     1      12.315  36.808  61.911  1.00  0.00     0.032 C 
BRANCH  10  11
HETATM   11  C6  UNL     1      11.004  36.733  62.611  1.00  0.00     0.118 C 
BRANCH  11  12
HETATM   12  C5  UNL     1       9.894  37.147  61.705  1.00  0.00     0.032 C 
BRANCH  12  13
HETATM   13  C4  UNL     1       8.985  38.172  62.362  1.00  0.00     0.005 C 
BRANCH  13  14
HETATM   14  C3  UNL     1       9.093  39.496  61.679  1.00  0.00     0.031 C 
BRANCH  14  15
HETATM   15  C2  UNL     1       7.808  40.271  61.610  1.00  0.00     0.114 C 
HETATM   16  C1  UNL     1       6.896  40.037  62.770  1.00  0.00     0.039 C 
BRANCH  15  17
HETATM   17  O1  UNL     1       8.170  41.634  61.648  1.00  0.00    -0.396 OA
ATOM     18  H1  UNL     1       7.787  42.039  60.879  1.00  0.00     0.210 HD
ENDBRANCH  15  17
ENDBRANCH  14  15
ENDBRANCH  13  14
ENDBRANCH  12  13
ENDBRANCH  11  12
BRANCH  11  19
HETATM   19  O2  UNL     1      10.798  35.424  63.049  1.00  0.00    -0.396 OA
ATOM     20  H2  UNL     1      11.633  35.003  63.217  1.00  0.00     0.210 HD
ENDBRANCH  11  19
ENDBRANCH  10  11
ENDBRANCH   9  10
ENDBRANCH   8   9
ENDBRANCH   7   8
ENDBRANCH   5   6
ENDBRANCH   1   5
BRANCH   3  21
HETATM   21  C17 UNL     1      17.791  35.965  57.721  1.00  0.00     0.180 C 
BRANCH  21  22
HETATM   22  O3  UNL     1      16.482  35.672  57.456  1.00  0.00    -0.355 OA
BRANCH  22  23
HETATM   23  C18 UNL     1      16.297  34.974  56.255  1.00  0.00     0.314 C 
HETATM   24  O4  UNL     1      16.697  33.671  56.339  1.00  0.00    -0.351 OA
HETATM   25  C19 UNL     1      16.765  32.989  55.161  1.00  0.00     0.231 C 
HETATM   26  C20 UNL     1      17.310  33.824  54.018  1.00  0.00     0.283 C 
HETATM   27  O6  UNL     1      16.669  35.033  53.902  1.00  0.00    -0.325 OA
HETATM   28  C21 UNL     1      16.835  35.743  55.076  1.00  0.00     0.315 C 
BRANCH  26  29
HETATM   29  O5  UNL     1      18.692  33.956  54.240  1.00  0.00    -0.369 OA
ATOM     30  H5  UNL     1      19.106  33.955  53.386  1.00  0.00     0.212 HD
ENDBRANCH  26  29
BRANCH  28  31
HETATM   31  O7  UNL     1      16.048  36.911  54.916  1.00  0.00    -0.367 OA
ATOM     32  H7  UNL     1      15.597  36.851  54.082  1.00  0.00     0.212 HD
ENDBRANCH  28  31
ENDBRANCH  22  23
ENDBRANCH  21  22
ENDBRANCH   3  21
TORSDOF 17
ENDMDL
MODEL 2
REMARK VINA RESULT: -8.858530702      1.267      1.948
REMARK  17 active torsions:
REMARK  status: ('A' for Active; 'I' for Inactive)
REMARK    1  A    between atoms: C2_2  and  O1_3 
REMARK    2  A    between atoms: C2_2  and  C3_5 
REMARK    3  A    between atoms: C3_5  and  C4_6 
REMARK    4  A    between atoms: C4_6  and  C5_7 
REMARK    5  A    between atoms: C5_7  and  C6_8 
REMARK    6  A    between atoms: C6_8  and  O2_9 
REMARK    7  A    between atoms: C6_8  and  C7_11 
REMARK    8  A    between atoms: C7_11  and  C8_12 
REMARK    9  A    between atoms: C8_12  and  C9_13 
REMARK   10  A    between atoms: C9_13  and  C10_14 
REMARK   11  A    between atoms: C11_15  and  C12_16 
REMARK   12  A    between atoms: C12_16  and  C13_17 
REMARK   13  A    between atoms: C15_19  and  C17_21 
REMARK   14  A    between atoms: C17_21  and  O3_22 
REMARK   15  A    between atoms: O3_22  and  C18_23 
REMARK   16  A    between atoms: C20_26  and  O5_27 
REMARK   17  A    between atoms: C21_30  and  O7_31 
ROOT
HETATM    1  C13 UNL     1      17.833  36.524  60.429  1.00  0.00    -0.000 A 
HETATM    2  C14 UNL     1      17.928  37.065  59.042  1.00  0.00     0.017 A 
HETATM    3  C15 UNL     1      18.493  35.689  59.433  1.00  0.00    -0.018 A 
HETATM    4  C16 UNL     1      20.030  35.711  59.469  1.00  0.00     0.018 C 
ENDROOT
BRANCH   1   5
HETATM    5  C12 UNL     1      16.431  36.310  60.934  1.00  0.00     0.032 C 
BRANCH   5   6
HETATM    6  C11 UNL     1      16.081  37.270  62.001  1.00  0.00    -0.030 C 
HETATM    7  C10 UNL     1      15.182  38.226  61.949  1.00  0.00    -0.031 C 
BRANCH   7   8
HETATM    8  C9  UNL     1      14.334  38.540  60.805  1.00  0.00     0.027 C 
BRANCH   8   9
HETATM    9  C8  UNL     1      12.850  38.492  61.170  1.00  0.00     0.006 C 
BRANCH   9  10
HETATM   10  C7  UNL     1      12.507  37.079  61.572  1.00  0.00     0.032 C 
BRANCH  10  11
HETATM   11  C6  UNL     1      11.188  37.052  62.261  1.00  0.00     0.118 C 
BRANCH  11  12
HETATM   12  C5  UNL     1      10.248  38.032  61.646  1.00  0.00     0.032 C 
BRANCH  12  13
HETATM   13  C4  UNL     1       8.811  37.539  61.695  1.00  0.00     0.005 C 
BRANCH  13  14
HETATM   14  C3  UNL     1       7.858  38.635  61.343  1.00  0.00     0.031 C 
BRANCH  14  15
HETATM   15  C2  UNL     1       7.979  39.866  62.195  1.00  0.00     0.114 C 
HETATM   16  C1  UNL     1       8.128  41.131  61.415  1.00  0.00     0.039 C 
BRANCH  15  17
HETATM   17  O1  UNL     1       6.767  39.971  62.907  1.00  0.00    -0.396 OA
ATOM     18  H1  UNL     1       6.990  39.949  63.830  1.00  0.00     0.210 HD
ENDBRANCH  15  17
ENDBRANCH  14  15
ENDBRANCH  13  14
ENDBRANCH  12  13
ENDBRANCH  11  12
BRANCH  11  19
HETATM   19  O2  UNL     1      10.658  35.764  62.175  1.00  0.00    -0.396 OA
ATOM     20  H2  UNL     1      10.189  35.553  62.974  1.00  0.00     0.210 HD
ENDBRANCH  11  19
ENDBRANCH  10  11
ENDBRANCH   9  10
ENDBRANCH   8   9
ENDBRANCH   7   8
ENDBRANCH   5   6
ENDBRANCH   1   5
BRANCH   3  21
HETATM   21  C17 UNL     1      17.863  34.478  58.788  1.00  0.00     0.180 C 
BRANCH  21  22
HETATM   22  O3  UNL     1      18.650  34.058  57.753  1.00  0.00    -0.355 OA
BRANCH  22  23
HETATM   23  C18 UNL     1      18.127  34.369  56.490  1.00  0.00     0.314 C 
HETATM   24  O4  UNL     1      18.809  35.379  55.875  1.00  0.00    -0.351 OA
HETATM   25  C19 UNL     1      18.231  35.895  54.753  1.00  0.00     0.231 C 
HETATM   26  C20 UNL     1      16.723  36.024  54.864  1.00  0.00     0.283 C 
HETATM   27  O6  UNL     1      16.129  34.860  55.287  1.00  0.00    -0.325 OA
HETATM   28  C21 UNL     1      16.629  34.529  56.533  1.00  0.00     0.315 C 
BRANCH  26  29
HETATM   29  O5  UNL     1      16.474  37.109  55.721  1.00  0.00    -0.369 OA
ATOM     30  H5  UNL     1      15.633  36.946  56.130  1.00  0.00     0.212 HD
ENDBRANCH  26  29
BRANCH  28  31
HETATM   31  O7  UNL     1      16.060  33.267  56.836  1.00  0.00    -0.367 OA
ATOM     32  H7  UNL     1      15.820  32.847  56.018  1.00  0.00     0.212 HD
ENDBRANCH  28  31
ENDBRANCH  22  23
ENDBRANCH  21  22
ENDBRANCH   3  21
TORSDOF 17
ENDMDL
MODEL 3
REMARK VINA RESULT: -8.839718347      0.897      1.288
REMARK  17 active torsions:
REMARK  status: ('A' for Active; 'I' for Inactive)
REMARK    1  A    between atoms: C2_2  and  O1_3 
REMARK    2  A    between atoms: C2_2  and  C3_5 
REMARK    3  A    between atoms: C3_5  and  C4_6 
REMARK    4  A    between atoms: C4_6  and  C5_7 
REMARK    5  A    between atoms: C5_7  and  C6_8 
REMARK    6  A    between atoms: C6_8  and  O2_9 
REMARK    7  A    between atoms: C6_8  and  C7_11 
REMARK    8  A    between atoms: C7_11  and  C8_12 
REMARK    9  A    between atoms: C8_12  and  C9_13 
REMARK   10  A    between atoms: C9_13  and  C10_14 
REMARK   11  A    between atoms: C11_15  and  C12_16 
REMARK   12  A    between atoms: C12_16  and  C13_17 
REMARK   13  A    between atoms: C15_19  and  C17_21 
REMARK   14  A    between atoms: C17_21  and  O3_22 
REMARK   15  A    between atoms: O3_22  and  C18_23 
REMARK   16  A    between atoms: C20_26  and  O5_27 
REMARK   17  A    between atoms: C21_30  and  O7_31 
ROOT
HETATM    1  C13 UNL     1      17.592  35.940  60.320  1.00  0.00    -0.000 A 
HETATM    2  C14 UNL     1      19.026  36.313  60.147  1.00  0.00     0.017 A 
HETATM    3  C15 UNL     1      18.256  35.489  59.102  1.00  0.00    -0.018 A 
HETATM    4  C16 UNL     1      18.714  34.020  59.107  1.00  0.00     0.018 C 
ENDROOT
BRANCH   1   5
HETATM    5  C12 UNL     1      16.638  37.101  60.395  1.00  0.00     0.032 C 
BRANCH   5   6
HETATM    6  C11 UNL     1      15.937  37.150  61.695  1.00  0.00    -0.030 C 
HETATM    7  C10 UNL     1      14.798  37.747  61.963  1.00  0.00    -0.031 C 
BRANCH   7   8
HETATM    8  C9  UNL     1      13.981  38.496  61.015  1.00  0.00     0.027 C 
BRANCH   8   9
HETATM    9  C8  UNL     1      12.488  38.341  61.306  1.00  0.00     0.006 C 
BRANCH   9  10
HETATM   10  C7  UNL     1      12.228  36.906  61.690  1.00  0.00     0.032 C 
BRANCH  10  11
HETATM   11  C6  UNL     1      10.963  36.809  62.469  1.00  0.00     0.118 C 
BRANCH  11  12
HETATM   12  C5  UNL     1       9.795  37.215  61.636  1.00  0.00     0.032 C 
BRANCH  12  13
HETATM   13  C4  UNL     1       8.937  38.254  62.340  1.00  0.00     0.005 C 
BRANCH  13  14
HETATM   14  C3  UNL     1       9.064  39.588  61.679  1.00  0.00     0.031 C 
BRANCH  14  15
HETATM   15  C2  UNL     1       7.792  40.383  61.625  1.00  0.00     0.114 C 
HETATM   16  C1  UNL     1       6.863  40.121  62.765  1.00  0.00     0.039 C 
BRANCH  15  17
HETATM   17  O1  UNL     1       8.172  41.738  61.716  1.00  0.00    -0.396 OA
ATOM     18  H1  UNL     1       9.017  41.756  62.149  1.00  0.00     0.210 HD
ENDBRANCH  15  17
ENDBRANCH  14  15
ENDBRANCH  13  14
ENDBRANCH  12  13
ENDBRANCH  11  12
BRANCH  11  19
HETATM   19  O2  UNL     1      10.800  35.495  62.908  1.00  0.00    -0.396 OA
ATOM     20  H2  UNL     1      10.448  34.960  62.206  1.00  0.00     0.210 HD
ENDBRANCH  11  19
ENDBRANCH  10  11
ENDBRANCH   9  10
ENDBRANCH   8   9
ENDBRANCH   7   8
ENDBRANCH   5   6
ENDBRANCH   1   5
BRANCH   3  21
HETATM   21  C17 UNL     1      18.056  36.116  57.744  1.00  0.00     0.180 C 
BRANCH  21  22
HETATM   22  O3  UNL     1      16.983  35.532  57.131  1.00  0.00    -0.355 OA
BRANCH  22  23
HETATM   23  C18 UNL     1      17.310  34.371  56.417  1.00  0.00     0.314 C 
HETATM   24  O4  UNL     1      18.348  34.563  55.550  1.00  0.00    -0.351 OA
HETATM   25  C19 UNL     1      18.578  33.558  54.659  1.00  0.00     0.231 C 
HETATM   26  C20 UNL     1      17.303  32.943  54.111  1.00  0.00     0.283 C 
HETATM   27  O6  UNL     1      16.425  32.589  55.106  1.00  0.00    -0.325 OA
HETATM   28  C21 UNL     1      16.086  33.717  55.828  1.00  0.00     0.315 C 
BRANCH  26  29
HETATM   29  O5  UNL     1      16.763  33.876  53.209  1.00  0.00    -0.369 OA
ATOM     30  H5  UNL     1      15.819  33.830  53.304  1.00  0.00     0.212 HD
ENDBRANCH  26  29
BRANCH  28  31
HETATM   31  O7  UNL     1      15.282  33.245  56.895  1.00  0.00    -0.367 OA
ATOM     32  H7  UNL     1      14.629  33.907  57.088  1.00  0.00     0.212 HD
ENDBRANCH  28  31
ENDBRANCH  22  23
ENDBRANCH  21  22
ENDBRANCH   3  21
TORSDOF 17
ENDMDL
MODEL 4
REMARK VINA RESULT: -8.612126455      1.614      2.247
REMARK  17 active torsions:
REMARK  status: ('A' for Active; 'I' for Inactive)
REMARK    1  A    between atoms: C2_2  and  O1_3 
REMARK    2  A    between atoms: C2_2  and  C3_5 
REMARK    3  A    between atoms: C3_5  and  C4_6 
REMARK    4  A    between atoms: C4_6  and  C5_7 
REMARK    5  A    between atoms: C5_7  and  C6_8 
REMARK    6  A    between atoms: C6_8  and  O2_9 
REMARK    7  A    between atoms: C6_8  and  C7_11 
REMARK    8  A    between atoms: C7_11  and  C8_12 
REMARK    9  A    between atoms: C8_12  and  C9_13 
REMARK   10  A    between atoms: C9_13  and  C10_14 
REMARK   11  A    between atoms: C11_15  and  C12_16 
REMARK   12  A    between atoms: C12_16  and  C13_17 
REMARK   13  A    between atoms: C15_19  and  C17_21 
REMARK   14  A    between atoms: C17_21  and  O3_22 
REMARK   15  A    between atoms: O3_22  and  C18_23 
REMARK   16  A    between atoms: C20_26  and  O5_27 
REMARK   17  A    between atoms: C21_30  and  O7_31 
ROOT
HETATM    1  C13 UNL     1      17.689  35.878  60.310  1.00  0.00    -0.000 A 
HETATM    2  C14 UNL     1      18.983  36.158  59.623  1.00  0.00     0.017 A 
HETATM    3  C15 UNL     1      17.892  35.275  58.997  1.00  0.00    -0.018 A 
HETATM    4  C16 UNL     1      18.304  33.793  59.010  1.00  0.00     0.018 C 
ENDROOT
BRANCH   1   5
HETATM    5  C12 UNL     1      16.834  37.087  60.573  1.00  0.00     0.032 C 
BRANCH   5   6
HETATM    6  C11 UNL     1      16.108  36.976  61.855  1.00  0.00    -0.030 C 
HETATM    7  C10 UNL     1      14.961  37.532  62.172  1.00  0.00    -0.031 C 
BRANCH   7   8
HETATM    8  C9  UNL     1      14.158  38.388  61.306  1.00  0.00     0.027 C 
BRANCH   8   9
HETATM    9  C8  UNL     1      12.682  37.989  61.326  1.00  0.00     0.006 C 
BRANCH   9  10
HETATM   10  C7  UNL     1      12.463  37.041  62.479  1.00  0.00     0.032 C 
BRANCH  10  11
HETATM   11  C6  UNL     1      11.006  36.840  62.703  1.00  0.00     0.118 C 
BRANCH  11  12
HETATM   12  C5  UNL     1      10.208  37.499  61.629  1.00  0.00     0.032 C 
BRANCH  12  13
HETATM   13  C4  UNL     1       9.105  38.372  62.203  1.00  0.00     0.005 C 
BRANCH  13  14
HETATM   14  C3  UNL     1       9.076  39.706  61.531  1.00  0.00     0.031 C 
BRANCH  14  15
HETATM   15  C2  UNL     1       7.743  40.396  61.566  1.00  0.00     0.114 C 
HETATM   16  C1  UNL     1       6.904  40.036  62.749  1.00  0.00     0.039 C 
BRANCH  15  17
HETATM   17  O1  UNL     1       8.017  41.775  61.669  1.00  0.00    -0.396 OA
ATOM     18  H1  UNL     1       8.961  41.861  61.740  1.00  0.00     0.210 HD
ENDBRANCH  15  17
ENDBRANCH  14  15
ENDBRANCH  13  14
ENDBRANCH  12  13
ENDBRANCH  11  12
BRANCH  11  19
HETATM   19  O2  UNL     1      10.735  35.472  62.727  1.00  0.00    -0.396 OA
ATOM     20  H2  UNL     1      10.195  35.261  63.480  1.00  0.00     0.210 HD
ENDBRANCH  11  19
ENDBRANCH  10  11
ENDBRANCH   9  10
ENDBRANCH   8   9
ENDBRANCH   7   8
ENDBRANCH   5   6
ENDBRANCH   1   5
BRANCH   3  21
HETATM   21  C17 UNL     1      17.249  35.773  57.725  1.00  0.00     0.180 C 
BRANCH  21  22
HETATM   22  O3  UNL     1      17.905  35.241  56.651  1.00  0.00    -0.355 OA
BRANCH  22  23
HETATM   23  C18 UNL     1      18.396  36.207  55.761  1.00  0.00     0.314 C 
HETATM   24  O4  UNL     1      19.676  36.583  56.050  1.00  0.00    -0.351 OA
HETATM   25  C19 UNL     1      20.145  37.674  55.381  1.00  0.00     0.231 C 
HETATM   26  C20 UNL     1      19.105  38.768  55.221  1.00  0.00     0.283 C 
HETATM   27  O6  UNL     1      17.922  38.293  54.712  1.00  0.00    -0.325 OA
HETATM   28  C21 UNL     1      17.415  37.336  55.571  1.00  0.00     0.315 C 
BRANCH  26  29
HETATM   29  O5  UNL     1      18.957  39.369  56.483  1.00  0.00    -0.369 OA
ATOM     30  H5  UNL     1      19.724  39.913  56.617  1.00  0.00     0.212 HD
ENDBRANCH  26  29
BRANCH  28  31
HETATM   31  O7  UNL     1      16.271  36.819  54.915  1.00  0.00    -0.367 OA
ATOM     32  H7  UNL     1      16.188  37.257  54.076  1.00  0.00     0.212 HD
ENDBRANCH  28  31
ENDBRANCH  22  23
ENDBRANCH  21  22
ENDBRANCH   3  21
TORSDOF 17
ENDMDL
MODEL 5
REMARK VINA RESULT: -8.567215121      1.868      2.655
REMARK  17 active torsions:
REMARK  status: ('A' for Active; 'I' for Inactive)
REMARK    1  A    between atoms: C2_2  and  O1_3 
REMARK    2  A    between atoms: C2_2  and  C3_5 
REMARK    3  A    between atoms: C3_5  and  C4_6 
REMARK    4  A    between atoms: C4_6  and  C5_7 
REMARK    5  A    between atoms: C5_7  and  C6_8 
REMARK    6  A    between atoms: C6_8  and  O2_9 
REMARK    7  A    between atoms: C6_8  and  C7_11 
REMARK    8  A    between atoms: C7_11  and  C8_12 
REMARK    9  A    between atoms: C8_12  and  C9_13 
REMARK   10  A    between atoms: C9_13  and  C10_14 
REMARK   11  A    between atoms: C11_15  and  C12_16 
REMARK   12  A    between atoms: C12_16  and  C13_17 
REMARK   13  A    between atoms: C15_19  and  C17_21 
REMARK   14  A    between atoms: C17_21  and  O3_22 
REMARK   15  A    between atoms: O3_22  and  C18_23 
REMARK   16  A    between atoms: C20_26  and  O5_27 
REMARK   17  A    between atoms: C21_30  and  O7_31 
ROOT
HETATM    1  C13 UNL     1      17.966  38.028  58.664  1.00  0.00    -0.000 A 
HETATM    2  C14 UNL     1      17.233  39.273  58.288  1.00  0.00     0.017 A 
HETATM    3  C15 UNL     1      18.176  38.544  57.316  1.00  0.00    -0.018 A 
HETATM    4  C16 UNL     1      19.479  39.335  57.110  1.00  0.00     0.018 C 
ENDROOT
BRANCH   1   5
HETATM    5  C12 UNL     1      17.090  36.853  59.005  1.00  0.00     0.032 C 
BRANCH   5   6
HETATM    6  C11 UNL     1      17.302  36.396  60.394  1.00  0.00    -0.030 C 
HETATM    7  C10 UNL     1      16.609  36.733  61.457  1.00  0.00    -0.031 C 
BRANCH   7   8
HETATM    8  C9  UNL     1      15.470  37.643  61.483  1.00  0.00     0.027 C 
BRANCH   8   9
HETATM    9  C8  UNL     1      14.159  36.918  61.180  1.00  0.00     0.006 C 
BRANCH   9  10
HETATM   10  C7  UNL     1      13.116  37.394  62.159  1.00  0.00     0.032 C 
BRANCH  10  11
HETATM   11  C6  UNL     1      11.879  37.791  61.433  1.00  0.00     0.118 C 
BRANCH  11  12
HETATM   12  C5  UNL     1      10.666  37.476  62.241  1.00  0.00     0.032 C 
BRANCH  12  13
HETATM   13  C4  UNL     1       9.388  37.831  61.499  1.00  0.00     0.005 C 
BRANCH  13  14
HETATM   14  C3  UNL     1       8.613  38.873  62.238  1.00  0.00     0.031 C 
BRANCH  14  15
HETATM   15  C2  UNL     1       8.292  40.101  61.435  1.00  0.00     0.114 C 
HETATM   16  C1  UNL     1       7.451  41.098  62.162  1.00  0.00     0.039 C 
BRANCH  15  17
HETATM   17  O1  UNL     1       9.526  40.729  61.170  1.00  0.00    -0.396 OA
ATOM     18  H1  UNL     1      10.193  40.055  61.226  1.00  0.00     0.210 HD
ENDBRANCH  15  17
ENDBRANCH  14  15
ENDBRANCH  13  14
ENDBRANCH  12  13
ENDBRANCH  11  12
BRANCH  11  19
HETATM   19  O2  UNL     1      11.930  39.159  61.164  1.00  0.00    -0.396 OA
ATOM     20  H2  UNL     1      12.807  39.404  60.893  1.00  0.00     0.210 HD
ENDBRANCH  11  19
ENDBRANCH  10  11
ENDBRANCH   9  10
ENDBRANCH   8   9
ENDBRANCH   7   8
ENDBRANCH   5   6
ENDBRANCH   1   5
BRANCH   3  21
HETATM   21  C17 UNL     1      17.557  37.950  56.074  1.00  0.00     0.180 C 
BRANCH  21  22
HETATM   22  O3  UNL     1      18.387  36.985  55.574  1.00  0.00    -0.355 OA
BRANCH  22  23
HETATM   23  C18 UNL     1      17.748  35.756  55.358  1.00  0.00     0.314 C 
HETATM   24  O4  UNL     1      16.467  35.741  55.831  1.00  0.00    -0.351 OA
HETATM   25  C19 UNL     1      15.858  34.522  55.867  1.00  0.00     0.231 C 
HETATM   26  C20 UNL     1      16.786  33.403  56.303  1.00  0.00     0.283 C 
HETATM   27  O6  UNL     1      17.961  33.394  55.594  1.00  0.00    -0.325 OA
HETATM   28  C21 UNL     1      18.612  34.598  55.788  1.00  0.00     0.315 C 
BRANCH  26  29
HETATM   29  O5  UNL     1      16.981  33.559  57.686  1.00  0.00    -0.369 OA
ATOM     30  H5  UNL     1      17.898  33.376  57.854  1.00  0.00     0.212 HD
ENDBRANCH  26  29
BRANCH  28  31
HETATM   31  O7  UNL     1      19.741  34.550  54.934  1.00  0.00    -0.367 OA
ATOM     32  H7  UNL     1      20.146  35.410  54.931  1.00  0.00     0.212 HD
ENDBRANCH  28  31
ENDBRANCH  22  23
ENDBRANCH  21  22
ENDBRANCH   3  21
TORSDOF 17
ENDMDL
