MODEL 1
REMARK VINA RESULT: -9.979990627      0.000      0.000
REMARK  12 active torsions:
REMARK  status: ('A' for Active; 'I' for Inactive)
REMARK    1  A    between atoms: N1_1  and  C1_4 
REMARK    2  A    between atoms: C3_8  and  S1_9 
REMARK    3  A    between atoms: S1_9  and  C4_10 
REMARK    4  A    between atoms: C4_10  and  C5_11 
REMARK    5  A    between atoms: C5_11  and  C8_27 
REMARK    6  A    between atoms: N3_12  and  N4_14 
REMARK    7  A    between atoms: N4_14  and  C6_16 
REMARK    8  A    between atoms: C6_16  and  C7_17 
REMARK    9  A    between atoms: C7_17  and  N5_18 
REMARK   10  A    between atoms: N6_22  and  N7_24 
REMARK       I    between atoms: C8_27  and  N8_29 
REMARK   11  A    between atoms: N8_29  and  C9_31 
REMARK   12  A    between atoms: C15_40  and  C16_41 
ROOT
HETATM    1  C5  UNL     1      78.305 -10.625   6.771  1.00  0.00     0.103 C 
HETATM    2  N3  UNL     1      79.540 -10.326   6.574  1.00  0.00    -0.297 N 
ATOM      3  H3  UNL     1      80.090  -9.913   7.327  1.00  0.00     0.187 HD
ENDROOT
BRANCH   1   4
HETATM    4  C4  UNL     1      77.527 -11.222   5.665  1.00  0.00     0.145 C 
BRANCH   4   5
HETATM    5  S1  UNL     1      77.273 -13.004   5.913  1.00  0.00    -0.102 SA
BRANCH   5   6
HETATM    6  C3  UNL     1      76.166 -13.620   4.667  1.00  0.00     0.120 A 
HETATM    7  C2  UNL     1      74.800 -13.560   4.905  1.00  0.00     0.194 A 
HETATM    8  N2  UNL     1      74.083 -13.105   5.947  1.00  0.00    -0.169 N 
HETATM    9  N13 UNL     1      73.939 -14.018   3.983  1.00  0.00    -0.160 N 
HETATM   10  C1  UNL     1      72.781 -13.282   5.667  1.00  0.00     0.693 A 
ATOM     11  H2  UNL     1      74.461 -12.696   6.801  1.00  0.00     0.186 HD
HETATM   12  N14 UNL     1      72.716 -13.844   4.458  1.00  0.00    -0.109 N 
ATOM     13  H14 UNL     1      71.855 -14.099   3.973  1.00  0.00     0.208 HD
HETATM   14  N12 UNL     1      74.435 -14.519   2.857  1.00  0.00    -0.261 N 
HETATM   15  C15 UNL     1      75.749 -14.600   2.578  1.00  0.00     0.134 A 
ATOM     16  H12 UNL     1      73.778 -14.865   2.158  1.00  0.00     0.191 HD
HETATM   17  N10 UNL     1      76.606 -14.141   3.504  1.00  0.00    -0.332 N 
ATOM     18  H10 UNL     1      77.609 -14.186   3.324  1.00  0.00     0.168 HD
BRANCH  10  19
HETATM   19  N1  UNL     1      71.782 -12.957   6.450  1.00  0.00    -0.233 N 
ATOM     20  H12 UNL     1      70.923 -12.471   6.193  1.00  0.00     0.174 HD
ATOM     21  H11 UNL     1      71.726 -13.151   7.450  1.00  0.00     0.174 HD
ENDBRANCH  10  19
BRANCH  15  22
HETATM   22  C16 UNL     1      76.215 -15.168   1.314  1.00  0.00     0.025 A 
HETATM   23  C17 UNL     1      75.401 -15.916   0.491  1.00  0.00     0.018 A 
HETATM   24  C18 UNL     1      75.852 -16.447  -0.702  1.00  0.00     0.018 A 
HETATM   25  C19 UNL     1      77.160 -16.209  -1.062  1.00  0.00     0.087 A 
HETATM   26  N11 UNL     1      77.980 -15.480  -0.275  1.00  0.00    -0.374 N 
HETATM   27  C20 UNL     1      77.508 -14.969   0.894  1.00  0.00     0.102 A 
ATOM     28  H11 UNL     1      78.947 -15.314  -0.554  1.00  0.00     0.164 HD
ENDBRANCH  15  22
ENDBRANCH   5   6
ENDBRANCH   4   5
ENDBRANCH   1   4
BRANCH   1  29
HETATM   29  C8  UNL     1      77.713 -10.360   8.098  1.00  0.00     0.270 C 
HETATM   30  O1  UNL     1      77.945 -11.217   8.961  1.00  0.00    -0.266 OA
HETATM   31  N8  UNL     1      76.952  -9.188   8.274  1.00  0.00    -0.320 N 
ATOM     32  H8  UNL     1      76.853  -8.580   7.460  1.00  0.00     0.169 HD
BRANCH  31  33
HETATM   33  C9  UNL     1      76.315  -8.770   9.452  1.00  0.00     0.059 A 
HETATM   34  C10 UNL     1      76.913  -8.146  10.521  1.00  0.00     0.031 A 
HETATM   35  C11 UNL     1      76.212  -7.763  11.652  1.00  0.00     0.002 A 
HETATM   36  C12 UNL     1      74.870  -7.999  11.742  1.00  0.00     0.002 A 
HETATM   37  C13 UNL     1      74.260  -8.623  10.681  1.00  0.00     0.029 A 
HETATM   38  C14 UNL     1      74.945  -9.001   9.566  1.00  0.00     0.073 A 
HETATM   39  N9  UNL     1      74.236  -9.644   8.505  1.00  0.00    -0.100 NA
ENDBRANCH  31  33
ENDBRANCH   1  29
BRANCH   2  40
HETATM   40  N4  UNL     1      80.121 -10.561   5.345  1.00  0.00    -0.286 N 
ATOM     41  H4  UNL     1      79.538 -10.447   4.516  1.00  0.00     0.188 HD
BRANCH  40  42
HETATM   42  C6  UNL     1      81.468 -10.949   5.155  1.00  0.00     0.136 C 
HETATM   43  N6  UNL     1      82.040 -11.663   6.045  1.00  0.00    -0.293 N 
ATOM     44  H6  UNL     1      81.486 -11.921   6.861  1.00  0.00     0.187 HD
BRANCH  42  45
HETATM   45  C7  UNL     1      82.185 -10.520   3.933  1.00  0.00     0.308 C 
BRANCH  45  46
HETATM   46  N5  UNL     1      81.745 -11.299   2.781  1.00  0.00    -0.073 N 
ATOM     47  H53 UNL     1      81.241 -12.140   3.063  1.00  0.00     0.274 HD
ATOM     48  H52 UNL     1      80.992 -10.834   2.274  1.00  0.00     0.274 HD
ATOM     49  H51 UNL     1      82.534 -11.516   2.173  1.00  0.00     0.274 HD
ENDBRANCH  45  46
ENDBRANCH  42  45
BRANCH  43  50
HETATM   50  N7  UNL     1      83.346 -12.118   5.998  1.00  0.00    -0.344 N 
ATOM     51  H72 UNL     1      84.054 -11.485   6.373  1.00  0.00     0.176 HD
ATOM     52  H71 UNL     1      83.650 -13.017   5.628  1.00  0.00     0.176 HD
ENDBRANCH  43  50
ENDBRANCH  40  42
ENDBRANCH   2  40
TORSDOF 12
ENDMDL
MODEL 2
REMARK VINA RESULT: -9.757237979      2.457      8.469
REMARK  12 active torsions:
REMARK  status: ('A' for Active; 'I' for Inactive)
REMARK    1  A    between atoms: N1_1  and  C1_4 
REMARK    2  A    between atoms: C3_8  and  S1_9 
REMARK    3  A    between atoms: S1_9  and  C4_10 
REMARK    4  A    between atoms: C4_10  and  C5_11 
REMARK    5  A    between atoms: C5_11  and  C8_27 
REMARK    6  A    between atoms: N3_12  and  N4_14 
REMARK    7  A    between atoms: N4_14  and  C6_16 
REMARK    8  A    between atoms: C6_16  and  C7_17 
REMARK    9  A    between atoms: C7_17  and  N5_18 
REMARK   10  A    between atoms: N6_22  and  N7_24 
REMARK       I    between atoms: C8_27  and  N8_29 
REMARK   11  A    between atoms: N8_29  and  C9_31 
REMARK   12  A    between atoms: C15_40  and  C16_41 
ROOT
HETATM    1  C5  UNL     1      76.915 -12.859   5.526  1.00  0.00     0.103 C 
HETATM    2  N3  UNL     1      77.554 -13.010   6.630  1.00  0.00    -0.297 N 
ATOM      3  H3  UNL     1      78.228 -13.769   6.729  1.00  0.00     0.187 HD
ENDROOT
BRANCH   1   4
HETATM    4  C4  UNL     1      75.943 -11.752   5.406  1.00  0.00     0.145 C 
BRANCH   4   5
HETATM    5  S1  UNL     1      74.231 -12.353   5.511  1.00  0.00    -0.102 SA
BRANCH   5   6
HETATM    6  C3  UNL     1      73.261 -11.204   6.459  1.00  0.00     0.120 A 
HETATM    7  C2  UNL     1      72.121 -10.663   5.881  1.00  0.00     0.194 A 
HETATM    8  N2  UNL     1      71.552 -10.832   4.676  1.00  0.00    -0.169 N 
HETATM    9  N13 UNL     1      71.369  -9.793   6.573  1.00  0.00    -0.160 N 
HETATM   10  C1  UNL     1      70.449 -10.066   4.624  1.00  0.00     0.693 A 
ATOM     11  H2  UNL     1      71.896 -11.436   3.931  1.00  0.00     0.186 HD
HETATM   12  N14 UNL     1      70.356  -9.438   5.798  1.00  0.00    -0.109 N 
ATOM     13  H14 UNL     1      69.618  -8.784   6.058  1.00  0.00     0.208 HD
HETATM   14  N12 UNL     1      71.750  -9.477   7.806  1.00  0.00    -0.261 N 
HETATM   15  C15 UNL     1      72.845  -9.971   8.411  1.00  0.00     0.134 A 
ATOM     16  H12 UNL     1      71.175  -8.816   8.328  1.00  0.00     0.191 HD
HETATM   17  N10 UNL     1      73.595 -10.842   7.715  1.00  0.00    -0.332 N 
ATOM     18  H10 UNL     1      74.431 -11.237   8.144  1.00  0.00     0.168 HD
BRANCH  10  19
HETATM   19  N1  UNL     1      69.635  -9.972   3.602  1.00  0.00    -0.233 N 
ATOM     20  H12 UNL     1      69.880  -9.953   2.612  1.00  0.00     0.174 HD
ATOM     21  H11 UNL     1      68.619  -9.903   3.658  1.00  0.00     0.174 HD
ENDBRANCH  10  19
BRANCH  15  22
HETATM   22  C16 UNL     1      73.197  -9.572   9.772  1.00  0.00     0.025 A 
HETATM   23  C17 UNL     1      72.327  -9.707  10.834  1.00  0.00     0.018 A 
HETATM   24  C18 UNL     1      72.670  -9.326  12.116  1.00  0.00     0.018 A 
HETATM   25  C19 UNL     1      73.926  -8.797  12.320  1.00  0.00     0.087 A 
HETATM   26  N11 UNL     1      74.798  -8.652  11.298  1.00  0.00    -0.374 N 
HETATM   27  C20 UNL     1      74.433  -9.037  10.045  1.00  0.00     0.102 A 
ATOM     28  H11 UNL     1      75.724  -8.258  11.464  1.00  0.00     0.164 HD
ENDBRANCH  15  22
ENDBRANCH   5   6
ENDBRANCH   4   5
ENDBRANCH   1   4
BRANCH   1  29
HETATM   29  C8  UNL     1      77.178 -13.800   4.417  1.00  0.00     0.270 C 
HETATM   30  O1  UNL     1      77.800 -14.824   4.731  1.00  0.00    -0.266 OA
HETATM   31  N8  UNL     1      76.716 -13.469   3.129  1.00  0.00    -0.320 N 
ATOM     32  H8  UNL     1      76.218 -12.584   3.036  1.00  0.00     0.169 HD
BRANCH  31  33
HETATM   33  C9  UNL     1      76.870 -14.231   1.961  1.00  0.00     0.059 A 
HETATM   34  C10 UNL     1      77.956 -14.217   1.120  1.00  0.00     0.031 A 
HETATM   35  C11 UNL     1      78.032 -15.003  -0.019  1.00  0.00     0.002 A 
HETATM   36  C12 UNL     1      77.001 -15.837  -0.347  1.00  0.00     0.002 A 
HETATM   37  C13 UNL     1      75.909 -15.860   0.486  1.00  0.00     0.029 A 
HETATM   38  C14 UNL     1      75.830 -15.089   1.606  1.00  0.00     0.073 A 
HETATM   39  N9  UNL     1      74.659 -15.172   2.421  1.00  0.00    -0.100 NA
ENDBRANCH  31  33
ENDBRANCH   1  29
BRANCH   2  40
HETATM   40  N4  UNL     1      77.329 -12.148   7.683  1.00  0.00    -0.286 N 
ATOM     41  H4  UNL     1      76.517 -12.323   8.275  1.00  0.00     0.188 HD
BRANCH  40  42
HETATM   42  C6  UNL     1      78.146 -11.037   8.000  1.00  0.00     0.136 C 
HETATM   43  N6  UNL     1      77.766 -10.225   8.909  1.00  0.00    -0.293 N 
ATOM     44  H6  UNL     1      76.877 -10.424   9.367  1.00  0.00     0.187 HD
BRANCH  42  45
HETATM   45  C7  UNL     1      79.421 -10.839   7.275  1.00  0.00     0.308 C 
BRANCH  45  46
HETATM   46  N5  UNL     1      79.222  -9.983   6.111  1.00  0.00    -0.073 N 
ATOM     47  H53 UNL     1      78.416 -10.276   5.559  1.00  0.00     0.274 HD
ATOM     48  H52 UNL     1      78.895  -9.053   6.375  1.00  0.00     0.274 HD
ATOM     49  H51 UNL     1      80.071  -9.940   5.548  1.00  0.00     0.274 HD
ENDBRANCH  45  46
ENDBRANCH  42  45
BRANCH  43  50
HETATM   50  N7  UNL     1      78.455  -9.100   9.327  1.00  0.00    -0.344 N 
ATOM     51  H72 UNL     1      78.646  -9.038  10.328  1.00  0.00     0.176 HD
ATOM     52  H71 UNL     1      78.780  -8.344   8.726  1.00  0.00     0.176 HD
ENDBRANCH  43  50
ENDBRANCH  40  42
ENDBRANCH   2  40
TORSDOF 12
ENDMDL
MODEL 3
REMARK VINA RESULT: -9.356850603      2.539      6.177
REMARK  12 active torsions:
REMARK  status: ('A' for Active; 'I' for Inactive)
REMARK    1  A    between atoms: N1_1  and  C1_4 
REMARK    2  A    between atoms: C3_8  and  S1_9 
REMARK    3  A    between atoms: S1_9  and  C4_10 
REMARK    4  A    between atoms: C4_10  and  C5_11 
REMARK    5  A    between atoms: C5_11  and  C8_27 
REMARK    6  A    between atoms: N3_12  and  N4_14 
REMARK    7  A    between atoms: N4_14  and  C6_16 
REMARK    8  A    between atoms: C6_16  and  C7_17 
REMARK    9  A    between atoms: C7_17  and  N5_18 
REMARK   10  A    between atoms: N6_22  and  N7_24 
REMARK       I    between atoms: C8_27  and  N8_29 
REMARK   11  A    between atoms: N8_29  and  C9_31 
REMARK   12  A    between atoms: C15_40  and  C16_41 
ROOT
HETATM    1  C5  UNL     1      75.989 -11.996   6.416  1.00  0.00     0.103 C 
HETATM    2  N3  UNL     1      75.986 -11.129   7.364  1.00  0.00    -0.297 N 
ATOM      3  H3  UNL     1      75.149 -10.577   7.546  1.00  0.00     0.187 HD
ENDROOT
BRANCH   1   4
HETATM    4  C4  UNL     1      77.215 -12.786   6.171  1.00  0.00     0.145 C 
BRANCH   4   5
HETATM    5  S1  UNL     1      78.289 -11.988   4.942  1.00  0.00    -0.102 SA
BRANCH   5   6
HETATM    6  C3  UNL     1      77.914 -12.628   3.327  1.00  0.00     0.120 A 
HETATM    7  C2  UNL     1      78.903 -12.593   2.354  1.00  0.00     0.194 A 
HETATM    8  N2  UNL     1      80.170 -12.148   2.368  1.00  0.00    -0.169 N 
HETATM    9  N13 UNL     1      78.649 -13.069   1.125  1.00  0.00    -0.160 N 
HETATM   10  C1  UNL     1      80.698 -12.350   1.150  1.00  0.00     0.693 A 
ATOM     11  H2  UNL     1      80.649 -11.730   3.166  1.00  0.00     0.186 HD
HETATM   12  N14 UNL     1      79.748 -12.916   0.403  1.00  0.00    -0.109 N 
ATOM     13  H14 UNL     1      79.852 -13.188  -0.574  1.00  0.00     0.208 HD
HETATM   14  N12 UNL     1      77.441 -13.566   0.882  1.00  0.00    -0.261 N 
HETATM   15  C15 UNL     1      76.449 -13.623   1.789  1.00  0.00     0.134 A 
ATOM     16  H12 UNL     1      77.253 -13.928  -0.052  1.00  0.00     0.191 HD
HETATM   17  N10 UNL     1      76.707 -13.146   3.018  1.00  0.00    -0.332 N 
ATOM     18  H10 UNL     1      75.978 -13.174   3.730  1.00  0.00     0.168 HD
BRANCH  10  19
HETATM   19  N1  UNL     1      81.919 -12.040   0.788  1.00  0.00    -0.233 N 
ATOM     20  H12 UNL     1      82.604 -11.497   1.313  1.00  0.00     0.174 HD
ATOM     21  H11 UNL     1      82.362 -12.307  -0.091  1.00  0.00     0.174 HD
ENDBRANCH  10  19
BRANCH  15  22
HETATM   22  C16 UNL     1      75.145 -14.186   1.443  1.00  0.00     0.025 A 
HETATM   23  C17 UNL     1      74.143 -13.436   0.864  1.00  0.00     0.018 A 
HETATM   24  C18 UNL     1      72.915 -13.977   0.540  1.00  0.00     0.018 A 
HETATM   25  C19 UNL     1      72.703 -15.311   0.813  1.00  0.00     0.087 A 
HETATM   26  N11 UNL     1      73.667 -16.069   1.381  1.00  0.00    -0.374 N 
HETATM   27  C20 UNL     1      74.868 -15.509   1.688  1.00  0.00     0.102 A 
ATOM     28  H11 UNL     1      73.495 -17.055   1.578  1.00  0.00     0.164 HD
ENDBRANCH  15  22
ENDBRANCH   5   6
ENDBRANCH   4   5
ENDBRANCH   1   4
BRANCH   1  29
HETATM   29  C8  UNL     1      74.766 -12.168   5.606  1.00  0.00     0.270 C 
HETATM   30  O1  UNL     1      74.716 -11.487   4.574  1.00  0.00    -0.266 OA
HETATM   31  N8  UNL     1      73.781 -13.068   6.057  1.00  0.00    -0.320 N 
ATOM     32  H8  UNL     1      73.974 -13.556   6.932  1.00  0.00     0.169 HD
BRANCH  31  33
HETATM   33  C9  UNL     1      72.562 -13.362   5.428  1.00  0.00     0.059 A 
HETATM   34  C10 UNL     1      72.380 -14.218   4.368  1.00  0.00     0.031 A 
HETATM   35  C11 UNL     1      71.139 -14.455   3.802  1.00  0.00     0.002 A 
HETATM   36  C12 UNL     1      70.028 -13.830   4.293  1.00  0.00     0.002 A 
HETATM   37  C13 UNL     1      70.196 -12.971   5.352  1.00  0.00     0.029 A 
HETATM   38  C14 UNL     1      71.414 -12.735   5.912  1.00  0.00     0.073 A 
HETATM   39  N9  UNL     1      71.504 -11.827   7.013  1.00  0.00    -0.100 NA
ENDBRANCH  31  33
ENDBRANCH   1  29
BRANCH   2  40
HETATM   40  N4  UNL     1      77.114 -10.945   8.137  1.00  0.00    -0.286 N 
ATOM     41  H4  UNL     1      77.793 -11.706   8.174  1.00  0.00     0.188 HD
BRANCH  40  42
HETATM   42  C6  UNL     1      77.395  -9.776   8.882  1.00  0.00     0.136 C 
HETATM   43  N6  UNL     1      78.605  -9.514   9.194  1.00  0.00    -0.293 N 
ATOM     44  H6  UNL     1      79.318 -10.175   8.885  1.00  0.00     0.187 HD
BRANCH  42  45
HETATM   45  C7  UNL     1      76.286  -8.882   9.283  1.00  0.00     0.308 C 
BRANCH  45  46
HETATM   46  N5  UNL     1      76.085  -7.835   8.287  1.00  0.00    -0.073 N 
ATOM     47  H53 UNL     1      76.856  -7.795   7.620  1.00  0.00     0.274 HD
ATOM     48  H52 UNL     1      75.334  -8.068   7.637  1.00  0.00     0.274 HD
ATOM     49  H51 UNL     1      75.929  -6.935   8.740  1.00  0.00     0.274 HD
ENDBRANCH  45  46
ENDBRANCH  42  45
BRANCH  43  50
HETATM   50  N7  UNL     1      79.033  -8.414   9.915  1.00  0.00    -0.344 N 
ATOM     51  H72 UNL     1      78.707  -7.506   9.583  1.00  0.00     0.176 HD
ATOM     52  H71 UNL     1      79.637  -8.438  10.737  1.00  0.00     0.176 HD
ENDBRANCH  43  50
ENDBRANCH  40  42
ENDBRANCH   2  40
TORSDOF 12
ENDMDL
MODEL 4
REMARK VINA RESULT: -9.324339653      2.933      8.991
REMARK  12 active torsions:
REMARK  status: ('A' for Active; 'I' for Inactive)
REMARK    1  A    between atoms: N1_1  and  C1_4 
REMARK    2  A    between atoms: C3_8  and  S1_9 
REMARK    3  A    between atoms: S1_9  and  C4_10 
REMARK    4  A    between atoms: C4_10  and  C5_11 
REMARK    5  A    between atoms: C5_11  and  C8_27 
REMARK    6  A    between atoms: N3_12  and  N4_14 
REMARK    7  A    between atoms: N4_14  and  C6_16 
REMARK    8  A    between atoms: C6_16  and  C7_17 
REMARK    9  A    between atoms: C7_17  and  N5_18 
REMARK   10  A    between atoms: N6_22  and  N7_24 
REMARK       I    between atoms: C8_27  and  N8_29 
REMARK   11  A    between atoms: N8_29  and  C9_31 
REMARK   12  A    between atoms: C15_40  and  C16_41 
ROOT
HETATM    1  C5  UNL     1      76.454 -13.245   2.100  1.00  0.00     0.103 C 
HETATM    2  N3  UNL     1      77.478 -13.717   1.482  1.00  0.00    -0.297 N 
ATOM      3  H3  UNL     1      77.367 -14.499   0.837  1.00  0.00     0.187 HD
ENDROOT
BRANCH   1   4
HETATM    4  C4  UNL     1      76.638 -12.111   3.030  1.00  0.00     0.145 C 
BRANCH   4   5
HETATM    5  S1  UNL     1      76.362 -12.612   4.755  1.00  0.00    -0.102 SA
BRANCH   5   6
HETATM    6  C3  UNL     1      77.177 -11.464   5.839  1.00  0.00     0.120 A 
HETATM    7  C2  UNL     1      78.516 -11.178   5.617  1.00  0.00     0.194 A 
HETATM    8  N2  UNL     1      79.392 -11.611   4.695  1.00  0.00    -0.169 N 
HETATM    9  N13 UNL     1      79.158 -10.315   6.419  1.00  0.00    -0.160 N 
HETATM   10  C1  UNL     1      80.574 -11.016   4.928  1.00  0.00     0.693 A 
ATOM     11  H2  UNL     1      79.195 -12.276   3.948  1.00  0.00     0.186 HD
HETATM   12  N14 UNL     1      80.407 -10.225   5.991  1.00  0.00    -0.109 N 
ATOM     13  H14 UNL     1      81.132  -9.642   6.408  1.00  0.00     0.208 HD
HETATM   14  N12 UNL     1      78.476  -9.756   7.414  1.00  0.00    -0.261 N 
HETATM   15  C15 UNL     1      77.178  -9.999   7.672  1.00  0.00     0.134 A 
ATOM     16  H12 UNL     1      78.968  -9.100   8.020  1.00  0.00     0.191 HD
HETATM   17  N10 UNL     1      76.540 -10.863   6.866  1.00  0.00    -0.332 N 
ATOM     18  H10 UNL     1      75.555 -11.070   7.033  1.00  0.00     0.168 HD
BRANCH  10  19
HETATM   19  N1  UNL     1      81.668 -11.195   4.231  1.00  0.00    -0.233 N 
ATOM     20  H12 UNL     1      82.242 -12.037   4.180  1.00  0.00     0.174 HD
ATOM     21  H11 UNL     1      82.106 -10.500   3.627  1.00  0.00     0.174 HD
ENDBRANCH  10  19
BRANCH  15  22
HETATM   22  C16 UNL     1      76.498  -9.344   8.788  1.00  0.00     0.025 A 
HETATM   23  C17 UNL     1      77.170  -8.591   9.727  1.00  0.00     0.018 A 
HETATM   24  C18 UNL     1      76.517  -7.976  10.778  1.00  0.00     0.018 A 
HETATM   25  C19 UNL     1      75.152  -8.131  10.871  1.00  0.00     0.087 A 
HETATM   26  N11 UNL     1      74.468  -8.864   9.964  1.00  0.00    -0.374 N 
HETATM   27  C20 UNL     1      75.138  -9.458   8.940  1.00  0.00     0.102 A 
ATOM     28  H11 UNL     1      73.457  -8.971  10.048  1.00  0.00     0.164 HD
ENDBRANCH  15  22
ENDBRANCH   5   6
ENDBRANCH   4   5
ENDBRANCH   1   4
BRANCH   1  29
HETATM   29  C8  UNL     1      75.132 -13.857   1.855  1.00  0.00     0.270 C 
HETATM   30  O1  UNL     1      74.970 -14.980   2.349  1.00  0.00    -0.266 OA
HETATM   31  N8  UNL     1      74.186 -13.135   1.102  1.00  0.00    -0.320 N 
ATOM     32  H8  UNL     1      74.474 -12.217   0.764  1.00  0.00     0.169 HD
BRANCH  31  33
HETATM   33  C9  UNL     1      72.887 -13.549   0.768  1.00  0.00     0.059 A 
HETATM   34  C10 UNL     1      71.758 -13.375   1.532  1.00  0.00     0.031 A 
HETATM   35  C11 UNL     1      70.507 -13.814   1.130  1.00  0.00     0.002 A 
HETATM   36  C12 UNL     1      70.355 -14.450  -0.069  1.00  0.00     0.002 A 
HETATM   37  C13 UNL     1      71.476 -14.631  -0.842  1.00  0.00     0.029 A 
HETATM   38  C14 UNL     1      72.707 -14.201  -0.451  1.00  0.00     0.073 A 
HETATM   39  N9  UNL     1      73.824 -14.427  -1.314  1.00  0.00    -0.100 NA
ENDBRANCH  31  33
ENDBRANCH   1  29
BRANCH   2  40
HETATM   40  N4  UNL     1      78.725 -13.167   1.691  1.00  0.00    -0.286 N 
ATOM     41  H4  UNL     1      79.135 -13.258   2.620  1.00  0.00     0.188 HD
BRANCH  40  42
HETATM   42  C6  UNL     1      79.478 -12.486   0.705  1.00  0.00     0.136 C 
HETATM   43  N6  UNL     1      79.052 -11.368   0.261  1.00  0.00    -0.293 N 
ATOM     44  H6  UNL     1      78.175 -11.018   0.648  1.00  0.00     0.187 HD
BRANCH  42  45
HETATM   45  C7  UNL     1      80.740 -13.081   0.210  1.00  0.00     0.308 C 
BRANCH  45  46
HETATM   46  N5  UNL     1      81.861 -12.680   1.052  1.00  0.00    -0.073 N 
ATOM     47  H53 UNL     1      81.548 -12.336   1.960  1.00  0.00     0.274 HD
ATOM     48  H52 UNL     1      82.402 -13.483   1.371  1.00  0.00     0.274 HD
ATOM     49  H51 UNL     1      82.445 -11.997   0.569  1.00  0.00     0.274 HD
ENDBRANCH  45  46
ENDBRANCH  42  45
BRANCH  43  50
HETATM   50  N7  UNL     1      79.675 -10.588  -0.697  1.00  0.00    -0.344 N 
ATOM     51  H72 UNL     1      80.487 -10.056  -0.383  1.00  0.00     0.176 HD
ATOM     52  H71 UNL     1      79.393 -10.506  -1.673  1.00  0.00     0.176 HD
ENDBRANCH  43  50
ENDBRANCH  40  42
ENDBRANCH   2  40
TORSDOF 12
ENDMDL
MODEL 5
REMARK VINA RESULT: -9.306966028      3.355      8.563
REMARK  12 active torsions:
REMARK  status: ('A' for Active; 'I' for Inactive)
REMARK    1  A    between atoms: N1_1  and  C1_4 
REMARK    2  A    between atoms: C3_8  and  S1_9 
REMARK    3  A    between atoms: S1_9  and  C4_10 
REMARK    4  A    between atoms: C4_10  and  C5_11 
REMARK    5  A    between atoms: C5_11  and  C8_27 
REMARK    6  A    between atoms: N3_12  and  N4_14 
REMARK    7  A    between atoms: N4_14  and  C6_16 
REMARK    8  A    between atoms: C6_16  and  C7_17 
REMARK    9  A    between atoms: C7_17  and  N5_18 
REMARK   10  A    between atoms: N6_22  and  N7_24 
REMARK       I    between atoms: C8_27  and  N8_29 
REMARK   11  A    between atoms: N8_29  and  C9_31 
REMARK   12  A    between atoms: C15_40  and  C16_41 
ROOT
HETATM    1  C5  UNL     1      72.722 -11.753   2.910  1.00  0.00     0.103 C 
HETATM    2  N3  UNL     1      71.667 -11.177   2.453  1.00  0.00    -0.297 N 
ATOM      3  H3  UNL     1      71.480 -11.181   1.451  1.00  0.00     0.187 HD
ENDROOT
BRANCH   1   4
HETATM    4  C4  UNL     1      72.973 -11.735   4.367  1.00  0.00     0.145 C 
BRANCH   4   5
HETATM    5  S1  UNL     1      74.139 -13.040   4.859  1.00  0.00    -0.102 SA
BRANCH   5   6
HETATM    6  C3  UNL     1      75.799 -12.412   4.764  1.00  0.00     0.120 A 
HETATM    7  C2  UNL     1      76.274 -11.632   5.810  1.00  0.00     0.194 A 
HETATM    8  N2  UNL     1      75.711 -11.220   6.958  1.00  0.00    -0.169 N 
HETATM    9  N13 UNL     1      77.523 -11.144   5.766  1.00  0.00    -0.160 N 
HETATM   10  C1  UNL     1      76.613 -10.479   7.623  1.00  0.00     0.693 A 
ATOM     11  H2  UNL     1      74.765 -11.434   7.271  1.00  0.00     0.186 HD
HETATM   12  N14 UNL     1      77.717 -10.445   6.873  1.00  0.00    -0.109 N 
ATOM     13  H14 UNL     1      78.578  -9.956   7.117  1.00  0.00     0.208 HD
HETATM   14  N12 UNL     1      78.272 -11.431   4.706  1.00  0.00    -0.261 N 
HETATM   15  C15 UNL     1      77.860 -12.181   3.668  1.00  0.00     0.134 A 
ATOM     16  H12 UNL     1      79.221 -11.059   4.678  1.00  0.00     0.191 HD
HETATM   17  N10 UNL     1      76.609 -12.667   3.716  1.00  0.00    -0.332 N 
ATOM     18  H10 UNL     1      76.264 -13.240   2.946  1.00  0.00     0.168 HD
BRANCH  10  19
HETATM   19  N1  UNL     1      76.420  -9.907   8.785  1.00  0.00    -0.233 N 
ATOM     20  H12 UNL     1      75.704  -9.223   9.031  1.00  0.00     0.174 HD
ATOM     21  H11 UNL     1      76.974 -10.071   9.626  1.00  0.00     0.174 HD
ENDBRANCH  10  19
BRANCH  15  22
HETATM   22  C16 UNL     1      78.746 -12.450   2.537  1.00  0.00     0.025 A 
HETATM   23  C17 UNL     1      78.395 -13.294   1.504  1.00  0.00     0.018 A 
HETATM   24  C18 UNL     1      79.240 -13.541   0.440  1.00  0.00     0.018 A 
HETATM   25  C19 UNL     1      80.467 -12.915   0.429  1.00  0.00     0.087 A 
HETATM   26  N11 UNL     1      80.837 -12.083   1.428  1.00  0.00    -0.374 N 
HETATM   27  C20 UNL     1      79.983 -11.858   2.463  1.00  0.00     0.102 A 
ATOM     28  H11 UNL     1      81.749 -11.628   1.406  1.00  0.00     0.164 HD
ENDBRANCH  15  22
ENDBRANCH   5   6
ENDBRANCH   4   5
ENDBRANCH   1   4
BRANCH   1  29
HETATM   29  C8  UNL     1      73.642 -12.410   1.960  1.00  0.00     0.270 C 
HETATM   30  O1  UNL     1      74.605 -11.723   1.597  1.00  0.00    -0.266 OA
HETATM   31  N8  UNL     1      73.359 -13.728   1.552  1.00  0.00    -0.320 N 
ATOM     32  H8  UNL     1      72.522 -14.159   1.944  1.00  0.00     0.169 HD
BRANCH  31  33
HETATM   33  C9  UNL     1      74.112 -14.510   0.663  1.00  0.00     0.059 A 
HETATM   34  C10 UNL     1      73.970 -14.549  -0.704  1.00  0.00     0.031 A 
HETATM   35  C11 UNL     1      74.756 -15.351  -1.516  1.00  0.00     0.002 A 
HETATM   36  C12 UNL     1      75.719 -16.149  -0.967  1.00  0.00     0.002 A 
HETATM   37  C13 UNL     1      75.870 -16.120   0.398  1.00  0.00     0.029 A 
HETATM   38  C14 UNL     1      75.101 -15.333   1.200  1.00  0.00     0.073 A 
HETATM   39  N9  UNL     1      75.321 -15.360   2.612  1.00  0.00    -0.100 NA
ENDBRANCH  31  33
ENDBRANCH   1  29
BRANCH   2  40
HETATM   40  N4  UNL     1      70.790 -10.554   3.316  1.00  0.00    -0.286 N 
ATOM     41  H4  UNL     1      70.180 -11.145   3.880  1.00  0.00     0.188 HD
BRANCH  40  42
HETATM   42  C6  UNL     1      70.677  -9.153   3.474  1.00  0.00     0.136 C 
HETATM   43  N6  UNL     1      71.320  -8.385   2.683  1.00  0.00    -0.293 N 
ATOM     44  H6  UNL     1      71.892  -8.830   1.966  1.00  0.00     0.187 HD
BRANCH  42  45
HETATM   45  C7  UNL     1      69.818  -8.606   4.549  1.00  0.00     0.308 C 
BRANCH  45  46
HETATM   46  N5  UNL     1      68.466  -8.372   4.056  1.00  0.00    -0.073 N 
ATOM     47  H53 UNL     1      68.453  -7.694   3.294  1.00  0.00     0.274 HD
ATOM     48  H52 UNL     1      68.103  -9.179   3.548  1.00  0.00     0.274 HD
ATOM     49  H51 UNL     1      67.849  -8.096   4.819  1.00  0.00     0.274 HD
ENDBRANCH  45  46
ENDBRANCH  42  45
BRANCH  43  50
HETATM   50  N7  UNL     1      71.309  -7.001   2.713  1.00  0.00    -0.344 N 
ATOM     51  H72 UNL     1      71.491  -6.572   3.620  1.00  0.00     0.176 HD
ATOM     52  H71 UNL     1      71.136  -6.390   1.915  1.00  0.00     0.176 HD
ENDBRANCH  43  50
ENDBRANCH  40  42
ENDBRANCH   2  40
TORSDOF 12
ENDMDL
