MODEL 1
REMARK VINA RESULT: -6.549769617      0.000      0.000
REMARK  6 active torsions:
REMARK  status: ('A' for Active; 'I' for Inactive)
REMARK       I    between atoms: N1_2  and  C2_4 
REMARK    1  A    between atoms: C2_4  and  C3_6 
REMARK    2  A    between atoms: C11_18  and  N4_19 
REMARK    3  A    between atoms: N4_19  and  C12_21 
REMARK    4  A    between atoms: C12_21  and  C13_23 
REMARK    5  A    between atoms: C14_24  and  C15_25 
REMARK    6  A    between atoms: C15_25  and  N5_26 
ROOT
HETATM    1  C3  UNL     1      12.116  68.547  14.342  1.00  0.00     0.041 C 
HETATM    2  C4  UNL     1      13.325  68.230  15.274  1.00  0.00     0.025 C 
HETATM    3  C5  UNL     1      11.829  67.355  13.556  1.00  0.00     0.048 C 
HETATM    4  C6  UNL     1      10.956  67.392  12.346  1.00  0.00     0.255 C 
HETATM    5  N2  UNL     1      11.636  67.909  11.160  1.00  0.00    -0.004 N 
HETATM    6  C7  UNL     1      11.235  67.300   9.986  1.00  0.00     0.290 C 
HETATM    7  C8  UNL     1      12.990  67.873  11.318  1.00  0.00     0.139 C 
HETATM    8  C9  UNL     1      13.970  68.082  11.578  1.00  0.00     0.043 C 
HETATM    9  N3  UNL     1      15.050  68.719  12.127  1.00  0.00    -0.282 N 
ATOM     10  H3  UNL     1      16.023  68.418  12.074  1.00  0.00     0.179 HD
HETATM   11  C10 UNL     1      14.518  69.977  12.842  1.00  0.00     0.257 C 
HETATM   12  O2  UNL     1      15.370  70.516  13.420  1.00  0.00    -0.270 OA
HETATM   13  C11 UNL     1      13.071  70.447  12.795  1.00  0.00     0.116 C 
HETATM   14  C19 UNL     1      12.421  70.302  11.457  1.00  0.00     0.070 C 
HETATM   15  C20 UNL     1      11.356  69.380  11.099  1.00  0.00     0.256 C 
HETATM   16  C21 UNL     1      12.187  69.898  13.813  1.00  0.00     0.060 C 
ENDROOT
BRANCH  13  17
HETATM   17  N4  UNL     1      13.197  71.890  13.025  1.00  0.00    -0.356 N 
ATOM     18  H4  UNL     1      13.992  72.176  13.595  1.00  0.00     0.162 HD
BRANCH  17  19
HETATM   19  C12 UNL     1      12.387  72.917  12.575  1.00  0.00     0.152 C 
HETATM   20  S1  UNL     1      10.788  73.134  12.783  1.00  0.00    -0.051 SA
BRANCH  19  21
HETATM   21  C13 UNL     1      13.010  73.995  11.796  1.00  0.00    -0.035 C 
HETATM   22  C14 UNL     1      13.513  74.900  11.166  1.00  0.00    -0.071 C 
BRANCH  22  23
HETATM   23  C15 UNL     1      14.131  75.996  10.419  1.00  0.00     0.329 C 
BRANCH  23  24
HETATM   24  N5  UNL     1      13.208  77.092  10.410  1.00  0.00    -0.069 N 
HETATM   25  C16 UNL     1      13.835  78.173   9.631  1.00  0.00     0.272 C 
HETATM   26  C17 UNL     1      11.970  76.777   9.766  1.00  0.00     0.272 C 
HETATM   27  C18 UNL     1      12.999  77.638  11.739  1.00  0.00     0.272 C 
ENDBRANCH  23  24
ENDBRANCH  22  23
ENDBRANCH  19  21
ENDBRANCH  17  19
ENDBRANCH  13  17
BRANCH   1  28
HETATM   28  C2  UNL     1      10.998  68.638  15.386  1.00  0.00     0.225 C 
HETATM   29  N1  UNL     1       9.986  69.608  15.312  1.00  0.00    -0.365 N 
HETATM   30  C1  UNL     1       8.917  69.718  16.286  1.00  0.00     0.149 C 
ATOM     31  H1  UNL     1      10.003  70.268  14.535  1.00  0.00     0.161 HD
HETATM   32  O1  UNL     1      10.986  67.833  16.320  1.00  0.00    -0.273 OA
ENDBRANCH   1  28
TORSDOF 6
ENDMDL
MODEL 2
REMARK VINA RESULT: -6.513657183      2.806      4.449
REMARK  6 active torsions:
REMARK  status: ('A' for Active; 'I' for Inactive)
REMARK       I    between atoms: N1_2  and  C2_4 
REMARK    1  A    between atoms: C2_4  and  C3_6 
REMARK    2  A    between atoms: C11_18  and  N4_19 
REMARK    3  A    between atoms: N4_19  and  C12_21 
REMARK    4  A    between atoms: C12_21  and  C13_23 
REMARK    5  A    between atoms: C14_24  and  C15_25 
REMARK    6  A    between atoms: C15_25  and  N5_26 
ROOT
HETATM    1  C3  UNL     1      12.902  67.965  13.439  1.00  0.00     0.041 C 
HETATM    2  C4  UNL     1      13.244  66.935  12.319  1.00  0.00     0.025 C 
HETATM    3  C5  UNL     1      11.977  67.331  14.367  1.00  0.00     0.048 C 
HETATM    4  C6  UNL     1      11.196  68.113  15.368  1.00  0.00     0.255 C 
HETATM    5  N2  UNL     1      10.031  68.784  14.796  1.00  0.00    -0.004 N 
HETATM    6  C7  UNL     1       8.948  68.838  15.654  1.00  0.00     0.290 C 
HETATM    7  C8  UNL     1       9.699  68.242  13.589  1.00  0.00     0.139 C 
HETATM    8  C9  UNL     1       9.653  67.997  12.584  1.00  0.00     0.043 C 
HETATM    9  N3  UNL     1       9.946  67.979  11.247  1.00  0.00    -0.282 N 
ATOM     10  H3  UNL     1       9.485  67.416  10.532  1.00  0.00     0.179 HD
HETATM   11  C10 UNL     1      11.106  68.970  11.024  1.00  0.00     0.257 C 
HETATM   12  O2  UNL     1      11.477  68.932   9.924  1.00  0.00    -0.270 OA
HETATM   13  C11 UNL     1      11.684  69.875  12.104  1.00  0.00     0.116 C 
HETATM   14  C19 UNL     1      10.663  70.474  13.015  1.00  0.00     0.070 C 
HETATM   15  C20 UNL     1      10.461  70.170  14.421  1.00  0.00     0.256 C 
HETATM   16  C21 UNL     1      12.759  69.308  12.904  1.00  0.00     0.060 C 
ENDROOT
BRANCH  13  17
HETATM   17  N4  UNL     1      12.230  70.991  11.324  1.00  0.00    -0.356 N 
ATOM     18  H4  UNL     1      12.358  70.811  10.329  1.00  0.00     0.162 HD
BRANCH  17  19
HETATM   19  C12 UNL     1      12.595  72.255  11.751  1.00  0.00     0.152 C 
HETATM   20  S1  UNL     1      11.882  73.687  11.456  1.00  0.00    -0.051 SA
BRANCH  19  21
HETATM   21  C13 UNL     1      13.788  72.378  12.598  1.00  0.00    -0.035 C 
HETATM   22  C14 UNL     1      14.770  72.458  13.304  1.00  0.00    -0.071 C 
BRANCH  22  23
HETATM   23  C15 UNL     1      15.965  72.544  14.145  1.00  0.00     0.329 C 
BRANCH  23  24
HETATM   24  N5  UNL     1      15.733  73.560  15.128  1.00  0.00    -0.069 N 
HETATM   25  C16 UNL     1      16.987  73.719  15.883  1.00  0.00     0.272 C 
HETATM   26  C17 UNL     1      15.425  74.834  14.555  1.00  0.00     0.272 C 
HETATM   27  C18 UNL     1      14.738  73.155  16.105  1.00  0.00     0.272 C 
ENDBRANCH  23  24
ENDBRANCH  22  23
ENDBRANCH  19  21
ENDBRANCH  17  19
ENDBRANCH  13  17
BRANCH   1  28
HETATM   28  C2  UNL     1      14.250  68.018  14.165  1.00  0.00     0.225 C 
HETATM   29  N1  UNL     1      14.598  67.094  15.162  1.00  0.00    -0.365 N 
HETATM   30  C1  UNL     1      15.865  67.122  15.867  1.00  0.00     0.149 C 
ATOM     31  H1  UNL     1      13.925  66.366  15.404  1.00  0.00     0.161 HD
HETATM   32  O1  UNL     1      15.057  68.901  13.863  1.00  0.00    -0.273 OA
ENDBRANCH   1  28
TORSDOF 6
ENDMDL
MODEL 3
REMARK VINA RESULT: -6.430125079      2.205      2.490
REMARK  6 active torsions:
REMARK  status: ('A' for Active; 'I' for Inactive)
REMARK       I    between atoms: N1_2  and  C2_4 
REMARK    1  A    between atoms: C2_4  and  C3_6 
REMARK    2  A    between atoms: C11_18  and  N4_19 
REMARK    3  A    between atoms: N4_19  and  C12_21 
REMARK    4  A    between atoms: C12_21  and  C13_23 
REMARK    5  A    between atoms: C14_24  and  C15_25 
REMARK    6  A    between atoms: C15_25  and  N5_26 
ROOT
HETATM    1  C3  UNL     1      10.466  68.249  13.100  1.00  0.00     0.041 C 
HETATM    2  C4  UNL     1      10.280  67.781  14.576  1.00  0.00     0.025 C 
HETATM    3  C5  UNL     1      10.640  67.066  12.271  1.00  0.00     0.048 C 
HETATM    4  C6  UNL     1      11.157  67.144  10.873  1.00  0.00     0.255 C 
HETATM    5  N2  UNL     1      12.608  67.305  10.803  1.00  0.00    -0.004 N 
HETATM    6  C7  UNL     1      13.183  66.652   9.729  1.00  0.00     0.290 C 
HETATM    7  C8  UNL     1      13.196  66.960  11.984  1.00  0.00     0.139 C 
HETATM    8  C9  UNL     1      13.564  66.957  12.951  1.00  0.00     0.043 C 
HETATM    9  N3  UNL     1      13.862  67.381  14.219  1.00  0.00    -0.282 N 
ATOM     10  H3  UNL     1      14.349  66.847  14.939  1.00  0.00     0.179 HD
HETATM   11  C10 UNL     1      13.324  68.819  14.353  1.00  0.00     0.257 C 
HETATM   12  O2  UNL     1      13.452  69.210  15.440  1.00  0.00    -0.270 OA
HETATM   13  C11 UNL     1      12.708  69.618  13.213  1.00  0.00     0.116 C 
HETATM   14  C19 UNL     1      13.400  69.449  11.899  1.00  0.00     0.070 C 
HETATM   15  C20 UNL     1      12.884  68.775  10.720  1.00  0.00     0.256 C 
HETATM   16  C21 UNL     1      11.275  69.453  13.018  1.00  0.00     0.060 C 
ENDROOT
BRANCH  13  17
HETATM   17  N4  UNL     1      12.960  71.004  13.622  1.00  0.00    -0.356 N 
ATOM     18  H4  UNL     1      12.247  71.421  14.222  1.00  0.00     0.162 HD
BRANCH  17  19
HETATM   19  C12 UNL     1      14.028  71.824  13.310  1.00  0.00     0.152 C 
HETATM   20  S1  UNL     1      15.593  71.681  13.731  1.00  0.00    -0.051 SA
BRANCH  19  21
HETATM   21  C13 UNL     1      13.769  73.006  12.477  1.00  0.00    -0.035 C 
HETATM   22  C14 UNL     1      13.577  73.988  11.795  1.00  0.00    -0.071 C 
BRANCH  22  23
HETATM   23  C15 UNL     1      13.355  75.168  10.958  1.00  0.00     0.329 C 
BRANCH  23  24
HETATM   24  N5  UNL     1      11.980  75.548  11.095  1.00  0.00    -0.069 N 
HETATM   25  C16 UNL     1      11.755  76.678  10.179  1.00  0.00     0.272 C 
HETATM   26  C17 UNL     1      11.072  74.511  10.712  1.00  0.00     0.272 C 
HETATM   27  C18 UNL     1      11.686  76.057  12.423  1.00  0.00     0.272 C 
ENDBRANCH  23  24
ENDBRANCH  22  23
ENDBRANCH  19  21
ENDBRANCH  17  19
ENDBRANCH  13  17
BRANCH   1  28
HETATM   28  C2  UNL     1       9.050  68.758  12.808  1.00  0.00     0.225 C 
HETATM   29  N1  UNL     1       7.951  68.405  13.606  1.00  0.00    -0.365 N 
HETATM   30  C1  UNL     1       6.601  68.870  13.353  1.00  0.00     0.149 C 
ATOM     31  H1  UNL     1       8.109  67.789  14.405  1.00  0.00     0.161 HD
HETATM   32  O1  UNL     1       8.871  69.503  11.842  1.00  0.00    -0.273 OA
ENDBRANCH   1  28
TORSDOF 6
ENDMDL
MODEL 4
REMARK VINA RESULT: -6.406431518      3.495      7.793
REMARK  6 active torsions:
REMARK  status: ('A' for Active; 'I' for Inactive)
REMARK       I    between atoms: N1_2  and  C2_4 
REMARK    1  A    between atoms: C2_4  and  C3_6 
REMARK    2  A    between atoms: C11_18  and  N4_19 
REMARK    3  A    between atoms: N4_19  and  C12_21 
REMARK    4  A    between atoms: C12_21  and  C13_23 
REMARK    5  A    between atoms: C14_24  and  C15_25 
REMARK    6  A    between atoms: C15_25  and  N5_26 
ROOT
HETATM    1  C3  UNL     1      10.786  68.087  13.776  1.00  0.00     0.041 C 
HETATM    2  C4  UNL     1      10.335  66.828  12.974  1.00  0.00     0.025 C 
HETATM    3  C5  UNL     1      10.189  69.258  13.149  1.00  0.00     0.048 C 
HETATM    4  C6  UNL     1      10.654  70.643  13.449  1.00  0.00     0.255 C 
HETATM    5  N2  UNL     1      11.888  71.002  12.751  1.00  0.00    -0.004 N 
HETATM    6  C7  UNL     1      11.938  72.329  12.368  1.00  0.00     0.290 C 
HETATM    7  C8  UNL     1      12.120  70.159  11.705  1.00  0.00     0.139 C 
HETATM    8  C9  UNL     1      12.396  69.355  11.113  1.00  0.00     0.043 C 
HETATM    9  N3  UNL     1      12.882  68.127  10.752  1.00  0.00    -0.282 N 
ATOM     10  H3  UNL     1      12.921  67.744   9.807  1.00  0.00     0.179 HD
HETATM   11  C10 UNL     1      13.361  67.432  12.042  1.00  0.00     0.257 C 
HETATM   12  O2  UNL     1      13.695  66.341  11.825  1.00  0.00    -0.270 OA
HETATM   13  C11 UNL     1      13.390  68.091  13.414  1.00  0.00     0.116 C 
HETATM   14  C19 UNL     1      13.837  69.517  13.402  1.00  0.00     0.070 C 
HETATM   15  C20 UNL     1      13.024  70.689  13.677  1.00  0.00     0.256 C 
HETATM   16  C21 UNL     1      12.171  67.983  14.201  1.00  0.00     0.060 C 
ENDROOT
BRANCH  13  17
HETATM   17  N4  UNL     1      14.450  67.345  14.103  1.00  0.00    -0.356 N 
ATOM     18  H4  UNL     1      14.998  66.717  13.515  1.00  0.00     0.162 HD
BRANCH  17  19
HETATM   19  C12 UNL     1      14.810  67.375  15.438  1.00  0.00     0.152 C 
HETATM   20  S1  UNL     1      15.214  68.649  16.366  1.00  0.00    -0.051 SA
BRANCH  19  21
HETATM   21  C13 UNL     1      14.844  66.104  16.171  1.00  0.00    -0.035 C 
HETATM   22  C14 UNL     1      14.863  65.065  16.794  1.00  0.00    -0.071 C 
BRANCH  22  23
HETATM   23  C15 UNL     1      14.870  63.809  17.546  1.00  0.00     0.329 C 
BRANCH  23  24
HETATM   24  N5  UNL     1      14.970  64.135  18.938  1.00  0.00    -0.069 N 
HETATM   25  C16 UNL     1      15.092  62.862  19.667  1.00  0.00     0.272 C 
HETATM   26  C17 UNL     1      16.132  64.909  19.250  1.00  0.00     0.272 C 
HETATM   27  C18 UNL     1      13.758  64.758  19.439  1.00  0.00     0.272 C 
ENDBRANCH  23  24
ENDBRANCH  22  23
ENDBRANCH  19  21
ENDBRANCH  17  19
ENDBRANCH  13  17
BRANCH   1  28
HETATM   28  C2  UNL     1      10.003  67.864  15.074  1.00  0.00     0.225 C 
HETATM   29  N1  UNL     1       8.643  67.517  15.074  1.00  0.00    -0.365 N 
HETATM   30  C1  UNL     1       7.877  67.302  16.287  1.00  0.00     0.149 C 
ATOM     31  H1  UNL     1       8.169  67.411  14.177  1.00  0.00     0.161 HD
HETATM   32  O1  UNL     1      10.586  67.993  16.153  1.00  0.00    -0.273 OA
ENDBRANCH   1  28
TORSDOF 6
ENDMDL
MODEL 5
REMARK VINA RESULT: -6.382084986      1.876      3.906
REMARK  6 active torsions:
REMARK  status: ('A' for Active; 'I' for Inactive)
REMARK       I    between atoms: N1_2  and  C2_4 
REMARK    1  A    between atoms: C2_4  and  C3_6 
REMARK    2  A    between atoms: C11_18  and  N4_19 
REMARK    3  A    between atoms: N4_19  and  C12_21 
REMARK    4  A    between atoms: C12_21  and  C13_23 
REMARK    5  A    between atoms: C14_24  and  C15_25 
REMARK    6  A    between atoms: C15_25  and  N5_26 
ROOT
HETATM    1  C3  UNL     1      11.692  68.322  11.248  1.00  0.00     0.041 C 
HETATM    2  C4  UNL     1      10.146  68.400  11.061  1.00  0.00     0.025 C 
HETATM    3  C5  UNL     1      11.983  67.193  12.121  1.00  0.00     0.048 C 
HETATM    4  C6  UNL     1      13.315  67.013  12.769  1.00  0.00     0.255 C 
HETATM    5  N2  UNL     1      13.506  67.863  13.942  1.00  0.00    -0.004 N 
HETATM    6  C7  UNL     1      14.252  67.264  14.940  1.00  0.00     0.290 C 
HETATM    7  C8  UNL     1      12.313  68.330  14.407  1.00  0.00     0.139 C 
HETATM    8  C9  UNL     1      11.442  68.870  14.554  1.00  0.00     0.043 C 
HETATM    9  N3  UNL     1      10.466  69.815  14.380  1.00  0.00    -0.282 N 
ATOM     10  H3  UNL     1       9.613  69.914  14.932  1.00  0.00     0.179 HD
HETATM   11  C10 UNL     1      10.897  70.699  13.194  1.00  0.00     0.257 C 
HETATM   12  O2  UNL     1      10.065  71.463  12.922  1.00  0.00    -0.270 OA
HETATM   13  C11 UNL     1      12.234  70.583  12.475  1.00  0.00     0.116 C 
HETATM   14  C19 UNL     1      13.398  70.332  13.379  1.00  0.00     0.070 C 
HETATM   15  C20 UNL     1      14.184  69.114  13.473  1.00  0.00     0.256 C 
HETATM   16  C21 UNL     1      12.285  69.643  11.366  1.00  0.00     0.060 C 
ENDROOT
BRANCH  13  17
HETATM   17  N4  UNL     1      12.427  71.936  11.941  1.00  0.00    -0.356 N 
ATOM     18  H4  UNL     1      12.191  72.057  10.956  1.00  0.00     0.162 HD
BRANCH  17  19
HETATM   19  C12 UNL     1      12.884  73.070  12.586  1.00  0.00     0.152 C 
HETATM   20  S1  UNL     1      12.965  73.386  14.180  1.00  0.00    -0.051 SA
BRANCH  19  21
HETATM   21  C13 UNL     1      13.382  74.179  11.762  1.00  0.00    -0.035 C 
HETATM   22  C14 UNL     1      13.784  75.108  11.096  1.00  0.00    -0.071 C 
BRANCH  22  23
HETATM   23  C15 UNL     1      14.280  76.234  10.304  1.00  0.00     0.329 C 
BRANCH  23  24
HETATM   24  N5  UNL     1      13.284  77.264  10.338  1.00  0.00    -0.069 N 
HETATM   25  C16 UNL     1      13.828  78.409   9.590  1.00  0.00     0.272 C 
HETATM   26  C17 UNL     1      12.064  76.885   9.695  1.00  0.00     0.272 C 
HETATM   27  C18 UNL     1      13.052  77.752  11.687  1.00  0.00     0.272 C 
ENDBRANCH  23  24
ENDBRANCH  22  23
ENDBRANCH  19  21
ENDBRANCH  17  19
ENDBRANCH  13  17
BRANCH   1  28
HETATM   28  C2  UNL     1      12.103  67.877   9.841  1.00  0.00     0.225 C 
HETATM   29  N1  UNL     1      11.162  67.667   8.820  1.00  0.00    -0.365 N 
HETATM   30  C1  UNL     1      11.522  67.246   7.481  1.00  0.00     0.149 C 
ATOM     31  H1  UNL     1      10.175  67.819   9.032  1.00  0.00     0.161 HD
HETATM   32  O1  UNL     1      13.298  67.698   9.596  1.00  0.00    -0.273 OA
ENDBRANCH   1  28
TORSDOF 6
ENDMDL
