MODEL 1
REMARK VINA RESULT: -7.922230543      0.000      0.000
REMARK  7 active torsions:
REMARK  status: ('A' for Active; 'I' for Inactive)
REMARK    1  A    between atoms: C2_2  and  N1_3 
REMARK    2  A    between atoms: C2_2  and  C16_25 
REMARK       I    between atoms: N1_3  and  C3_5 
REMARK    3  A    between atoms: C3_5  and  C4_7 
REMARK    4  A    between atoms: C9_15  and  N3_16 
REMARK    5  A    between atoms: N3_16  and  C10_17 
REMARK    6  A    between atoms: C10_17  and  C11_18 
REMARK    7  A    between atoms: C11_18  and  O2_19 
REMARK       I    between atoms: C16_25  and  N4_27 
ROOT
HETATM    1  C4  UNL     1      19.873 -14.333  22.183  1.00  0.00     0.308 C 
HETATM    2  N2  UNL     1      20.667 -14.945  21.074  1.00  0.00    -0.059 N 
ATOM      3  H21 UNL     1      21.563 -14.488  20.907  1.00  0.00     0.278 HD
ATOM      4  H22 UNL     1      20.276 -14.781  20.147  1.00  0.00     0.278 HD
HETATM    5  C5  UNL     1      20.777 -16.298  21.412  1.00  0.00     0.244 C 
HETATM    6  C6  UNL     1      20.544 -16.451  22.944  1.00  0.00     0.008 C 
HETATM    7  C7  UNL     1      19.347 -17.284  23.080  1.00  0.00     0.019 C 
HETATM    8  C8  UNL     1      21.759 -17.292  23.317  1.00  0.00     0.019 C 
HETATM    9  C9  UNL     1      20.552 -15.026  23.331  1.00  0.00     0.239 C 
ENDROOT
BRANCH   1  10
HETATM   10  C3  UNL     1      18.486 -14.604  21.828  1.00  0.00     0.251 C 
HETATM   11  N1  UNL     1      17.893 -14.974  20.652  1.00  0.00    -0.346 N 
ATOM     12  H1  UNL     1      18.560 -15.123  19.895  1.00  0.00     0.163 HD
HETATM   13  O1  UNL     1      17.653 -14.472  22.815  1.00  0.00    -0.271 OA
BRANCH  11  14
HETATM   14  C2  UNL     1      16.521 -15.198  20.252  1.00  0.00     0.172 C 
HETATM   15  C1  UNL     1      16.364 -16.594  19.611  1.00  0.00     0.042 C 
BRANCH  14  16
HETATM   16  C16 UNL     1      15.996 -14.153  19.395  1.00  0.00     0.242 C 
HETATM   17  O3  UNL     1      15.889 -14.409  18.162  1.00  0.00    -0.271 OA
HETATM   18  N4  UNL     1      15.597 -12.883  19.813  1.00  0.00    -0.347 N 
HETATM   19  C17 UNL     1      14.980 -11.928  18.846  1.00  0.00     0.154 C 
HETATM   20  C24 UNL     1      15.729 -12.266  21.114  1.00  0.00     0.154 C 
HETATM   21  C18 UNL     1      13.592 -11.646  19.345  1.00  0.00     0.257 C 
HETATM   22  N5  UNL     1      13.438 -11.395  20.725  1.00  0.00    -0.064 N 
HETATM   23  C19 UNL     1      13.275  -9.996  21.090  1.00  0.00     0.237 C 
HETATM   24  C22 UNL     1      12.107 -11.923  21.115  1.00  0.00     0.237 C 
HETATM   25  C23 UNL     1      14.351 -12.000  21.631  1.00  0.00     0.257 C 
HETATM   26  C20 UNL     1      12.478 -10.004  22.376  1.00  0.00     0.029 C 
HETATM   27  C21 UNL     1      11.904 -11.394  22.517  1.00  0.00     0.029 C 
ENDBRANCH  14  16
ENDBRANCH  11  14
ENDBRANCH   1  10
BRANCH   9  28
HETATM   28  N3  UNL     1      20.567 -14.498  24.610  1.00  0.00    -0.058 N 
HETATM   29  C12 UNL     1      22.044 -14.278  24.841  1.00  0.00     0.238 C 
HETATM   30  C13 UNL     1      22.220 -13.499  26.063  1.00  0.00     0.029 C 
HETATM   31  C14 UNL     1      20.935 -12.745  26.167  1.00  0.00     0.029 C 
HETATM   32  C15 UNL     1      20.266 -13.118  24.862  1.00  0.00     0.238 C 
BRANCH  28  33
HETATM   33  C10 UNL     1      20.187 -15.320  25.701  1.00  0.00     0.264 C 
BRANCH  33  34
HETATM   34  C11 UNL     1      18.834 -15.371  26.255  1.00  0.00     0.192 C 
BRANCH  34  35
HETATM   35  O2  UNL     1      17.735 -15.338  25.446  1.00  0.00    -0.399 OA
ATOM     36  H2  UNL     1      17.283 -14.523  25.260  1.00  0.00     0.209 HD
ENDBRANCH  34  35
ENDBRANCH  33  34
ENDBRANCH  28  33
ENDBRANCH   9  28
TORSDOF 7
ENDMDL
MODEL 2
REMARK VINA RESULT: -7.610665063      1.343      1.710
REMARK  7 active torsions:
REMARK  status: ('A' for Active; 'I' for Inactive)
REMARK    1  A    between atoms: C2_2  and  N1_3 
REMARK    2  A    between atoms: C2_2  and  C16_25 
REMARK       I    between atoms: N1_3  and  C3_5 
REMARK    3  A    between atoms: C3_5  and  C4_7 
REMARK    4  A    between atoms: C9_15  and  N3_16 
REMARK    5  A    between atoms: N3_16  and  C10_17 
REMARK    6  A    between atoms: C10_17  and  C11_18 
REMARK    7  A    between atoms: C11_18  and  O2_19 
REMARK       I    between atoms: C16_25  and  N4_27 
ROOT
HETATM    1  C4  UNL     1      20.209 -14.703  22.135  1.00  0.00     0.308 C 
HETATM    2  N2  UNL     1      20.853 -15.411  20.987  1.00  0.00    -0.059 N 
ATOM      3  H21 UNL     1      21.774 -15.048  20.742  1.00  0.00     0.278 HD
ATOM      4  H22 UNL     1      20.410 -15.227  20.087  1.00  0.00     0.278 HD
HETATM    5  C5  UNL     1      20.856 -16.762  21.351  1.00  0.00     0.244 C 
HETATM    6  C6  UNL     1      20.727 -16.862  22.900  1.00  0.00     0.008 C 
HETATM    7  C7  UNL     1      19.468 -17.569  23.145  1.00  0.00     0.019 C 
HETATM    8  C8  UNL     1      21.879 -17.812  23.204  1.00  0.00     0.019 C 
HETATM    9  C9  UNL     1      20.903 -15.438  23.247  1.00  0.00     0.239 C 
ENDROOT
BRANCH   1  10
HETATM   10  C3  UNL     1      18.780 -14.842  21.891  1.00  0.00     0.251 C 
HETATM   11  N1  UNL     1      18.068 -15.244  20.793  1.00  0.00    -0.346 N 
ATOM     12  H1  UNL     1      18.661 -15.537  20.016  1.00  0.00     0.163 HD
HETATM   13  O1  UNL     1      18.037 -14.526  22.907  1.00  0.00    -0.271 OA
BRANCH  11  14
HETATM   14  C2  UNL     1      16.656 -15.342  20.499  1.00  0.00     0.172 C 
HETATM   15  C1  UNL     1      16.309 -16.750  19.967  1.00  0.00     0.042 C 
BRANCH  14  16
HETATM   16  C16 UNL     1      16.182 -14.302  19.607  1.00  0.00     0.242 C 
HETATM   17  O3  UNL     1      16.179 -14.552  18.368  1.00  0.00    -0.271 OA
HETATM   18  N4  UNL     1      15.729 -13.041  19.997  1.00  0.00    -0.347 N 
HETATM   19  C17 UNL     1      15.174 -12.091  18.988  1.00  0.00     0.154 C 
HETATM   20  C24 UNL     1      15.745 -12.430  21.308  1.00  0.00     0.154 C 
HETATM   21  C18 UNL     1      13.745 -11.837  19.375  1.00  0.00     0.257 C 
HETATM   22  N5  UNL     1      13.476 -11.597  20.740  1.00  0.00    -0.064 N 
HETATM   23  C19 UNL     1      13.259 -10.204  21.097  1.00  0.00     0.237 C 
HETATM   24  C22 UNL     1      12.129 -12.151  21.019  1.00  0.00     0.237 C 
HETATM   25  C23 UNL     1      14.325 -12.192  21.713  1.00  0.00     0.257 C 
HETATM   26  C20 UNL     1      12.362 -10.233  22.315  1.00  0.00     0.029 C 
HETATM   27  C21 UNL     1      11.804 -11.634  22.403  1.00  0.00     0.029 C 
ENDBRANCH  14  16
ENDBRANCH  11  14
ENDBRANCH   1  10
BRANCH   9  28
HETATM   28  N3  UNL     1      21.066 -14.890  24.507  1.00  0.00    -0.058 N 
HETATM   29  C12 UNL     1      20.876 -13.415  24.235  1.00  0.00     0.238 C 
HETATM   30  C13 UNL     1      20.783 -12.708  25.508  1.00  0.00     0.029 C 
HETATM   31  C14 UNL     1      20.274 -13.760  26.438  1.00  0.00     0.029 C 
HETATM   32  C15 UNL     1      20.012 -14.902  25.480  1.00  0.00     0.238 C 
BRANCH  28  33
HETATM   33  C10 UNL     1      22.342 -14.944  25.123  1.00  0.00     0.264 C 
BRANCH  33  34
HETATM   34  C11 UNL     1      23.600 -14.680  24.424  1.00  0.00     0.192 C 
BRANCH  34  35
HETATM   35  O2  UNL     1      24.376 -13.603  24.743  1.00  0.00    -0.399 OA
ATOM     36  H2  UNL     1      25.231 -13.476  24.347  1.00  0.00     0.209 HD
ENDBRANCH  34  35
ENDBRANCH  33  34
ENDBRANCH  28  33
ENDBRANCH   9  28
TORSDOF 7
ENDMDL
MODEL 3
REMARK VINA RESULT: -7.533606464      4.615      7.945
REMARK  7 active torsions:
REMARK  status: ('A' for Active; 'I' for Inactive)
REMARK    1  A    between atoms: C2_2  and  N1_3 
REMARK    2  A    between atoms: C2_2  and  C16_25 
REMARK       I    between atoms: N1_3  and  C3_5 
REMARK    3  A    between atoms: C3_5  and  C4_7 
REMARK    4  A    between atoms: C9_15  and  N3_16 
REMARK    5  A    between atoms: N3_16  and  C10_17 
REMARK    6  A    between atoms: C10_17  and  C11_18 
REMARK    7  A    between atoms: C11_18  and  O2_19 
REMARK       I    between atoms: C16_25  and  N4_27 
ROOT
HETATM    1  C4  UNL     1      15.299 -13.102  21.163  1.00  0.00     0.308 C 
HETATM    2  N2  UNL     1      15.335 -14.465  21.776  1.00  0.00    -0.059 N 
ATOM      3  H21 UNL     1      15.118 -14.476  22.772  1.00  0.00     0.278 HD
ATOM      4  H22 UNL     1      16.273 -14.857  21.855  1.00  0.00     0.278 HD
HETATM    5  C5  UNL     1      14.463 -15.234  20.998  1.00  0.00     0.244 C 
HETATM    6  C6  UNL     1      13.480 -14.279  20.257  1.00  0.00     0.008 C 
HETATM    7  C7  UNL     1      13.737 -14.480  18.829  1.00  0.00     0.019 C 
HETATM    8  C8  UNL     1      12.152 -14.940  20.605  1.00  0.00     0.019 C 
HETATM    9  C9  UNL     1      13.816 -13.014  20.940  1.00  0.00     0.239 C 
ENDROOT
BRANCH   1  10
HETATM   10  C3  UNL     1      16.243 -13.176  20.056  1.00  0.00     0.251 C 
HETATM   11  N1  UNL     1      16.397 -12.421  18.925  1.00  0.00    -0.346 N 
ATOM     12  H1  UNL     1      15.749 -11.636  18.876  1.00  0.00     0.163 HD
HETATM   13  O1  UNL     1      17.105 -14.142  20.161  1.00  0.00    -0.271 OA
BRANCH  11  14
HETATM   14  C2  UNL     1      17.284 -12.499  17.786  1.00  0.00     0.172 C 
HETATM   15  C1  UNL     1      18.721 -12.099  18.188  1.00  0.00     0.042 C 
BRANCH  14  16
HETATM   16  C16 UNL     1      16.817 -11.737  16.643  1.00  0.00     0.242 C 
HETATM   17  O3  UNL     1      16.857 -10.476  16.726  1.00  0.00    -0.271 OA
HETATM   18  N4  UNL     1      16.323 -12.275  15.454  1.00  0.00    -0.347 N 
HETATM   19  C17 UNL     1      15.964 -11.384  14.312  1.00  0.00     0.154 C 
HETATM   20  C24 UNL     1      16.035 -13.653  15.127  1.00  0.00     0.154 C 
HETATM   21  C18 UNL     1      16.862 -11.765  13.170  1.00  0.00     0.257 C 
HETATM   22  N5  UNL     1      17.038 -13.141  12.915  1.00  0.00    -0.064 N 
HETATM   23  C19 UNL     1      16.279 -13.670  11.793  1.00  0.00     0.237 C 
HETATM   24  C22 UNL     1      18.419 -13.313  12.400  1.00  0.00     0.237 C 
HETATM   25  C23 UNL     1      16.939 -14.051  14.003  1.00  0.00     0.257 C 
HETATM   26  C20 UNL     1      17.077 -14.851  11.285  1.00  0.00     0.029 C 
HETATM   27  C21 UNL     1      18.448 -14.744  11.911  1.00  0.00     0.029 C 
ENDBRANCH  14  16
ENDBRANCH  11  14
ENDBRANCH   1  10
BRANCH   9  28
HETATM   28  N3  UNL     1      13.152 -11.803  20.850  1.00  0.00    -0.058 N 
HETATM   29  C12 UNL     1      14.071 -10.883  21.620  1.00  0.00     0.238 C 
HETATM   30  C13 UNL     1      13.634  -9.504  21.421  1.00  0.00     0.029 C 
HETATM   31  C14 UNL     1      12.939  -9.561  20.101  1.00  0.00     0.029 C 
HETATM   32  C15 UNL     1      13.228 -10.985  19.674  1.00  0.00     0.238 C 
BRANCH  28  33
HETATM   33  C10 UNL     1      11.908 -11.647  21.512  1.00  0.00     0.264 C 
BRANCH  33  34
HETATM   34  C11 UNL     1      11.707 -11.882  22.943  1.00  0.00     0.192 C 
BRANCH  34  35
HETATM   35  O2  UNL     1      10.464 -11.821  23.504  1.00  0.00    -0.399 OA
ATOM     36  H2  UNL     1      10.127 -11.012  23.869  1.00  0.00     0.209 HD
ENDBRANCH  34  35
ENDBRANCH  33  34
ENDBRANCH  28  33
ENDBRANCH   9  28
TORSDOF 7
ENDMDL
MODEL 4
REMARK VINA RESULT: -7.519077327      2.121      3.247
REMARK  7 active torsions:
REMARK  status: ('A' for Active; 'I' for Inactive)
REMARK    1  A    between atoms: C2_2  and  N1_3 
REMARK    2  A    between atoms: C2_2  and  C16_25 
REMARK       I    between atoms: N1_3  and  C3_5 
REMARK    3  A    between atoms: C3_5  and  C4_7 
REMARK    4  A    between atoms: C9_15  and  N3_16 
REMARK    5  A    between atoms: N3_16  and  C10_17 
REMARK    6  A    between atoms: C10_17  and  C11_18 
REMARK    7  A    between atoms: C11_18  and  O2_19 
REMARK       I    between atoms: C16_25  and  N4_27 
ROOT
HETATM    1  C4  UNL     1      20.593 -15.951  22.853  1.00  0.00     0.308 C 
HETATM    2  N2  UNL     1      19.668 -17.062  23.234  1.00  0.00    -0.059 N 
ATOM      3  H21 UNL     1      20.135 -17.854  23.676  1.00  0.00     0.278 HD
ATOM      4  H22 UNL     1      19.291 -17.576  22.438  1.00  0.00     0.278 HD
HETATM    5  C5  UNL     1      18.692 -16.461  24.036  1.00  0.00     0.244 C 
HETATM    6  C6  UNL     1      19.265 -15.130  24.608  1.00  0.00     0.008 C 
HETATM    7  C7  UNL     1      18.409 -14.070  24.070  1.00  0.00     0.019 C 
HETATM    8  C8  UNL     1      18.937 -15.311  26.085  1.00  0.00     0.019 C 
HETATM    9  C9  UNL     1      20.675 -15.280  24.196  1.00  0.00     0.239 C 
ENDROOT
BRANCH   1  10
HETATM   10  C3  UNL     1      19.948 -15.317  21.711  1.00  0.00     0.251 C 
HETATM   11  N1  UNL     1      20.020 -14.050  21.200  1.00  0.00    -0.346 N 
ATOM     12  H1  UNL     1      20.683 -13.454  21.695  1.00  0.00     0.163 HD
HETATM   13  O1  UNL     1      19.154 -16.103  21.050  1.00  0.00    -0.271 OA
BRANCH  11  14
HETATM   14  C2  UNL     1      19.356 -13.375  20.106  1.00  0.00     0.172 C 
HETATM   15  C1  UNL     1      20.390 -12.710  19.171  1.00  0.00     0.042 C 
BRANCH  14  16
HETATM   16  C16 UNL     1      18.346 -12.430  20.544  1.00  0.00     0.242 C 
HETATM   17  O3  UNL     1      18.669 -11.209  20.588  1.00  0.00    -0.271 OA
HETATM   18  N4  UNL     1      17.043 -12.753  20.926  1.00  0.00    -0.347 N 
HETATM   19  C17 UNL     1      16.066 -11.676  21.264  1.00  0.00     0.154 C 
HETATM   20  C24 UNL     1      16.440 -14.054  21.106  1.00  0.00     0.154 C 
HETATM   21  C18 UNL     1      14.944 -11.785  20.271  1.00  0.00     0.257 C 
HETATM   22  N5  UNL     1      14.448 -13.077  19.994  1.00  0.00    -0.064 N 
HETATM   23  C19 UNL     1      13.191 -13.415  20.644  1.00  0.00     0.237 C 
HETATM   24  C22 UNL     1      14.016 -13.079  18.575  1.00  0.00     0.237 C 
HETATM   25  C23 UNL     1      15.334 -14.183  20.108  1.00  0.00     0.257 C 
HETATM   26  C20 UNL     1      12.531 -14.436  19.743  1.00  0.00     0.029 C 
HETATM   27  C21 UNL     1      13.268 -14.385  18.425  1.00  0.00     0.029 C 
ENDBRANCH  14  16
ENDBRANCH  11  14
ENDBRANCH   1  10
BRANCH   9  28
HETATM   28  N3  UNL     1      21.751 -14.493  24.565  1.00  0.00    -0.058 N 
HETATM   29  C12 UNL     1      22.868 -15.507  24.649  1.00  0.00     0.238 C 
HETATM   30  C13 UNL     1      24.137 -14.802  24.800  1.00  0.00     0.029 C 
HETATM   31  C14 UNL     1      23.859 -13.476  24.170  1.00  0.00     0.029 C 
HETATM   32  C15 UNL     1      22.470 -13.699  23.610  1.00  0.00     0.238 C 
BRANCH  28  33
HETATM   33  C10 UNL     1      21.759 -13.894  25.850  1.00  0.00     0.264 C 
BRANCH  33  34
HETATM   34  C11 UNL     1      21.145 -12.602  26.155  1.00  0.00     0.192 C 
BRANCH  34  35
HETATM   35  O2  UNL     1      21.141 -12.101  27.425  1.00  0.00    -0.399 OA
ATOM     36  H2  UNL     1      21.585 -12.550  28.134  1.00  0.00     0.209 HD
ENDBRANCH  34  35
ENDBRANCH  33  34
ENDBRANCH  28  33
ENDBRANCH   9  28
TORSDOF 7
ENDMDL
MODEL 5
REMARK VINA RESULT: -7.505123433      2.422      7.637
REMARK  7 active torsions:
REMARK  status: ('A' for Active; 'I' for Inactive)
REMARK    1  A    between atoms: C2_2  and  N1_3 
REMARK    2  A    between atoms: C2_2  and  C16_25 
REMARK       I    between atoms: N1_3  and  C3_5 
REMARK    3  A    between atoms: C3_5  and  C4_7 
REMARK    4  A    between atoms: C9_15  and  N3_16 
REMARK    5  A    between atoms: N3_16  and  C10_17 
REMARK    6  A    between atoms: C10_17  and  C11_18 
REMARK    7  A    between atoms: C11_18  and  O2_19 
REMARK       I    between atoms: C16_25  and  N4_27 
ROOT
HETATM    1  C4  UNL     1      15.254 -12.282  21.453  1.00  0.00     0.308 C 
HETATM    2  N2  UNL     1      15.496 -13.748  21.614  1.00  0.00    -0.059 N 
ATOM      3  H21 UNL     1      15.067 -14.148  22.448  1.00  0.00     0.278 HD
ATOM      4  H22 UNL     1      16.459 -13.984  21.852  1.00  0.00     0.278 HD
HETATM    5  C5  UNL     1      15.050 -14.322  20.418  1.00  0.00     0.244 C 
HETATM    6  C6  UNL     1      14.052 -13.340  19.735  1.00  0.00     0.008 C 
HETATM    7  C7  UNL     1      14.671 -12.975  18.458  1.00  0.00     0.019 C 
HETATM    8  C8  UNL     1      12.894 -14.289  19.454  1.00  0.00     0.019 C 
HETATM    9  C9  UNL     1      13.889 -12.364  20.831  1.00  0.00     0.239 C 
ENDROOT
BRANCH   1  10
HETATM   10  C3  UNL     1      16.413 -11.802  20.712  1.00  0.00     0.251 C 
HETATM   11  N1  UNL     1      17.611 -12.385  20.400  1.00  0.00    -0.346 N 
ATOM     12  H1  UNL     1      17.682 -13.351  20.718  1.00  0.00     0.163 HD
HETATM   13  O1  UNL     1      16.287 -10.593  20.258  1.00  0.00    -0.271 OA
BRANCH  11  14
HETATM   14  C2  UNL     1      18.799 -11.923  19.716  1.00  0.00     0.172 C 
HETATM   15  C1  UNL     1      18.838 -12.465  18.271  1.00  0.00     0.042 C 
BRANCH  14  16
HETATM   16  C16 UNL     1      20.025 -12.219  20.433  1.00  0.00     0.242 C 
HETATM   17  O3  UNL     1      20.961 -11.374  20.362  1.00  0.00    -0.271 OA
HETATM   18  N4  UNL     1      20.263 -13.363  21.196  1.00  0.00    -0.347 N 
HETATM   19  C17 UNL     1      21.533 -13.506  21.966  1.00  0.00     0.154 C 
HETATM   20  C24 UNL     1      19.447 -14.547  21.346  1.00  0.00     0.154 C 
HETATM   21  C18 UNL     1      21.150 -13.598  23.416  1.00  0.00     0.257 C 
HETATM   22  N5  UNL     1      20.067 -14.439  23.748  1.00  0.00    -0.064 N 
HETATM   23  C19 UNL     1      20.430 -15.729  24.316  1.00  0.00     0.237 C 
HETATM   24  C22 UNL     1      19.383 -13.825  24.912  1.00  0.00     0.237 C 
HETATM   25  C23 UNL     1      19.041 -14.637  22.783  1.00  0.00     0.257 C 
HETATM   26  C20 UNL     1      19.259 -16.132  25.185  1.00  0.00     0.029 C 
HETATM   27  C21 UNL     1      18.413 -14.893  25.368  1.00  0.00     0.029 C 
ENDBRANCH  14  16
ENDBRANCH  11  14
ENDBRANCH   1  10
BRANCH   9  28
HETATM   28  N3  UNL     1      12.976 -11.327  20.909  1.00  0.00    -0.058 N 
HETATM   29  C12 UNL     1      13.641 -10.398  21.899  1.00  0.00     0.238 C 
HETATM   30  C13 UNL     1      12.916  -9.131  21.918  1.00  0.00     0.029 C 
HETATM   31  C14 UNL     1      12.299  -9.079  20.559  1.00  0.00     0.029 C 
HETATM   32  C15 UNL     1      12.911 -10.300  19.908  1.00  0.00     0.238 C 
BRANCH  28  33
HETATM   33  C10 UNL     1      11.706 -11.566  21.491  1.00  0.00     0.264 C 
BRANCH  33  34
HETATM   34  C11 UNL     1      11.506 -11.948  22.889  1.00  0.00     0.192 C 
BRANCH  34  35
HETATM   35  O2  UNL     1      10.268 -11.914  23.463  1.00  0.00    -0.399 OA
ATOM     36  H2  UNL     1       9.936 -12.649  23.966  1.00  0.00     0.209 HD
ENDBRANCH  34  35
ENDBRANCH  33  34
ENDBRANCH  28  33
ENDBRANCH   9  28
TORSDOF 7
ENDMDL
