MODEL 1
REMARK VINA RESULT: -8.712869350      0.000      0.000
REMARK  5 active torsions:
REMARK  status: ('A' for Active; 'I' for Inactive)
REMARK    1  A    between atoms: C2_2  and  N1_3 
REMARK    2  A    between atoms: C4_5  and  N2_6 
REMARK       I    between atoms: N2_6  and  C5_8 
REMARK    3  A    between atoms: C10_16  and  C11_17 
REMARK    4  A    between atoms: C16_24  and  N4_25 
REMARK       I    between atoms: N4_25  and  C17_27 
REMARK    5  A    between atoms: C17_27  and  C18_29 
ROOT
HETATM    1  N1  UNL     1      19.539 -14.753  23.166  1.00  0.00    -0.028 N 
HETATM    2  C3  UNL     1      18.398 -15.644  22.977  1.00  0.00     0.277 C 
HETATM    3  C4  UNL     1      20.692 -15.599  23.342  1.00  0.00     0.395 C 
HETATM    4  N3  UNL     1      20.810 -16.424  22.186  1.00  0.00    -0.359 N 
ATOM      5  H3  UNL     1      20.967 -17.429  22.267  1.00  0.00     0.162 HD
HETATM    6  C7  UNL     1      20.712 -15.864  21.052  1.00  0.00     0.066 C 
HETATM    7  C8  UNL     1      20.479 -14.376  20.920  1.00  0.00     0.056 C 
HETATM    8  C9  UNL     1      19.849 -14.184  19.585  1.00  0.00     0.032 C 
HETATM    9  C10 UNL     1      19.603 -12.762  19.194  1.00  0.00     0.051 C 
HETATM   10  C12 UNL     1      19.924 -11.767  20.268  1.00  0.00     0.027 C 
HETATM   11  C13 UNL     1      18.663 -11.802  21.101  1.00  0.00     0.011 C 
HETATM   12  C14 UNL     1      18.393 -13.210  21.641  1.00  0.00     0.041 C 
HETATM   13  C15 UNL     1      19.709 -13.832  22.072  1.00  0.00     0.204 C 
HETATM   14  C16 UNL     1      17.626 -11.584  19.989  1.00  0.00     0.089 C 
HETATM   15  C24 UNL     1      18.130 -12.530  18.933  1.00  0.00     0.046 C 
ENDROOT
BRANCH  14  16
HETATM   16  N4  UNL     1      16.302 -11.885  20.444  1.00  0.00    -0.356 N 
HETATM   17  C17 UNL     1      15.372 -10.840  20.630  1.00  0.00     0.222 C 
HETATM   18  O4  UNL     1      15.723  -9.640  20.388  1.00  0.00    -0.273 OA
ATOM     19  H4  UNL     1      16.032 -12.851  20.633  1.00  0.00     0.162 HD
BRANCH  17  20
HETATM   20  C18 UNL     1      13.985 -11.057  21.096  1.00  0.00     0.078 C 
HETATM   21  C19 UNL     1      14.026 -12.191  22.098  1.00  0.00     0.014 C 
HETATM   22  C20 UNL     1      12.626 -12.540  22.491  1.00  0.00     0.001 C 
HETATM   23  C21 UNL     1      11.785 -11.356  22.838  1.00  0.00     0.000 C 
HETATM   24  C22 UNL     1      12.527 -10.056  22.869  1.00  0.00     0.001 C 
HETATM   25  C23 UNL     1      13.360  -9.810  21.652  1.00  0.00     0.014 C 
ENDBRANCH  17  20
ENDBRANCH  14  16
BRANCH   9  26
HETATM   26  C11 UNL     1      20.346 -12.366  17.975  1.00  0.00     0.182 C 
HETATM   27  O2  UNL     1      19.916 -12.604  16.823  1.00  0.00    -0.647 OA
HETATM   28  O3  UNL     1      21.556 -11.711  18.117  1.00  0.00    -0.647 OA
ENDBRANCH   9  26
BRANCH   1  29
HETATM   29  C2  UNL     1      19.310 -14.059  24.413  1.00  0.00     0.238 C 
HETATM   30  C1  UNL     1      20.364 -13.097  24.802  1.00  0.00     0.035 C 
ENDBRANCH   1  29
BRANCH   3  31
HETATM   31  N2  UNL     1      20.492 -16.419  24.517  1.00  0.00    -0.317 N 
HETATM   32  C5  UNL     1      21.515 -17.267  24.986  1.00  0.00     0.216 C 
HETATM   33  C6  UNL     1      21.293 -18.096  26.186  1.00  0.00     0.117 C 
HETATM   34  O1  UNL     1      22.617 -17.326  24.398  1.00  0.00    -0.274 OA
ATOM     35  H2  UNL     1      19.600 -16.384  25.011  1.00  0.00     0.166 HD
ENDBRANCH   3  31
TORSDOF 5
ENDMDL
MODEL 2
REMARK VINA RESULT: -8.243112450      4.104      7.399
REMARK  5 active torsions:
REMARK  status: ('A' for Active; 'I' for Inactive)
REMARK    1  A    between atoms: C2_2  and  N1_3 
REMARK    2  A    between atoms: C4_5  and  N2_6 
REMARK       I    between atoms: N2_6  and  C5_8 
REMARK    3  A    between atoms: C10_16  and  C11_17 
REMARK    4  A    between atoms: C16_24  and  N4_25 
REMARK       I    between atoms: N4_25  and  C17_27 
REMARK    5  A    between atoms: C17_27  and  C18_29 
ROOT
HETATM    1  N1  UNL     1      14.662 -16.657  20.313  1.00  0.00    -0.028 N 
HETATM    2  C3  UNL     1      14.677 -16.892  21.753  1.00  0.00     0.277 C 
HETATM    3  C4  UNL     1      13.372 -17.089  19.840  1.00  0.00     0.395 C 
HETATM    4  N3  UNL     1      12.378 -16.343  20.540  1.00  0.00    -0.359 N 
ATOM      5  H3  UNL     1      11.570 -16.802  20.959  1.00  0.00     0.162 HD
HETATM    6  C7  UNL     1      12.537 -15.087  20.623  1.00  0.00     0.066 C 
HETATM    7  C8  UNL     1      13.732 -14.396  20.006  1.00  0.00     0.056 C 
HETATM    8  C9  UNL     1      13.901 -13.128  20.766  1.00  0.00     0.032 C 
HETATM    9  C10 UNL     1      14.985 -12.226  20.270  1.00  0.00     0.051 C 
HETATM   10  C12 UNL     1      15.804 -12.806  19.158  1.00  0.00     0.027 C 
HETATM   11  C13 UNL     1      16.797 -13.653  19.921  1.00  0.00     0.011 C 
HETATM   12  C14 UNL     1      16.087 -14.713  20.769  1.00  0.00     0.041 C 
HETATM   13  C15 UNL     1      14.927 -15.283  19.973  1.00  0.00     0.204 C 
HETATM   14  C16 UNL     1      17.301 -12.599  20.921  1.00  0.00     0.089 C 
HETATM   15  C24 UNL     1      16.005 -11.972  21.360  1.00  0.00     0.046 C 
ENDROOT
BRANCH  14  16
HETATM   16  N4  UNL     1      18.036 -13.205  21.991  1.00  0.00    -0.356 N 
HETATM   17  C17 UNL     1      19.447 -13.190  21.965  1.00  0.00     0.222 C 
HETATM   18  O4  UNL     1      20.050 -12.636  20.989  1.00  0.00    -0.273 OA
ATOM     19  H4  UNL     1      17.542 -13.645  22.767  1.00  0.00     0.162 HD
BRANCH  17  20
HETATM   20  C18 UNL     1      20.287 -13.790  23.025  1.00  0.00     0.078 C 
HETATM   21  C19 UNL     1      21.730 -13.527  22.650  1.00  0.00     0.014 C 
HETATM   22  C20 UNL     1      22.618 -14.239  23.619  1.00  0.00     0.001 C 
HETATM   23  C21 UNL     1      22.239 -14.032  25.048  1.00  0.00     0.000 C 
HETATM   24  C22 UNL     1      21.134 -13.043  25.259  1.00  0.00     0.001 C 
HETATM   25  C23 UNL     1      19.939 -13.283  24.395  1.00  0.00     0.014 C 
ENDBRANCH  17  20
ENDBRANCH  14  16
BRANCH   9  26
HETATM   26  C11 UNL     1      14.473 -10.912  19.816  1.00  0.00     0.182 C 
HETATM   27  O2  UNL     1      13.765 -10.788  18.791  1.00  0.00    -0.647 OA
HETATM   28  O3  UNL     1      14.792  -9.784  20.551  1.00  0.00    -0.647 OA
ENDBRANCH   9  26
BRANCH   1  29
HETATM   29  C2  UNL     1      15.655 -17.544  19.747  1.00  0.00     0.238 C 
HETATM   30  C1  UNL     1      15.970 -17.311  18.321  1.00  0.00     0.035 C 
ENDBRANCH   1  29
BRANCH   3  31
HETATM   31  N2  UNL     1      13.221 -18.500  20.124  1.00  0.00    -0.317 N 
HETATM   32  C5  UNL     1      12.023 -19.173  19.814  1.00  0.00     0.216 C 
HETATM   33  C6  UNL     1      11.887 -20.612  20.110  1.00  0.00     0.117 C 
HETATM   34  O1  UNL     1      11.066 -18.565  19.287  1.00  0.00    -0.274 OA
ATOM     35  H2  UNL     1      13.991 -19.013  20.553  1.00  0.00     0.166 HD
ENDBRANCH   3  31
TORSDOF 5
ENDMDL
MODEL 3
REMARK VINA RESULT: -8.198152314      3.892      7.647
REMARK  5 active torsions:
REMARK  status: ('A' for Active; 'I' for Inactive)
REMARK    1  A    between atoms: C2_2  and  N1_3 
REMARK    2  A    between atoms: C4_5  and  N2_6 
REMARK       I    between atoms: N2_6  and  C5_8 
REMARK    3  A    between atoms: C10_16  and  C11_17 
REMARK    4  A    between atoms: C16_24  and  N4_25 
REMARK       I    between atoms: N4_25  and  C17_27 
REMARK    5  A    between atoms: C17_27  and  C18_29 
ROOT
HETATM    1  N1  UNL     1      14.201 -15.582  19.366  1.00  0.00    -0.028 N 
HETATM    2  C3  UNL     1      14.637 -16.083  20.666  1.00  0.00     0.277 C 
HETATM    3  C4  UNL     1      12.910 -16.169  19.113  1.00  0.00     0.395 C 
HETATM    4  N3  UNL     1      12.042 -15.791  20.179  1.00  0.00    -0.359 N 
ATOM      5  H3  UNL     1      11.453 -16.477  20.650  1.00  0.00     0.162 HD
HETATM    6  C7  UNL     1      12.029 -14.569  20.521  1.00  0.00     0.066 C 
HETATM    7  C8  UNL     1      12.898 -13.543  19.830  1.00  0.00     0.056 C 
HETATM    8  C9  UNL     1      13.075 -12.438  20.812  1.00  0.00     0.032 C 
HETATM    9  C10 UNL     1      13.839 -11.255  20.311  1.00  0.00     0.051 C 
HETATM   10  C12 UNL     1      14.406 -11.430  18.935  1.00  0.00     0.027 C 
HETATM   11  C13 UNL     1      15.682 -12.187  19.226  1.00  0.00     0.011 C 
HETATM   12  C14 UNL     1      15.392 -13.513  19.934  1.00  0.00     0.041 C 
HETATM   13  C15 UNL     1      14.158 -14.143  19.313  1.00  0.00     0.204 C 
HETATM   14  C16 UNL     1      16.274 -11.267  20.305  1.00  0.00     0.089 C 
HETATM   15  C24 UNL     1      15.066 -11.014  21.165  1.00  0.00     0.046 C 
ENDROOT
BRANCH  14  16
HETATM   16  N4  UNL     1      17.351 -11.905  21.001  1.00  0.00    -0.356 N 
HETATM   17  C17 UNL     1      18.604 -12.048  20.369  1.00  0.00     0.222 C 
HETATM   18  O4  UNL     1      18.762 -11.606  19.184  1.00  0.00    -0.273 OA
ATOM     19  H4  UNL     1      17.213 -12.254  21.949  1.00  0.00     0.162 HD
BRANCH  17  20
HETATM   20  C18 UNL     1      19.771 -12.693  21.010  1.00  0.00     0.078 C 
HETATM   21  C19 UNL     1      19.330 -13.141  22.387  1.00  0.00     0.014 C 
HETATM   22  C20 UNL     1      20.517 -13.671  23.125  1.00  0.00     0.001 C 
HETATM   23  C21 UNL     1      21.342 -14.629  22.331  1.00  0.00     0.000 C 
HETATM   24  C22 UNL     1      20.760 -14.993  21.001  1.00  0.00     0.001 C 
HETATM   25  C23 UNL     1      20.337 -13.814  20.186  1.00  0.00     0.014 C 
ENDBRANCH  17  20
ENDBRANCH  14  16
BRANCH   9  26
HETATM   26  C11 UNL     1      13.036 -10.010  20.313  1.00  0.00     0.182 C 
HETATM   27  O2  UNL     1      13.255  -9.072  19.514  1.00  0.00    -0.647 OA
HETATM   28  O3  UNL     1      12.008  -9.884  21.231  1.00  0.00    -0.647 OA
ENDBRANCH   9  26
BRANCH   1  29
HETATM   29  C2  UNL     1      15.125 -16.121  18.393  1.00  0.00     0.238 C 
HETATM   30  C1  UNL     1      16.318 -16.789  18.959  1.00  0.00     0.035 C 
ENDBRANCH   1  29
BRANCH   3  31
HETATM   31  N2  UNL     1      13.052 -17.608  19.078  1.00  0.00    -0.317 N 
HETATM   32  C5  UNL     1      11.942 -18.435  18.817  1.00  0.00     0.216 C 
HETATM   33  C6  UNL     1      12.105 -19.901  18.785  1.00  0.00     0.117 C 
HETATM   34  O1  UNL     1      10.812 -17.942  18.610  1.00  0.00    -0.274 OA
ATOM     35  H2  UNL     1      13.966 -18.029  19.244  1.00  0.00     0.166 HD
ENDBRANCH   3  31
TORSDOF 5
ENDMDL
MODEL 4
REMARK VINA RESULT: -8.144839418      3.009      3.917
REMARK  5 active torsions:
REMARK  status: ('A' for Active; 'I' for Inactive)
REMARK    1  A    between atoms: C2_2  and  N1_3 
REMARK    2  A    between atoms: C4_5  and  N2_6 
REMARK       I    between atoms: N2_6  and  C5_8 
REMARK    3  A    between atoms: C10_16  and  C11_17 
REMARK    4  A    between atoms: C16_24  and  N4_25 
REMARK       I    between atoms: N4_25  and  C17_27 
REMARK    5  A    between atoms: C17_27  and  C18_29 
ROOT
HETATM    1  N1  UNL     1      19.541 -13.894  21.693  1.00  0.00    -0.028 N 
HETATM    2  C3  UNL     1      18.935 -13.494  22.959  1.00  0.00     0.277 C 
HETATM    3  C4  UNL     1      20.707 -14.672  22.027  1.00  0.00     0.395 C 
HETATM    4  N3  UNL     1      20.283 -15.778  22.820  1.00  0.00    -0.359 N 
ATOM      5  H3  UNL     1      20.766 -16.027  23.682  1.00  0.00     0.162 HD
HETATM    6  C7  UNL     1      19.281 -16.442  22.412  1.00  0.00     0.066 C 
HETATM    7  C8  UNL     1      18.557 -16.082  21.134  1.00  0.00     0.056 C 
HETATM    8  C9  UNL     1      17.182 -16.634  21.282  1.00  0.00     0.032 C 
HETATM    9  C10 UNL     1      16.298 -16.472  20.087  1.00  0.00     0.051 C 
HETATM   10  C12 UNL     1      16.909 -15.671  18.977  1.00  0.00     0.027 C 
HETATM   11  C13 UNL     1      16.627 -14.257  19.432  1.00  0.00     0.011 C 
HETATM   12  C14 UNL     1      17.258 -13.977  20.800  1.00  0.00     0.041 C 
HETATM   13  C15 UNL     1      18.631 -14.623  20.849  1.00  0.00     0.204 C 
HETATM   14  C16 UNL     1      15.118 -14.379  19.695  1.00  0.00     0.089 C 
HETATM   15  C24 UNL     1      15.058 -15.681  20.447  1.00  0.00     0.046 C 
ENDROOT
BRANCH  14  16
HETATM   16  N4  UNL     1      14.627 -13.261  20.444  1.00  0.00    -0.356 N 
HETATM   17  C17 UNL     1      13.296 -12.830  20.264  1.00  0.00     0.222 C 
HETATM   18  O4  UNL     1      12.545 -13.442  19.436  1.00  0.00    -0.273 OA
ATOM     19  H4  UNL     1      15.237 -12.780  21.105  1.00  0.00     0.162 HD
BRANCH  17  20
HETATM   20  C18 UNL     1      12.704 -11.687  20.994  1.00  0.00     0.078 C 
HETATM   21  C19 UNL     1      12.706 -12.049  22.464  1.00  0.00     0.014 C 
HETATM   22  C20 UNL     1      11.988 -10.982  23.225  1.00  0.00     0.001 C 
HETATM   23  C21 UNL     1      12.412  -9.596  22.866  1.00  0.00     0.000 C 
HETATM   24  C22 UNL     1      13.570  -9.528  21.920  1.00  0.00     0.001 C 
HETATM   25  C23 UNL     1      13.412 -10.392  20.711  1.00  0.00     0.014 C 
ENDBRANCH  17  20
ENDBRANCH  14  16
BRANCH   9  26
HETATM   26  C11 UNL     1      15.859 -17.768  19.519  1.00  0.00     0.182 C 
HETATM   27  O2  UNL     1      16.658 -18.566  18.978  1.00  0.00    -0.647 OA
HETATM   28  O3  UNL     1      14.519 -18.105  19.591  1.00  0.00    -0.647 OA
ENDBRANCH   9  26
BRANCH   1  29
HETATM   29  C2  UNL     1      19.994 -12.677  21.058  1.00  0.00     0.238 C 
HETATM   30  C1  UNL     1      20.540 -12.843  19.693  1.00  0.00     0.035 C 
ENDBRANCH   1  29
BRANCH   3  31
HETATM   31  N2  UNL     1      21.619 -13.842  22.784  1.00  0.00    -0.317 N 
HETATM   32  C5  UNL     1      22.778 -14.392  23.366  1.00  0.00     0.216 C 
HETATM   33  C6  UNL     1      23.697 -13.531  24.135  1.00  0.00     0.117 C 
HETATM   34  O1  UNL     1      23.044 -15.607  23.239  1.00  0.00    -0.274 OA
ATOM     35  H2  UNL     1      21.420 -12.848  22.898  1.00  0.00     0.166 HD
ENDBRANCH   3  31
TORSDOF 5
ENDMDL
MODEL 5
REMARK VINA RESULT: -8.082511933      3.101      3.885
REMARK  5 active torsions:
REMARK  status: ('A' for Active; 'I' for Inactive)
REMARK    1  A    between atoms: C2_2  and  N1_3 
REMARK    2  A    between atoms: C4_5  and  N2_6 
REMARK       I    between atoms: N2_6  and  C5_8 
REMARK    3  A    between atoms: C10_16  and  C11_17 
REMARK    4  A    between atoms: C16_24  and  N4_25 
REMARK       I    between atoms: N4_25  and  C17_27 
REMARK    5  A    between atoms: C17_27  and  C18_29 
ROOT
HETATM    1  N1  UNL     1      19.138 -14.146  21.844  1.00  0.00    -0.028 N 
HETATM    2  C3  UNL     1      18.990 -15.573  21.573  1.00  0.00     0.277 C 
HETATM    3  C4  UNL     1      20.553 -13.891  21.930  1.00  0.00     0.395 C 
HETATM    4  N3  UNL     1      21.145 -14.291  20.696  1.00  0.00    -0.359 N 
ATOM      5  H3  UNL     1      21.988 -14.865  20.676  1.00  0.00     0.162 HD
HETATM    6  C7  UNL     1      20.585 -13.908  19.624  1.00  0.00     0.066 C 
HETATM    7  C8  UNL     1      19.335 -13.057  19.643  1.00  0.00     0.056 C 
HETATM    8  C9  UNL     1      18.664 -13.299  18.337  1.00  0.00     0.032 C 
HETATM    9  C10 UNL     1      17.433 -12.486  18.091  1.00  0.00     0.051 C 
HETATM   10  C12 UNL     1      17.013 -11.645  19.258  1.00  0.00     0.027 C 
HETATM   11  C13 UNL     1      16.240 -12.643  20.090  1.00  0.00     0.011 C 
HETATM   12  C14 UNL     1      17.119 -13.833  20.487  1.00  0.00     0.041 C 
HETATM   13  C15 UNL     1      18.502 -13.324  20.847  1.00  0.00     0.204 C 
HETATM   14  C16 UNL     1      15.288 -13.180  19.009  1.00  0.00     0.089 C 
HETATM   15  C24 UNL     1      16.239 -13.387  17.861  1.00  0.00     0.046 C 
ENDROOT
BRANCH  14  16
HETATM   16  N4  UNL     1      14.636 -14.381  19.438  1.00  0.00    -0.356 N 
HETATM   17  C17 UNL     1      13.241 -14.382  19.648  1.00  0.00     0.222 C 
HETATM   18  O4  UNL     1      12.577 -13.312  19.452  1.00  0.00    -0.273 OA
ATOM     19  H4  UNL     1      15.178 -15.231  19.591  1.00  0.00     0.162 HD
BRANCH  17  20
HETATM   20  C18 UNL     1      12.485 -15.574  20.091  1.00  0.00     0.078 C 
HETATM   21  C19 UNL     1      11.722 -16.088  18.888  1.00  0.00     0.014 C 
HETATM   22  C20 UNL     1      10.833 -17.209  19.323  1.00  0.00     0.001 C 
HETATM   23  C21 UNL     1      11.517 -18.223  20.177  1.00  0.00     0.000 C 
HETATM   24  C22 UNL     1      12.991 -18.015  20.328  1.00  0.00     0.001 C 
HETATM   25  C23 UNL     1      13.366 -16.620  20.712  1.00  0.00     0.014 C 
ENDBRANCH  17  20
ENDBRANCH  14  16
BRANCH   9  26
HETATM   26  C11 UNL     1      17.561 -11.595  16.915  1.00  0.00     0.182 C 
HETATM   27  O2  UNL     1      16.743 -10.677  16.680  1.00  0.00    -0.647 OA
HETATM   28  O3  UNL     1      18.621 -11.787  16.047  1.00  0.00    -0.647 OA
ENDBRANCH   9  26
BRANCH   1  29
HETATM   29  C2  UNL     1      18.572 -13.922  23.156  1.00  0.00     0.238 C 
HETATM   30  C1  UNL     1      18.111 -15.138  23.860  1.00  0.00     0.035 C 
ENDBRANCH   1  29
BRANCH   3  31
HETATM   31  N2  UNL     1      21.102 -14.672  23.018  1.00  0.00    -0.317 N 
HETATM   32  C5  UNL     1      22.434 -14.488  23.436  1.00  0.00     0.216 C 
HETATM   33  C6  UNL     1      22.976 -15.293  24.547  1.00  0.00     0.117 C 
HETATM   34  O1  UNL     1      23.170 -13.645  22.877  1.00  0.00    -0.274 OA
ATOM     35  H2  UNL     1      20.517 -15.363  23.487  1.00  0.00     0.166 HD
ENDBRANCH   3  31
TORSDOF 5
ENDMDL
