MODEL 1
REMARK VINA RESULT: -6.906104337      0.000      0.000
REMARK  6 active torsions:
REMARK  status: ('A' for Active; 'I' for Inactive)
REMARK    1  A    between atoms: C1_4  and  C2_5 
REMARK    2  A    between atoms: C4_11  and  C5_12 
REMARK    3  A    between atoms: C7_17  and  C8_18 
REMARK    4  A    between atoms: C8_18  and  O2_19 
REMARK    5  A    between atoms: C8_18  and  N5_21 
REMARK    6  A    between atoms: N5_21  and  N6_23 
ROOT
HETATM    1  C2  UNL     1      17.511  36.867  -7.376  1.00  0.00     0.034 A 
HETATM    2  S1  UNL     1      18.983  37.408  -8.122  1.00  0.00    -0.070 SA
HETATM    3  C3  UNL     1      19.352  36.610  -9.568  1.00  0.00     0.085 A 
HETATM    4  N2  UNL     1      20.415  36.873 -10.280  1.00  0.00    -0.393 N 
ATOM      5  H21 UNL     1      20.637  36.391 -11.152  1.00  0.00     0.156 HD
ATOM      6  H22 UNL     1      21.088  37.585  -9.997  1.00  0.00     0.156 HD
HETATM    7  C4  UNL     1      18.443  35.649  -9.950  1.00  0.00     0.087 A 
HETATM    8  C6  UNL     1      17.303  35.316  -9.255  1.00  0.00     0.076 A 
HETATM    9  N4  UNL     1      16.534  34.253  -9.844  1.00  0.00    -0.101 NA
HETATM   10  C7  UNL     1      16.870  35.877  -8.064  1.00  0.00     0.035 A 
ENDROOT
BRANCH  10  11
HETATM   11  C8  UNL     1      15.631  35.296  -7.465  1.00  0.00     0.271 C 
BRANCH  11  12
HETATM   12  O2  UNL     1      15.894  33.976  -7.042  1.00  0.00    -0.371 OA
ATOM     13  H2  UNL     1      15.130  33.632  -6.596  1.00  0.00     0.212 HD
ENDBRANCH  11  12
BRANCH  11  14
HETATM   14  N5  UNL     1      14.446  35.434  -8.215  1.00  0.00    -0.297 N 
ATOM     15  H5  UNL     1      14.087  36.380  -8.340  1.00  0.00     0.184 HD
BRANCH  14  16
HETATM   16  N6  UNL     1      13.718  34.402  -8.803  1.00  0.00    -0.265 N 
HETATM   17  S2  UNL     1      12.276  33.979  -8.188  1.00  0.00     0.059 SA
ATOM     18  H6  UNL     1      14.090  33.913  -9.617  1.00  0.00     0.196 HD
ENDBRANCH  14  16
ENDBRANCH  11  14
ENDBRANCH  10  11
BRANCH   1  19
HETATM   19  C1  UNL     1      17.126  37.548  -6.178  1.00  0.00     0.100 C 
HETATM   20  N1  UNL     1      17.774  37.715  -5.102  1.00  0.00    -0.407 N 
ATOM     21  H12 UNL     1      18.704  37.296  -5.108  1.00  0.00     0.155 HD
ATOM     22  H11 UNL     1      17.499  38.200  -4.248  1.00  0.00     0.155 HD
ENDBRANCH   1  19
BRANCH   7  23
HETATM   23  C5  UNL     1      18.774  34.957 -11.226  1.00  0.00     0.269 C 
HETATM   24  N3  UNL     1      18.157  35.279 -12.440  1.00  0.00    -0.057 NA
HETATM   25  O1  UNL     1      19.639  34.047 -11.221  1.00  0.00    -0.271 OA
ENDBRANCH   7  23
TORSDOF 6
ENDMDL
MODEL 2
REMARK VINA RESULT: -6.831106627      2.276      4.407
REMARK  6 active torsions:
REMARK  status: ('A' for Active; 'I' for Inactive)
REMARK    1  A    between atoms: C1_4  and  C2_5 
REMARK    2  A    between atoms: C4_11  and  C5_12 
REMARK    3  A    between atoms: C7_17  and  C8_18 
REMARK    4  A    between atoms: C8_18  and  O2_19 
REMARK    5  A    between atoms: C8_18  and  N5_21 
REMARK    6  A    between atoms: N5_21  and  N6_23 
ROOT
HETATM    1  C2  UNL     1      18.251  35.204 -10.215  1.00  0.00     0.034 A 
HETATM    2  S1  UNL     1      19.209  36.619  -9.904  1.00  0.00    -0.070 SA
HETATM    3  C3  UNL     1      18.666  37.540  -8.593  1.00  0.00     0.085 A 
HETATM    4  N2  UNL     1      19.250  38.639  -8.199  1.00  0.00    -0.393 N 
ATOM      5  H21 UNL     1      18.922  39.195  -7.408  1.00  0.00     0.156 HD
ATOM      6  H22 UNL     1      20.079  39.005  -8.668  1.00  0.00     0.156 HD
HETATM    7  C4  UNL     1      17.547  37.046  -7.959  1.00  0.00     0.087 A 
HETATM    8  C6  UNL     1      16.877  35.898  -8.315  1.00  0.00     0.076 A 
HETATM    9  N4  UNL     1      15.715  35.614  -7.517  1.00  0.00    -0.101 NA
HETATM   10  C7  UNL     1      17.200  35.045  -9.357  1.00  0.00     0.035 A 
ENDROOT
BRANCH  10  11
HETATM   11  C8  UNL     1      16.275  33.895  -9.589  1.00  0.00     0.271 C 
BRANCH  11  12
HETATM   12  O2  UNL     1      15.001  34.387  -9.943  1.00  0.00    -0.371 OA
ATOM     13  H2  UNL     1      14.334  33.881  -9.495  1.00  0.00     0.212 HD
ENDBRANCH  11  12
BRANCH  11  14
HETATM   14  N5  UNL     1      16.249  32.899  -8.592  1.00  0.00    -0.297 N 
ATOM     15  H5  UNL     1      16.008  33.197  -7.648  1.00  0.00     0.184 HD
BRANCH  14  16
HETATM   16  N6  UNL     1      16.522  31.545  -8.774  1.00  0.00    -0.265 N 
HETATM   17  S2  UNL     1      15.392  30.571  -9.411  1.00  0.00     0.059 SA
ATOM     18  H6  UNL     1      17.431  31.166  -8.506  1.00  0.00     0.196 HD
ENDBRANCH  14  16
ENDBRANCH  11  14
ENDBRANCH  10  11
BRANCH   1  19
HETATM   19  C1  UNL     1      18.701  34.362 -11.281  1.00  0.00     0.100 C 
HETATM   20  N1  UNL     1      19.178  34.678 -12.411  1.00  0.00    -0.407 N 
ATOM     21  H12 UNL     1      19.245  35.684 -12.567  1.00  0.00     0.155 HD
ATOM     22  H11 UNL     1      19.498  34.077 -13.170  1.00  0.00     0.155 HD
ENDBRANCH   1  19
BRANCH   7  23
HETATM   23  C5  UNL     1      17.080  37.861  -6.804  1.00  0.00     0.269 C 
HETATM   24  N3  UNL     1      17.248  37.452  -5.476  1.00  0.00    -0.057 NA
HETATM   25  O1  UNL     1      16.513  38.960  -7.020  1.00  0.00    -0.271 OA
ENDBRANCH   7  23
TORSDOF 6
ENDMDL
MODEL 3
REMARK VINA RESULT: -6.721415927      2.938      6.174
REMARK  6 active torsions:
REMARK  status: ('A' for Active; 'I' for Inactive)
REMARK    1  A    between atoms: C1_4  and  C2_5 
REMARK    2  A    between atoms: C4_11  and  C5_12 
REMARK    3  A    between atoms: C7_17  and  C8_18 
REMARK    4  A    between atoms: C8_18  and  O2_19 
REMARK    5  A    between atoms: C8_18  and  N5_21 
REMARK    6  A    between atoms: N5_21  and  N6_23 
ROOT
HETATM    1  C2  UNL     1      15.792  34.060  -8.948  1.00  0.00     0.034 A 
HETATM    2  S1  UNL     1      14.939  32.653  -9.504  1.00  0.00    -0.070 SA
HETATM    3  C3  UNL     1      13.378  32.503  -8.870  1.00  0.00     0.085 A 
HETATM    4  N2  UNL     1      12.576  31.515  -9.166  1.00  0.00    -0.393 N 
ATOM      5  H21 UNL     1      11.635  31.425  -8.783  1.00  0.00     0.156 HD
ATOM      6  H22 UNL     1      12.855  30.771  -9.805  1.00  0.00     0.156 HD
HETATM    7  C4  UNL     1      13.001  33.508  -8.007  1.00  0.00     0.087 A 
HETATM    8  C6  UNL     1      13.787  34.579  -7.647  1.00  0.00     0.076 A 
HETATM    9  N4  UNL     1      13.178  35.474  -6.701  1.00  0.00    -0.101 NA
HETATM   10  C7  UNL     1      15.078  34.837  -8.079  1.00  0.00     0.035 A 
ENDROOT
BRANCH  10  11
HETATM   11  C8  UNL     1      15.753  36.031  -7.489  1.00  0.00     0.271 C 
BRANCH  11  12
HETATM   12  O2  UNL     1      15.980  36.986  -8.503  1.00  0.00    -0.371 OA
ATOM     13  H2  UNL     1      16.776  37.466  -8.309  1.00  0.00     0.212 HD
ENDBRANCH  11  12
BRANCH  11  14
HETATM   14  N5  UNL     1      16.875  35.780  -6.674  1.00  0.00    -0.297 N 
ATOM     15  H5  UNL     1      16.976  34.834  -6.309  1.00  0.00     0.184 HD
BRANCH  14  16
HETATM   16  N6  UNL     1      17.859  36.700  -6.321  1.00  0.00    -0.265 N 
HETATM   17  S2  UNL     1      17.474  37.983  -5.406  1.00  0.00     0.059 SA
ATOM     18  H6  UNL     1      18.820  36.567  -6.637  1.00  0.00     0.196 HD
ENDBRANCH  14  16
ENDBRANCH  11  14
ENDBRANCH  10  11
BRANCH   1  19
HETATM   19  C1  UNL     1      17.098  34.262  -9.496  1.00  0.00     0.100 C 
HETATM   20  N1  UNL     1      17.460  34.990 -10.468  1.00  0.00    -0.407 N 
ATOM     21  H12 UNL     1      16.696  35.499 -10.912  1.00  0.00     0.155 HD
ATOM     22  H11 UNL     1      18.391  35.134 -10.858  1.00  0.00     0.155 HD
ENDBRANCH   1  19
BRANCH   7  23
HETATM   23  C5  UNL     1      11.624  33.369  -7.459  1.00  0.00     0.269 C 
HETATM   24  N3  UNL     1      11.336  32.593  -6.330  1.00  0.00    -0.057 NA
HETATM   25  O1  UNL     1      10.677  33.968  -8.025  1.00  0.00    -0.271 OA
ENDBRANCH   7  23
TORSDOF 6
ENDMDL
MODEL 4
REMARK VINA RESULT: -6.566179568      2.624      5.302
REMARK  6 active torsions:
REMARK  status: ('A' for Active; 'I' for Inactive)
REMARK    1  A    between atoms: C1_4  and  C2_5 
REMARK    2  A    between atoms: C4_11  and  C5_12 
REMARK    3  A    between atoms: C7_17  and  C8_18 
REMARK    4  A    between atoms: C8_18  and  O2_19 
REMARK    5  A    between atoms: C8_18  and  N5_21 
REMARK    6  A    between atoms: N5_21  and  N6_23 
ROOT
HETATM    1  C2  UNL     1      17.111  35.285  -9.310  1.00  0.00     0.034 A 
HETATM    2  S1  UNL     1      16.660  33.842 -10.165  1.00  0.00    -0.070 SA
HETATM    3  C3  UNL     1      15.167  33.203  -9.691  1.00  0.00     0.085 A 
HETATM    4  N2  UNL     1      14.651  32.124 -10.214  1.00  0.00    -0.393 N 
ATOM      5  H21 UNL     1      13.750  31.739  -9.928  1.00  0.00     0.156 HD
ATOM      6  H22 UNL     1      15.129  31.601 -10.949  1.00  0.00     0.156 HD
HETATM    7  C4  UNL     1      14.520  33.908  -8.700  1.00  0.00     0.087 A 
HETATM    8  C6  UNL     1      14.998  35.051  -8.101  1.00  0.00     0.076 A 
HETATM    9  N4  UNL     1      14.152  35.581  -7.066  1.00  0.00    -0.101 NA
HETATM   10  C7  UNL     1      16.196  35.690  -8.381  1.00  0.00     0.035 A 
ENDROOT
BRANCH  10  11
HETATM   11  C8  UNL     1      16.528  36.881  -7.543  1.00  0.00     0.271 C 
BRANCH  11  12
HETATM   12  O2  UNL     1      16.214  38.056  -8.259  1.00  0.00    -0.371 OA
ATOM     13  H2  UNL     1      15.932  38.728  -7.650  1.00  0.00     0.212 HD
ENDBRANCH  11  12
BRANCH  11  14
HETATM   14  N5  UNL     1      17.805  36.894  -6.948  1.00  0.00    -0.297 N 
ATOM     15  H5  UNL     1      18.605  36.783  -7.571  1.00  0.00     0.184 HD
BRANCH  14  16
HETATM   16  N6  UNL     1      18.081  37.045  -5.591  1.00  0.00    -0.265 N 
HETATM   17  S2  UNL     1      17.590  38.380  -4.810  1.00  0.00     0.059 SA
ATOM     18  H6  UNL     1      18.591  36.318  -5.089  1.00  0.00     0.196 HD
ENDBRANCH  14  16
ENDBRANCH  11  14
ENDBRANCH  10  11
BRANCH   1  19
HETATM   19  C1  UNL     1      18.342  35.895  -9.711  1.00  0.00     0.100 C 
HETATM   20  N1  UNL     1      19.174  35.527 -10.592  1.00  0.00    -0.407 N 
ATOM     21  H12 UNL     1      18.913  34.668 -11.077  1.00  0.00     0.155 HD
ATOM     22  H11 UNL     1      20.051  35.962 -10.878  1.00  0.00     0.155 HD
ENDBRANCH   1  19
BRANCH   7  23
HETATM   23  C5  UNL     1      13.205  33.341  -8.294  1.00  0.00     0.269 C 
HETATM   24  N3  UNL     1      13.085  32.325  -7.339  1.00  0.00    -0.057 NA
HETATM   25  O1  UNL     1      12.157  33.786  -8.824  1.00  0.00    -0.271 OA
ENDBRANCH   7  23
TORSDOF 6
ENDMDL
MODEL 5
REMARK VINA RESULT: -6.491588140      2.694      5.123
REMARK  6 active torsions:
REMARK  status: ('A' for Active; 'I' for Inactive)
REMARK    1  A    between atoms: C1_4  and  C2_5 
REMARK    2  A    between atoms: C4_11  and  C5_12 
REMARK    3  A    between atoms: C7_17  and  C8_18 
REMARK    4  A    between atoms: C8_18  and  O2_19 
REMARK    5  A    between atoms: C8_18  and  N5_21 
REMARK    6  A    between atoms: N5_21  and  N6_23 
ROOT
HETATM    1  C2  UNL     1      16.669  34.722  -9.768  1.00  0.00     0.034 A 
HETATM    2  S1  UNL     1      16.093  35.456  -8.304  1.00  0.00    -0.070 SA
HETATM    3  C3  UNL     1      17.113  36.660  -7.693  1.00  0.00     0.085 A 
HETATM    4  N2  UNL     1      16.857  37.330  -6.602  1.00  0.00    -0.393 N 
ATOM      5  H21 UNL     1      17.473  38.056  -6.234  1.00  0.00     0.156 HD
ATOM      6  H22 UNL     1      16.014  37.161  -6.053  1.00  0.00     0.156 HD
HETATM    7  C4  UNL     1      18.251  36.889  -8.434  1.00  0.00     0.087 A 
HETATM    8  C6  UNL     1      18.590  36.225  -9.591  1.00  0.00     0.076 A 
HETATM    9  N4  UNL     1      19.850  36.623 -10.159  1.00  0.00    -0.101 NA
HETATM   10  C7  UNL     1      17.861  35.223 -10.210  1.00  0.00     0.035 A 
ENDROOT
BRANCH  10  11
HETATM   11  C8  UNL     1      18.475  34.605 -11.424  1.00  0.00     0.271 C 
BRANCH  11  12
HETATM   12  O2  UNL     1      19.628  33.885 -11.048  1.00  0.00    -0.371 OA
ATOM     13  H2  UNL     1      19.553  32.990 -11.355  1.00  0.00     0.212 HD
ENDBRANCH  11  12
BRANCH  11  14
HETATM   14  N5  UNL     1      18.663  35.453 -12.533  1.00  0.00    -0.297 N 
ATOM     15  H5  UNL     1      19.583  35.881 -12.636  1.00  0.00     0.184 HD
BRANCH  14  16
HETATM   16  N6  UNL     1      17.713  35.765 -13.503  1.00  0.00    -0.265 N 
HETATM   17  S2  UNL     1      18.062  35.554 -15.074  1.00  0.00     0.059 SA
ATOM     18  H6  UNL     1      16.799  36.125 -13.226  1.00  0.00     0.196 HD
ENDBRANCH  14  16
ENDBRANCH  11  14
ENDBRANCH  10  11
BRANCH   1  19
HETATM   19  C1  UNL     1      15.816  33.735 -10.355  1.00  0.00     0.100 C 
HETATM   20  N1  UNL     1      14.886  33.056  -9.827  1.00  0.00    -0.407 N 
ATOM     21  H12 UNL     1      14.737  33.256  -8.837  1.00  0.00     0.155 HD
ATOM     22  H11 UNL     1      14.278  32.353 -10.245  1.00  0.00     0.155 HD
ENDBRANCH   1  19
BRANCH   7  23
HETATM   23  C5  UNL     1      19.140  37.953  -7.891  1.00  0.00     0.269 C 
HETATM   24  N3  UNL     1      18.895  39.316  -8.095  1.00  0.00    -0.057 NA
HETATM   25  O1  UNL     1      20.150  37.624  -7.222  1.00  0.00    -0.271 OA
ENDBRANCH   7  23
TORSDOF 6
ENDMDL
