MODEL 1
REMARK VINA RESULT: -7.627690165      0.000      0.000
REMARK  16 active torsions:
REMARK  status: ('A' for Active; 'I' for Inactive)
REMARK    1  A    between atoms: C9_9  and  C10_10 
REMARK       I    between atoms: C10_10  and  N1_12 
REMARK    2  A    between atoms: N1_12  and  C11_14 
REMARK    3  A    between atoms: C11_14  and  C12_15 
REMARK    4  A    between atoms: C12_15  and  N2_16 
REMARK    5  A    between atoms: N3_20  and  C13_21 
REMARK    6  A    between atoms: C13_21  and  O2_22 
REMARK    7  A    between atoms: C13_21  and  C14_24 
REMARK    8  A    between atoms: C14_24  and  N4_25 
REMARK    9  A    between atoms: C14_24  and  C16_35 
REMARK   10  A    between atoms: C14_24  and  C22_47 
REMARK       I    between atoms: N4_25  and  C15_27 
REMARK       I    between atoms: C15_27  and  N5_29 
REMARK   11  A    between atoms: N5_29  and  N6_31 
REMARK   12  A    between atoms: N6_31  and  N7_32 
REMARK   13  A    between atoms: C16_35  and  O4_36 
REMARK   14  A    between atoms: C16_35  and  N8_38 
REMARK   15  A    between atoms: N8_38  and  C18_40 
REMARK   16  A    between atoms: C18_40  and  C19_41 
ROOT
HETATM    1  C14 UNL     1       3.489  -1.136  14.054  1.00  0.00     0.171 C 
ENDROOT
BRANCH   1   2
HETATM    2  C13 UNL     1       4.608  -0.190  14.237  1.00  0.00     0.153 C 
BRANCH   2   3
HETATM    3  N3  UNL     1       5.548   0.544  13.566  1.00  0.00    -0.345 N 
HETATM    4  C9  UNL     1       6.962   0.495  13.987  1.00  0.00     0.207 C 
HETATM    5  C8  UNL     1       7.900   1.009  12.886  1.00  0.00    -0.048 C 
HETATM    6  C2  UNL     1       7.325   0.625  11.566  1.00  0.00     0.018 C 
HETATM    7  C7  UNL     1       8.477   2.327  13.078  1.00  0.00    -0.021 C 
HETATM    8  C1  UNL     1       8.283   0.493  10.439  1.00  0.00     0.015 C 
HETATM    9  C3  UNL     1       6.072   1.400  11.269  1.00  0.00     0.011 C 
HETATM   10  C4  UNL     1       6.320   2.728  10.638  1.00  0.00     0.007 C 
HETATM   11  C26 UNL     1       5.305   1.520  12.577  1.00  0.00     0.131 C 
HETATM   12  C5  UNL     1       7.574   3.405  10.994  1.00  0.00     0.004 C 
HETATM   13  C6  UNL     1       7.955   3.531  12.414  1.00  0.00     0.027 C 
BRANCH   4  14
HETATM   14  C10 UNL     1       7.448  -0.821  14.407  1.00  0.00     0.244 C 
HETATM   15  O1  UNL     1       7.577  -1.675  13.451  1.00  0.00    -0.271 OA
HETATM   16  N1  UNL     1       7.788  -1.296  15.686  1.00  0.00    -0.357 N 
ATOM     17  H1  UNL     1       7.703  -0.662  16.480  1.00  0.00     0.162 HD
BRANCH  16  18
HETATM   18  C11 UNL     1       8.247  -2.631  15.920  1.00  0.00     0.150 C 
BRANCH  18  19
HETATM   19  C12 UNL     1       9.725  -2.823  15.951  1.00  0.00     0.249 C 
BRANCH  19  20
HETATM   20  N2  UNL     1      10.197  -3.888  15.083  1.00  0.00    -0.078 N 
ATOM     21  H23 UNL     1       9.423  -4.290  14.553  1.00  0.00     0.274 HD
ATOM     22  H22 UNL     1      10.750  -3.508  14.315  1.00  0.00     0.274 HD
ATOM     23  H21 UNL     1      10.715  -4.619  15.572  1.00  0.00     0.274 HD
ENDBRANCH  19  20
ENDBRANCH  18  19
ENDBRANCH  16  18
ENDBRANCH   4  14
ENDBRANCH   2   3
BRANCH   2  24
HETATM   24  O2  UNL     1       4.766   0.031  15.564  1.00  0.00    -0.347 OA
ATOM     25  H2  UNL     1       4.086  -0.444  16.027  1.00  0.00     0.219 HD
ENDBRANCH   2  24
ENDBRANCH   1   2
BRANCH   1  26
HETATM   26  N4  UNL     1       3.329  -1.627  15.516  1.00  0.00    -0.316 N 
HETATM   27  C15 UNL     1       4.158  -2.144  16.423  1.00  0.00     0.348 C 
HETATM   28  O3  UNL     1       5.355  -2.447  16.477  1.00  0.00    -0.245 OA
HETATM   29  N5  UNL     1       3.516  -2.460  17.749  1.00  0.00    -0.165 N 
ATOM     30  H5  UNL     1       3.448  -1.751  18.477  1.00  0.00     0.209 HD
ATOM     31  H4  UNL     1       2.374  -1.532  15.862  1.00  0.00     0.166 HD
BRANCH  29  32
HETATM   32  N6  UNL     1       3.079  -3.583  17.930  1.00  0.00    -0.239 NA
BRANCH  32  33
HETATM   33  N7  UNL     1       2.735  -4.775  18.046  1.00  0.00    -0.260 N 
ATOM     34  H72 UNL     1       2.472  -4.653  17.068  1.00  0.00     0.193 HD
ATOM     35  H71 UNL     1       2.488  -5.745  18.243  1.00  0.00     0.193 HD
ENDBRANCH  32  33
ENDBRANCH  29  32
ENDBRANCH   1  26
BRANCH   1  36
HETATM   36  C16 UNL     1       2.246  -0.433  13.818  1.00  0.00     0.155 C 
BRANCH  36  37
HETATM   37  O4  UNL     1       1.598  -0.122  14.983  1.00  0.00    -0.347 OA
ATOM     38  H4  UNL     1       2.165   0.323  15.602  1.00  0.00     0.219 HD
ENDBRANCH  36  37
BRANCH  36  39
HETATM   39  N8  UNL     1       1.475   0.046  12.782  1.00  0.00    -0.341 N 
HETATM   40  C17 UNL     1       0.089   0.568  13.092  1.00  0.00     0.157 C 
BRANCH  39  41
HETATM   41  C18 UNL     1       1.716   0.112  11.397  1.00  0.00     0.129 C 
BRANCH  41  42
HETATM   42  C19 UNL     1       1.632   1.516  10.821  1.00  0.00     0.089 A 
HETATM   43  N9  UNL     1       1.135   1.898   9.656  1.00  0.00    -0.359 N 
HETATM   44  C20 UNL     1       1.138   3.146   9.330  1.00  0.00     0.096 A 
ATOM     45  H9  UNL     1       0.750   1.206   9.015  1.00  0.00     0.166 HD
HETATM   46  C21 UNL     1       1.664   4.040  10.221  1.00  0.00     0.069 A 
HETATM   47  S1  UNL     1       2.134   2.997  11.503  1.00  0.00    -0.082 SA
ENDBRANCH  41  42
ENDBRANCH  39  41
ENDBRANCH  36  39
ENDBRANCH   1  36
BRANCH   1  48
HETATM   48  C22 UNL     1       3.731  -2.420  13.403  1.00  0.00    -0.010 C 
HETATM   49  C23 UNL     1       4.953  -3.226  13.664  1.00  0.00     0.018 C 
HETATM   50  C24 UNL     1       3.834  -2.217  11.859  1.00  0.00     0.018 C 
HETATM   51  C25 UNL     1       2.554  -3.392  13.545  1.00  0.00     0.018 C 
ENDBRANCH   1  48
TORSDOF 16
ENDMDL
MODEL 2
REMARK VINA RESULT: -7.547754853      3.253      6.998
REMARK  16 active torsions:
REMARK  status: ('A' for Active; 'I' for Inactive)
REMARK    1  A    between atoms: C9_9  and  C10_10 
REMARK       I    between atoms: C10_10  and  N1_12 
REMARK    2  A    between atoms: N1_12  and  C11_14 
REMARK    3  A    between atoms: C11_14  and  C12_15 
REMARK    4  A    between atoms: C12_15  and  N2_16 
REMARK    5  A    between atoms: N3_20  and  C13_21 
REMARK    6  A    between atoms: C13_21  and  O2_22 
REMARK    7  A    between atoms: C13_21  and  C14_24 
REMARK    8  A    between atoms: C14_24  and  N4_25 
REMARK    9  A    between atoms: C14_24  and  C16_35 
REMARK   10  A    between atoms: C14_24  and  C22_47 
REMARK       I    between atoms: N4_25  and  C15_27 
REMARK       I    between atoms: C15_27  and  N5_29 
REMARK   11  A    between atoms: N5_29  and  N6_31 
REMARK   12  A    between atoms: N6_31  and  N7_32 
REMARK   13  A    between atoms: C16_35  and  O4_36 
REMARK   14  A    between atoms: C16_35  and  N8_38 
REMARK   15  A    between atoms: N8_38  and  C18_40 
REMARK   16  A    between atoms: C18_40  and  C19_41 
ROOT
HETATM    1  C14 UNL     1       5.325   2.662  11.104  1.00  0.00     0.171 C 
ENDROOT
BRANCH   1   2
HETATM    2  C13 UNL     1       5.018   1.322  11.644  1.00  0.00     0.153 C 
BRANCH   2   3
HETATM    3  N3  UNL     1       5.305   0.456  12.663  1.00  0.00    -0.345 N 
HETATM    4  C9  UNL     1       4.297   0.182  13.706  1.00  0.00     0.207 C 
HETATM    5  C8  UNL     1       4.619  -1.102  14.484  1.00  0.00    -0.048 C 
HETATM    6  C2  UNL     1       5.247  -2.072  13.544  1.00  0.00     0.018 C 
HETATM    7  C7  UNL     1       5.143  -0.942  15.828  1.00  0.00    -0.021 C 
HETATM    8  C1  UNL     1       5.115  -3.510  13.888  1.00  0.00     0.015 C 
HETATM    9  C3  UNL     1       6.623  -1.624  13.134  1.00  0.00     0.011 C 
HETATM   10  C4  UNL     1       7.698  -2.034  14.083  1.00  0.00     0.007 C 
HETATM   11  C26 UNL     1       6.562  -0.116  12.953  1.00  0.00     0.131 C 
HETATM   12  C5  UNL     1       7.320  -2.155  15.498  1.00  0.00     0.004 C 
HETATM   13  C6  UNL     1       6.574  -1.059  16.147  1.00  0.00     0.027 C 
BRANCH   4  14
HETATM   14  C10 UNL     1       2.915   0.082  13.234  1.00  0.00     0.244 C 
HETATM   15  O1  UNL     1       2.577  -1.085  12.809  1.00  0.00    -0.271 OA
HETATM   16  N1  UNL     1       1.907   1.060  13.169  1.00  0.00    -0.357 N 
ATOM     17  H1  UNL     1       2.120   2.004  13.491  1.00  0.00     0.162 HD
BRANCH  16  18
HETATM   18  C11 UNL     1       0.594   0.787  12.669  1.00  0.00     0.150 C 
BRANCH  18  19
HETATM   19  C12 UNL     1       0.337   1.169  11.251  1.00  0.00     0.249 C 
BRANCH  19  20
HETATM   20  N2  UNL     1       1.293   0.607  10.311  1.00  0.00    -0.078 N 
ATOM     21  H23 UNL     1       1.987   1.305  10.044  1.00  0.00     0.274 HD
ATOM     22  H22 UNL     1       1.899  -0.069  10.775  1.00  0.00     0.274 HD
ATOM     23  H21 UNL     1       0.862   0.195   9.483  1.00  0.00     0.274 HD
ENDBRANCH  19  20
ENDBRANCH  18  19
ENDBRANCH  16  18
ENDBRANCH   4  14
ENDBRANCH   2   3
BRANCH   2  24
HETATM   24  O2  UNL     1       4.120   0.728  10.823  1.00  0.00    -0.347 OA
ATOM     25  H2  UNL     1       4.506   0.663   9.957  1.00  0.00     0.219 HD
ENDBRANCH   2  24
ENDBRANCH   1   2
BRANCH   1  26
HETATM   26  N4  UNL     1       5.813   2.260   9.688  1.00  0.00    -0.316 N 
HETATM   27  C15 UNL     1       6.809   1.505   9.224  1.00  0.00     0.348 C 
HETATM   28  O3  UNL     1       7.733   0.840   9.706  1.00  0.00    -0.245 OA
HETATM   29  N5  UNL     1       6.869   1.403   7.722  1.00  0.00    -0.165 N 
ATOM     30  H5  UNL     1       6.336   0.689   7.227  1.00  0.00     0.209 HD
ATOM     31  H4  UNL     1       5.244   2.664   8.944  1.00  0.00     0.166 HD
BRANCH  29  32
HETATM   32  N6  UNL     1       7.569   2.193   7.113  1.00  0.00    -0.239 NA
BRANCH  32  33
HETATM   33  N7  UNL     1       8.174   3.064   6.460  1.00  0.00    -0.260 N 
ATOM     34  H72 UNL     1       7.843   3.666   7.214  1.00  0.00     0.193 HD
ATOM     35  H71 UNL     1       8.695   3.700   5.855  1.00  0.00     0.193 HD
ENDBRANCH  32  33
ENDBRANCH  29  32
ENDBRANCH   1  26
BRANCH   1  36
HETATM   36  C16 UNL     1       4.112   3.400  10.822  1.00  0.00     0.155 C 
BRANCH  36  37
HETATM   37  O4  UNL     1       3.222   3.349  11.861  1.00  0.00    -0.347 OA
ATOM     38  H4  UNL     1       3.118   4.192  12.287  1.00  0.00     0.219 HD
ENDBRANCH  36  37
BRANCH  36  39
HETATM   39  N8  UNL     1       3.537   4.163   9.830  1.00  0.00    -0.341 N 
HETATM   40  C17 UNL     1       2.054   4.011   9.567  1.00  0.00     0.157 C 
BRANCH  39  41
HETATM   41  C18 UNL     1       4.095   5.083   8.923  1.00  0.00     0.129 C 
BRANCH  41  42
HETATM   42  C19 UNL     1       3.983   4.662   7.467  1.00  0.00     0.089 A 
HETATM   43  N9  UNL     1       4.556   3.634   6.862  1.00  0.00    -0.359 N 
HETATM   44  C20 UNL     1       4.341   3.419   5.609  1.00  0.00     0.096 A 
ATOM     45  H9  UNL     1       5.169   3.012   7.387  1.00  0.00     0.166 HD
HETATM   46  C21 UNL     1       3.511   4.279   4.944  1.00  0.00     0.069 A 
HETATM   47  S1  UNL     1       3.086   5.370   6.201  1.00  0.00    -0.082 SA
ENDBRANCH  41  42
ENDBRANCH  39  41
ENDBRANCH  36  39
ENDBRANCH   1  36
BRANCH   1  48
HETATM   48  C22 UNL     1       6.514   3.370  11.567  1.00  0.00    -0.010 C 
HETATM   49  C23 UNL     1       7.481   2.762  12.520  1.00  0.00     0.018 C 
HETATM   50  C24 UNL     1       6.092   4.653  12.351  1.00  0.00     0.018 C 
HETATM   51  C25 UNL     1       7.360   3.932  10.419  1.00  0.00     0.018 C 
ENDBRANCH   1  48
TORSDOF 16
ENDMDL
MODEL 3
REMARK VINA RESULT: -7.438564055      2.713      6.842
REMARK  16 active torsions:
REMARK  status: ('A' for Active; 'I' for Inactive)
REMARK    1  A    between atoms: C9_9  and  C10_10 
REMARK       I    between atoms: C10_10  and  N1_12 
REMARK    2  A    between atoms: N1_12  and  C11_14 
REMARK    3  A    between atoms: C11_14  and  C12_15 
REMARK    4  A    between atoms: C12_15  and  N2_16 
REMARK    5  A    between atoms: N3_20  and  C13_21 
REMARK    6  A    between atoms: C13_21  and  O2_22 
REMARK    7  A    between atoms: C13_21  and  C14_24 
REMARK    8  A    between atoms: C14_24  and  N4_25 
REMARK    9  A    between atoms: C14_24  and  C16_35 
REMARK   10  A    between atoms: C14_24  and  C22_47 
REMARK       I    between atoms: N4_25  and  C15_27 
REMARK       I    between atoms: C15_27  and  N5_29 
REMARK   11  A    between atoms: N5_29  and  N6_31 
REMARK   12  A    between atoms: N6_31  and  N7_32 
REMARK   13  A    between atoms: C16_35  and  O4_36 
REMARK   14  A    between atoms: C16_35  and  N8_38 
REMARK   15  A    between atoms: N8_38  and  C18_40 
REMARK   16  A    between atoms: C18_40  and  C19_41 
ROOT
HETATM    1  C14 UNL     1       6.232   1.506  11.869  1.00  0.00     0.171 C 
ENDROOT
BRANCH   1   2
HETATM    2  C13 UNL     1       5.506   0.255  12.168  1.00  0.00     0.153 C 
BRANCH   2   3
HETATM    3  N3  UNL     1       5.378  -0.749  13.088  1.00  0.00    -0.345 N 
HETATM    4  C9  UNL     1       4.464  -0.587  14.236  1.00  0.00     0.207 C 
HETATM    5  C8  UNL     1       4.128  -1.935  14.889  1.00  0.00    -0.048 C 
HETATM    6  C2  UNL     1       4.079  -2.971  13.821  1.00  0.00     0.018 C 
HETATM    7  C7  UNL     1       4.764  -2.224  16.162  1.00  0.00    -0.021 C 
HETATM    8  C1  UNL     1       3.242  -4.167  14.095  1.00  0.00     0.015 C 
HETATM    9  C3  UNL     1       5.447  -3.248  13.263  1.00  0.00     0.011 C 
HETATM   10  C4  UNL     1       6.221  -4.259  14.040  1.00  0.00     0.007 C 
HETATM   11  C26 UNL     1       6.170  -1.913  13.180  1.00  0.00     0.131 C 
HETATM   12  C5  UNL     1       5.951  -4.334  15.482  1.00  0.00     0.004 C 
HETATM   13  C6  UNL     1       5.943  -3.095  16.285  1.00  0.00     0.027 C 
BRANCH   4  14
HETATM   14  C10 UNL     1       3.200   0.093  13.942  1.00  0.00     0.244 C 
HETATM   15  O1  UNL     1       3.032   1.205  14.568  1.00  0.00    -0.271 OA
HETATM   16  N1  UNL     1       2.146  -0.283  13.091  1.00  0.00    -0.357 N 
ATOM     17  H1  UNL     1       2.226  -1.157  12.571  1.00  0.00     0.162 HD
BRANCH  16  18
HETATM   18  C11 UNL     1       0.966   0.509  12.923  1.00  0.00     0.150 C 
BRANCH  18  19
HETATM   19  C12 UNL     1       0.802   1.173  11.598  1.00  0.00     0.249 C 
BRANCH  19  20
HETATM   20  N2  UNL     1       1.849   0.846  10.645  1.00  0.00    -0.078 N 
ATOM     21  H23 UNL     1       2.567   0.269  11.083  1.00  0.00     0.274 HD
ATOM     22  H22 UNL     1       1.505   0.189   9.945  1.00  0.00     0.274 HD
ATOM     23  H21 UNL     1       2.267   1.662  10.197  1.00  0.00     0.274 HD
ENDBRANCH  19  20
ENDBRANCH  18  19
ENDBRANCH  16  18
ENDBRANCH   4  14
ENDBRANCH   2   3
BRANCH   2  24
HETATM   24  O2  UNL     1       4.650   0.006  11.149  1.00  0.00    -0.347 OA
ATOM     25  H2  UNL     1       5.084   0.230  10.334  1.00  0.00     0.219 HD
ENDBRANCH   2  24
ENDBRANCH   1   2
BRANCH   1  26
HETATM   26  N4  UNL     1       6.690   1.194  10.421  1.00  0.00    -0.316 N 
HETATM   27  C15 UNL     1       7.467   1.816   9.533  1.00  0.00     0.348 C 
HETATM   28  O3  UNL     1       8.118   2.865   9.488  1.00  0.00    -0.245 OA
HETATM   29  N5  UNL     1       7.626   1.088   8.224  1.00  0.00    -0.165 N 
ATOM     30  H5  UNL     1       8.356   0.386   8.103  1.00  0.00     0.209 HD
ATOM     31  H4  UNL     1       6.312   0.315  10.068  1.00  0.00     0.166 HD
BRANCH  29  32
HETATM   32  N6  UNL     1       6.863   1.357   7.312  1.00  0.00    -0.239 NA
BRANCH  32  33
HETATM   33  N7  UNL     1       6.134   1.753   6.383  1.00  0.00    -0.260 N 
ATOM     34  H72 UNL     1       5.394   1.506   7.041  1.00  0.00     0.193 HD
ATOM     35  H71 UNL     1       5.627   2.097   5.568  1.00  0.00     0.193 HD
ENDBRANCH  32  33
ENDBRANCH  29  32
ENDBRANCH   1  26
BRANCH   1  36
HETATM   36  C16 UNL     1       5.313   2.608  11.679  1.00  0.00     0.155 C 
BRANCH  36  37
HETATM   37  O4  UNL     1       4.105   2.383  12.281  1.00  0.00    -0.347 OA
ATOM     38  H4  UNL     1       3.401   2.868  11.865  1.00  0.00     0.219 HD
ENDBRANCH  36  37
BRANCH  36  39
HETATM   39  N8  UNL     1       5.247   3.847  11.081  1.00  0.00    -0.341 N 
HETATM   40  C17 UNL     1       5.383   5.079  11.948  1.00  0.00     0.157 C 
BRANCH  39  41
HETATM   41  C18 UNL     1       5.021   4.222   9.743  1.00  0.00     0.129 C 
BRANCH  41  42
HETATM   42  C19 UNL     1       3.557   4.207   9.336  1.00  0.00     0.089 A 
HETATM   43  N9  UNL     1       2.487   4.284  10.110  1.00  0.00    -0.359 N 
HETATM   44  C20 UNL     1       1.308   4.265   9.588  1.00  0.00     0.096 A 
ATOM     45  H9  UNL     1       2.595   4.359  11.121  1.00  0.00     0.166 HD
HETATM   46  C21 UNL     1       1.211   4.165   8.228  1.00  0.00     0.069 A 
HETATM   47  S1  UNL     1       2.868   4.101   7.779  1.00  0.00    -0.082 SA
ENDBRANCH  41  42
ENDBRANCH  39  41
ENDBRANCH  36  39
ENDBRANCH   1  36
BRANCH   1  48
HETATM   48  C22 UNL     1       7.536   1.745  12.479  1.00  0.00    -0.010 C 
HETATM   49  C23 UNL     1       8.296   3.005  12.265  1.00  0.00     0.018 C 
HETATM   50  C24 UNL     1       8.562   0.688  11.959  1.00  0.00     0.018 C 
HETATM   51  C25 UNL     1       7.539   1.510  13.993  1.00  0.00     0.018 C 
ENDBRANCH   1  48
TORSDOF 16
ENDMDL
MODEL 4
REMARK VINA RESULT: -7.374986611      2.373      5.791
REMARK  16 active torsions:
REMARK  status: ('A' for Active; 'I' for Inactive)
REMARK    1  A    between atoms: C9_9  and  C10_10 
REMARK       I    between atoms: C10_10  and  N1_12 
REMARK    2  A    between atoms: N1_12  and  C11_14 
REMARK    3  A    between atoms: C11_14  and  C12_15 
REMARK    4  A    between atoms: C12_15  and  N2_16 
REMARK    5  A    between atoms: N3_20  and  C13_21 
REMARK    6  A    between atoms: C13_21  and  O2_22 
REMARK    7  A    between atoms: C13_21  and  C14_24 
REMARK    8  A    between atoms: C14_24  and  N4_25 
REMARK    9  A    between atoms: C14_24  and  C16_35 
REMARK   10  A    between atoms: C14_24  and  C22_47 
REMARK       I    between atoms: N4_25  and  C15_27 
REMARK       I    between atoms: C15_27  and  N5_29 
REMARK   11  A    between atoms: N5_29  and  N6_31 
REMARK   12  A    between atoms: N6_31  and  N7_32 
REMARK   13  A    between atoms: C16_35  and  O4_36 
REMARK   14  A    between atoms: C16_35  and  N8_38 
REMARK   15  A    between atoms: N8_38  and  C18_40 
REMARK   16  A    between atoms: C18_40  and  C19_41 
ROOT
HETATM    1  C14 UNL     1       5.930  -0.674  14.107  1.00  0.00     0.171 C 
ENDROOT
BRANCH   1   2
HETATM    2  C13 UNL     1       6.292  -1.494  15.281  1.00  0.00     0.153 C 
BRANCH   2   3
HETATM    3  N3  UNL     1       7.121  -2.495  15.710  1.00  0.00    -0.345 N 
HETATM    4  C9  UNL     1       6.591  -3.580  16.559  1.00  0.00     0.207 C 
HETATM    5  C8  UNL     1       7.522  -4.800  16.569  1.00  0.00    -0.048 C 
HETATM    6  C2  UNL     1       8.152  -4.917  15.224  1.00  0.00     0.018 C 
HETATM    7  C7  UNL     1       8.313  -5.013  17.768  1.00  0.00    -0.021 C 
HETATM    8  C1  UNL     1       8.605  -6.272  14.820  1.00  0.00     0.015 C 
HETATM    9  C3  UNL     1       9.131  -3.803  14.978  1.00  0.00     0.011 C 
HETATM   10  C4  UNL     1      10.498  -4.074  15.508  1.00  0.00     0.007 C 
HETATM   11  C26 UNL     1       8.525  -2.542  15.575  1.00  0.00     0.131 C 
HETATM   12  C5  UNL     1      10.588  -4.925  16.703  1.00  0.00     0.004 C 
HETATM   13  C6  UNL     1       9.730  -4.634  17.868  1.00  0.00     0.027 C 
BRANCH   4  14
HETATM   14  C10 UNL     1       5.247  -4.048  16.215  1.00  0.00     0.244 C 
HETATM   15  O1  UNL     1       4.305  -3.549  16.936  1.00  0.00    -0.271 OA
HETATM   16  N1  UNL     1       4.830  -4.958  15.227  1.00  0.00    -0.357 N 
ATOM     17  H1  UNL     1       5.535  -5.385  14.628  1.00  0.00     0.162 HD
BRANCH  16  18
HETATM   18  C11 UNL     1       3.457  -5.310  15.028  1.00  0.00     0.150 C 
BRANCH  18  19
HETATM   19  C12 UNL     1       2.980  -6.530  15.739  1.00  0.00     0.249 C 
BRANCH  19  20
HETATM   20  N2  UNL     1       3.738  -7.729  15.420  1.00  0.00    -0.078 N 
ATOM     21  H23 UNL     1       3.675  -7.939  14.423  1.00  0.00     0.274 HD
ATOM     22  H22 UNL     1       4.739  -7.551  15.494  1.00  0.00     0.274 HD
ATOM     23  H21 UNL     1       3.475  -8.543  15.976  1.00  0.00     0.274 HD
ENDBRANCH  19  20
ENDBRANCH  18  19
ENDBRANCH  16  18
ENDBRANCH   4  14
ENDBRANCH   2   3
BRANCH   2  24
HETATM   24  O2  UNL     1       5.511  -1.117  16.321  1.00  0.00    -0.347 OA
ATOM     25  H2  UNL     1       5.120  -0.277  16.110  1.00  0.00     0.219 HD
ENDBRANCH   2  24
ENDBRANCH   1   2
BRANCH   1  26
HETATM   26  N4  UNL     1       4.441  -0.396  14.441  1.00  0.00    -0.316 N 
HETATM   27  C15 UNL     1       3.344  -1.151  14.511  1.00  0.00     0.348 C 
HETATM   28  O3  UNL     1       3.059  -2.340  14.338  1.00  0.00    -0.245 OA
HETATM   29  N5  UNL     1       2.095  -0.402  14.899  1.00  0.00    -0.165 N 
ATOM     30  H5  UNL     1       1.851  -0.271  15.880  1.00  0.00     0.209 HD
ATOM     31  H4  UNL     1       4.261   0.584  14.656  1.00  0.00     0.166 HD
BRANCH  29  32
HETATM   32  N6  UNL     1       1.384   0.042  14.015  1.00  0.00    -0.239 NA
BRANCH  32  33
HETATM   33  N7  UNL     1       0.719   0.413  13.029  1.00  0.00    -0.260 N 
ATOM     34  H72 UNL     1       1.289  -0.286  12.552  1.00  0.00     0.193 HD
ATOM     35  H71 UNL     1       0.124   0.785  12.289  1.00  0.00     0.193 HD
ENDBRANCH  32  33
ENDBRANCH  29  32
ENDBRANCH   1  26
BRANCH   1  36
HETATM   36  C16 UNL     1       6.524   0.643  14.189  1.00  0.00     0.155 C 
BRANCH  36  37
HETATM   37  O4  UNL     1       6.078   1.345  15.276  1.00  0.00    -0.347 OA
ATOM     38  H4  UNL     1       6.709   1.991  15.569  1.00  0.00     0.219 HD
ENDBRANCH  36  37
BRANCH  36  39
HETATM   39  N8  UNL     1       7.417   1.450  13.520  1.00  0.00    -0.341 N 
HETATM   40  C17 UNL     1       8.498   2.150  14.315  1.00  0.00     0.157 C 
BRANCH  39  41
HETATM   41  C18 UNL     1       7.507   1.813  12.163  1.00  0.00     0.129 C 
BRANCH  41  42
HETATM   42  C19 UNL     1       6.477   2.844  11.729  1.00  0.00     0.089 A 
HETATM   43  N9  UNL     1       6.254   4.046  12.234  1.00  0.00    -0.359 N 
HETATM   44  C20 UNL     1       5.336   4.799  11.731  1.00  0.00     0.096 A 
ATOM     45  H9  UNL     1       6.809   4.378  13.022  1.00  0.00     0.166 HD
HETATM   46  C21 UNL     1       4.617   4.313  10.674  1.00  0.00     0.069 A 
HETATM   47  S1  UNL     1       5.329   2.763  10.470  1.00  0.00    -0.082 SA
ENDBRANCH  41  42
ENDBRANCH  39  41
ENDBRANCH  36  39
ENDBRANCH   1  36
BRANCH   1  48
HETATM   48  C22 UNL     1       5.760  -1.315  12.807  1.00  0.00    -0.010 C 
HETATM   49  C23 UNL     1       5.484  -2.770  12.667  1.00  0.00     0.018 C 
HETATM   50  C24 UNL     1       7.078  -1.182  11.979  1.00  0.00     0.018 C 
HETATM   51  C25 UNL     1       4.726  -0.608  11.923  1.00  0.00     0.018 C 
ENDBRANCH   1  48
TORSDOF 16
ENDMDL
MODEL 5
REMARK VINA RESULT: -7.374882244      2.742      6.375
REMARK  16 active torsions:
REMARK  status: ('A' for Active; 'I' for Inactive)
REMARK    1  A    between atoms: C9_9  and  C10_10 
REMARK       I    between atoms: C10_10  and  N1_12 
REMARK    2  A    between atoms: N1_12  and  C11_14 
REMARK    3  A    between atoms: C11_14  and  C12_15 
REMARK    4  A    between atoms: C12_15  and  N2_16 
REMARK    5  A    between atoms: N3_20  and  C13_21 
REMARK    6  A    between atoms: C13_21  and  O2_22 
REMARK    7  A    between atoms: C13_21  and  C14_24 
REMARK    8  A    between atoms: C14_24  and  N4_25 
REMARK    9  A    between atoms: C14_24  and  C16_35 
REMARK   10  A    between atoms: C14_24  and  C22_47 
REMARK       I    between atoms: N4_25  and  C15_27 
REMARK       I    between atoms: C15_27  and  N5_29 
REMARK   11  A    between atoms: N5_29  and  N6_31 
REMARK   12  A    between atoms: N6_31  and  N7_32 
REMARK   13  A    between atoms: C16_35  and  O4_36 
REMARK   14  A    between atoms: C16_35  and  N8_38 
REMARK   15  A    between atoms: N8_38  and  C18_40 
REMARK   16  A    between atoms: C18_40  and  C19_41 
ROOT
HETATM    1  C14 UNL     1       5.362  -2.298  14.705  1.00  0.00     0.171 C 
ENDROOT
BRANCH   1   2
HETATM    2  C13 UNL     1       6.302  -3.438  14.699  1.00  0.00     0.153 C 
BRANCH   2   3
HETATM    3  N3  UNL     1       7.160  -4.159  15.483  1.00  0.00    -0.345 N 
HETATM    4  C9  UNL     1       6.666  -4.814  16.711  1.00  0.00     0.207 C 
HETATM    5  C8  UNL     1       7.630  -5.903  17.201  1.00  0.00    -0.048 C 
HETATM    6  C2  UNL     1       8.250  -6.547  16.009  1.00  0.00     0.018 C 
HETATM    7  C7  UNL     1       8.435  -5.592  18.368  1.00  0.00    -0.021 C 
HETATM    8  C1  UNL     1       8.736  -7.939  16.185  1.00  0.00     0.015 C 
HETATM    9  C3  UNL     1       9.197  -5.610  15.312  1.00  0.00     0.011 C 
HETATM   10  C4  UNL     1      10.576  -5.613  15.881  1.00  0.00     0.007 C 
HETATM   11  C26 UNL     1       8.563  -4.229  15.353  1.00  0.00     0.131 C 
HETATM   12  C5  UNL     1      10.698  -5.900  17.317  1.00  0.00     0.004 C 
HETATM   13  C6  UNL     1       9.843  -5.176  18.277  1.00  0.00     0.027 C 
BRANCH   4  14
HETATM   14  C10 UNL     1       5.332  -5.409  16.613  1.00  0.00     0.244 C 
HETATM   15  O1  UNL     1       4.504  -5.022  17.520  1.00  0.00    -0.271 OA
HETATM   16  N1  UNL     1       4.820  -6.338  15.690  1.00  0.00    -0.357 N 
ATOM     17  H1  UNL     1       5.434  -6.681  14.951  1.00  0.00     0.162 HD
BRANCH  16  18
HETATM   18  C11 UNL     1       3.475  -6.824  15.744  1.00  0.00     0.150 C 
BRANCH  18  19
HETATM   19  C12 UNL     1       3.247  -8.039  16.577  1.00  0.00     0.249 C 
BRANCH  19  20
HETATM   20  N2  UNL     1       2.973  -7.749  17.975  1.00  0.00    -0.078 N 
ATOM     21  H23 UNL     1       3.753  -7.244  18.397  1.00  0.00     0.274 HD
ATOM     22  H22 UNL     1       2.245  -7.039  18.059  1.00  0.00     0.274 HD
ATOM     23  H21 UNL     1       2.737  -8.573  18.528  1.00  0.00     0.274 HD
ENDBRANCH  19  20
ENDBRANCH  18  19
ENDBRANCH  16  18
ENDBRANCH   4  14
ENDBRANCH   2   3
BRANCH   2  24
HETATM   24  O2  UNL     1       6.326  -3.962  13.451  1.00  0.00    -0.347 OA
ATOM     25  H2  UNL     1       5.577  -4.539  13.356  1.00  0.00     0.219 HD
ENDBRANCH   2  24
ENDBRANCH   1   2
BRANCH   1  26
HETATM   26  N4  UNL     1       6.166  -1.302  13.831  1.00  0.00    -0.316 N 
HETATM   27  C15 UNL     1       7.414  -0.833  13.857  1.00  0.00     0.348 C 
HETATM   28  O3  UNL     1       8.415  -0.982  14.565  1.00  0.00    -0.245 OA
HETATM   29  N5  UNL     1       7.740   0.138  12.752  1.00  0.00    -0.165 N 
ATOM     30  H5  UNL     1       8.074  -0.194  11.848  1.00  0.00     0.209 HD
ATOM     31  H4  UNL     1       5.616  -0.918  13.062  1.00  0.00     0.166 HD
BRANCH  29  32
HETATM   32  N6  UNL     1       7.595   1.330  12.964  1.00  0.00    -0.239 NA
BRANCH  32  33
HETATM   33  N7  UNL     1       7.318   2.525  13.182  1.00  0.00    -0.260 N 
ATOM     34  H72 UNL     1       7.485   2.605  12.179  1.00  0.00     0.193 HD
ATOM     35  H71 UNL     1       7.078   3.475  13.464  1.00  0.00     0.193 HD
ENDBRANCH  32  33
ENDBRANCH  29  32
ENDBRANCH   1  26
BRANCH   1  36
HETATM   36  C16 UNL     1       4.202  -2.575  13.886  1.00  0.00     0.155 C 
BRANCH  36  37
HETATM   37  O4  UNL     1       3.863  -3.901  13.901  1.00  0.00    -0.347 OA
ATOM     38  H4  UNL     1       3.014  -4.050  14.302  1.00  0.00     0.219 HD
ENDBRANCH  36  37
BRANCH  36  39
HETATM   39  N8  UNL     1       3.297  -1.931  13.072  1.00  0.00    -0.341 N 
HETATM   40  C17 UNL     1       1.905  -1.667  13.605  1.00  0.00     0.157 C 
BRANCH  39  41
HETATM   41  C18 UNL     1       3.398  -1.479  11.743  1.00  0.00     0.129 C 
BRANCH  41  42
HETATM   42  C19 UNL     1       3.046  -0.012  11.561  1.00  0.00     0.089 A 
HETATM   43  N9  UNL     1       2.058   0.516  10.856  1.00  0.00    -0.359 N 
HETATM   44  C20 UNL     1       1.901   1.795  10.820  1.00  0.00     0.096 A 
ATOM     45  H9  UNL     1       1.421  -0.090  10.341  1.00  0.00     0.166 HD
HETATM   46  C21 UNL     1       2.779   2.569  11.527  1.00  0.00     0.069 A 
HETATM   47  S1  UNL     1       3.801   1.372  12.214  1.00  0.00    -0.082 SA
ENDBRANCH  41  42
ENDBRANCH  39  41
ENDBRANCH  36  39
ENDBRANCH   1  36
BRANCH   1  48
HETATM   48  C22 UNL     1       5.222  -1.488  15.912  1.00  0.00    -0.010 C 
HETATM   49  C23 UNL     1       6.248  -1.480  16.988  1.00  0.00     0.018 C 
HETATM   50  C24 UNL     1       3.959  -1.944  16.709  1.00  0.00     0.018 C 
HETATM   51  C25 UNL     1       4.924  -0.015  15.610  1.00  0.00     0.018 C 
ENDBRANCH   1  48
TORSDOF 16
ENDMDL
