MODEL 1
REMARK VINA RESULT: -9.481836836      0.000      0.000
REMARK  12 active torsions:
REMARK  status: ('A' for Active; 'I' for Inactive)
REMARK    1  A    between atoms: C1_2  and  C2_3 
REMARK       I    between atoms: C1_2  and  N5_29 
REMARK    2  A    between atoms: C4_7  and  N2_8 
REMARK    3  A    between atoms: N2_8  and  C5_10 
REMARK    4  A    between atoms: C11_18  and  N4_19 
REMARK    5  A    between atoms: N4_19  and  C12_21 
REMARK    6  A    between atoms: C15_24  and  O2_25 
REMARK    7  A    between atoms: N5_29  and  C18_30 
REMARK    8  A    between atoms: N5_29  and  C30_44 
REMARK    9  A    between atoms: C18_30  and  C19_31 
REMARK   10  A    between atoms: C19_31  and  N6_32 
REMARK   11  A    between atoms: C22_35  and  N7_36 
REMARK   12  A    between atoms: C30_44  and  C31_45 
ROOT
HETATM    1  C2  UNL     1       5.552  -1.519  13.134  1.00  0.00     0.092 A 
HETATM    2  C3  UNL     1       6.878  -1.442  12.737  1.00  0.00     0.127 A 
HETATM    3  N1  UNL     1       7.401  -0.313  12.259  1.00  0.00    -0.201 N 
ATOM      4  H1  UNL     1       8.379  -0.268  11.969  1.00  0.00     0.183 HD
HETATM    5  C4  UNL     1       6.604   0.762  12.170  1.00  0.00     0.679 A 
HETATM    6  N3  UNL     1       5.292   0.713  12.555  1.00  0.00    -0.176 N 
ATOM      7  H3  UNL     1       4.722   1.555  12.469  1.00  0.00     0.186 HD
HETATM    8  C11 UNL     1       4.736  -0.385  13.032  1.00  0.00     0.134 A 
ENDROOT
BRANCH   1   9
HETATM    9  C1  UNL     1       4.970  -2.726  13.670  1.00  0.00     0.262 C 
HETATM   10  O1  UNL     1       4.251  -3.453  12.962  1.00  0.00    -0.267 OA
HETATM   11  N5  UNL     1       5.199  -3.140  15.053  1.00  0.00    -0.323 N 
BRANCH  11  12
HETATM   12  C18 UNL     1       4.566  -4.345  15.493  1.00  0.00     0.175 C 
BRANCH  12  13
HETATM   13  C19 UNL     1       4.219  -4.559  16.895  1.00  0.00     0.078 C 
BRANCH  13  14
HETATM   14  N6  UNL     1       4.103  -5.828  17.457  1.00  0.00    -0.392 N 
HETATM   15  C20 UNL     1       4.611  -5.963  18.804  1.00  0.00     0.124 C 
HETATM   16  C21 UNL     1       6.099  -6.067  18.821  1.00  0.00     0.055 C 
HETATM   17  C22 UNL     1       6.586  -6.919  17.660  1.00  0.00     0.226 C 
HETATM   18  C28 UNL     1       5.426  -7.814  17.301  1.00  0.00     0.055 C 
HETATM   19  C29 UNL     1       4.352  -6.958  16.637  1.00  0.00     0.124 C 
BRANCH  17  20
HETATM   20  N7  UNL     1       7.776  -7.629  18.002  1.00  0.00     0.093 N 
HETATM   21  C23 UNL     1       8.684  -6.844  18.815  1.00  0.00     0.273 C 
HETATM   22  C24 UNL     1       9.262  -5.721  18.027  1.00  0.00     0.030 C 
HETATM   23  C25 UNL     1      10.137  -6.316  16.928  1.00  0.00     0.003 C 
HETATM   24  C26 UNL     1       9.227  -7.182  16.075  1.00  0.00     0.030 C 
HETATM   25  C27 UNL     1       8.493  -8.198  16.925  1.00  0.00     0.273 C 
ENDBRANCH  17  20
ENDBRANCH  13  14
ENDBRANCH  12  13
ENDBRANCH  11  12
BRANCH  11  26
HETATM   26  C30 UNL     1       6.189  -2.429  15.783  1.00  0.00     0.072 C 
BRANCH  26  27
HETATM   27  C31 UNL     1       7.498  -2.974  16.119  1.00  0.00     0.024 A 
HETATM   28  C32 UNL     1       8.624  -3.404  15.325  1.00  0.00     0.010 A 
HETATM   29  C33 UNL     1       8.720  -2.030  15.890  1.00  0.00     0.010 A 
ENDBRANCH  26  27
ENDBRANCH  11  26
ENDBRANCH   1   9
BRANCH   8  30
HETATM   30  N4  UNL     1       3.511  -0.474  13.391  1.00  0.00    -0.370 N 
ATOM     31  H4  UNL     1       3.237  -1.244  14.001  1.00  0.00     0.161 HD
BRANCH  30  32
HETATM   32  C12 UNL     1       2.506   0.460  12.975  1.00  0.00     0.083 C 
HETATM   33  C13 UNL     1       1.197   0.227  13.720  1.00  0.00     0.028 C 
HETATM   34  C14 UNL     1       0.046   0.893  13.036  1.00  0.00     0.034 C 
HETATM   35  C15 UNL     1       0.554   2.004  12.164  1.00  0.00     0.118 C 
HETATM   36  C16 UNL     1       1.417   1.462  11.045  1.00  0.00     0.034 C 
HETATM   37  C17 UNL     1       2.220   0.261  11.491  1.00  0.00     0.028 C 
BRANCH  35  38
HETATM   38  O2  UNL     1      -0.548   2.699  11.661  1.00  0.00    -0.396 OA
ATOM     39  H2  UNL     1      -1.130   2.070  11.251  1.00  0.00     0.210 HD
ENDBRANCH  35  38
ENDBRANCH  30  32
ENDBRANCH   8  30
BRANCH   5  40
HETATM   40  N2  UNL     1       7.071   1.856  11.719  1.00  0.00    -0.221 N 
ATOM     41  H2  UNL     1       7.882   2.268  12.179  1.00  0.00     0.178 HD
BRANCH  40  42
HETATM   42  C5  UNL     1       6.499   2.538  10.580  1.00  0.00     0.099 C 
HETATM   43  C6  UNL     1       6.930   1.716   9.356  1.00  0.00     0.026 C 
HETATM   44  C7  UNL     1       6.870   2.621   8.167  1.00  0.00     0.002 C 
HETATM   45  C8  UNL     1       7.988   3.632   8.265  1.00  0.00     0.000 C 
HETATM   46  C9  UNL     1       8.383   3.846   9.707  1.00  0.00     0.002 C 
HETATM   47  C10 UNL     1       7.103   3.925  10.513  1.00  0.00     0.026 C 
ENDBRANCH  40  42
ENDBRANCH   5  40
TORSDOF 12
ENDMDL
MODEL 2
REMARK VINA RESULT: -9.189103985      2.406     10.506
REMARK  12 active torsions:
REMARK  status: ('A' for Active; 'I' for Inactive)
REMARK    1  A    between atoms: C1_2  and  C2_3 
REMARK       I    between atoms: C1_2  and  N5_29 
REMARK    2  A    between atoms: C4_7  and  N2_8 
REMARK    3  A    between atoms: N2_8  and  C5_10 
REMARK    4  A    between atoms: C11_18  and  N4_19 
REMARK    5  A    between atoms: N4_19  and  C12_21 
REMARK    6  A    between atoms: C15_24  and  O2_25 
REMARK    7  A    between atoms: N5_29  and  C18_30 
REMARK    8  A    between atoms: N5_29  and  C30_44 
REMARK    9  A    between atoms: C18_30  and  C19_31 
REMARK   10  A    between atoms: C19_31  and  N6_32 
REMARK   11  A    between atoms: C22_35  and  N7_36 
REMARK   12  A    between atoms: C30_44  and  C31_45 
ROOT
HETATM    1  C2  UNL     1       4.495  -3.564  15.823  1.00  0.00     0.092 A 
HETATM    2  C3  UNL     1       3.209  -3.981  16.133  1.00  0.00     0.127 A 
HETATM    3  N1  UNL     1       2.861  -5.267  16.090  1.00  0.00    -0.201 N 
ATOM      4  H1  UNL     1       1.912  -5.563  16.320  1.00  0.00     0.183 HD
HETATM    5  C4  UNL     1       3.796  -6.161  15.735  1.00  0.00     0.679 A 
HETATM    6  N3  UNL     1       5.072  -5.776  15.423  1.00  0.00    -0.176 N 
ATOM      7  H3  UNL     1       5.750  -6.489  15.158  1.00  0.00     0.186 HD
HETATM    8  C11 UNL     1       5.456  -4.513  15.453  1.00  0.00     0.134 A 
ENDROOT
BRANCH   1   9
HETATM    9  C1  UNL     1       4.897  -2.179  15.879  1.00  0.00     0.262 C 
HETATM   10  O1  UNL     1       5.533  -1.742  16.855  1.00  0.00    -0.267 OA
HETATM   11  N5  UNL     1       4.578  -1.243  14.803  1.00  0.00    -0.323 N 
BRANCH  11  12
HETATM   12  C18 UNL     1       5.008   0.112  14.961  1.00  0.00     0.175 C 
BRANCH  12  13
HETATM   13  C19 UNL     1       5.625   0.852  13.863  1.00  0.00     0.078 C 
BRANCH  13  14
HETATM   14  N6  UNL     1       6.962   0.696  13.506  1.00  0.00    -0.392 N 
HETATM   15  C20 UNL     1       7.793   1.867  13.671  1.00  0.00     0.124 C 
HETATM   16  C21 UNL     1       7.588   2.847  12.565  1.00  0.00     0.055 C 
HETATM   17  C22 UNL     1       7.426   2.124  11.237  1.00  0.00     0.226 C 
HETATM   18  C28 UNL     1       8.118   0.794  11.414  1.00  0.00     0.055 C 
HETATM   19  C29 UNL     1       7.269  -0.063  12.347  1.00  0.00     0.124 C 
BRANCH  17  20
HETATM   20  N7  UNL     1       7.943   2.902  10.159  1.00  0.00     0.093 N 
HETATM   21  C23 UNL     1       7.219   4.143   9.964  1.00  0.00     0.273 C 
HETATM   22  C24 UNL     1       5.842   3.879   9.465  1.00  0.00     0.030 C 
HETATM   23  C25 UNL     1       5.953   3.269   8.071  1.00  0.00     0.003 C 
HETATM   24  C26 UNL     1       6.744   1.982   8.226  1.00  0.00     0.030 C 
HETATM   25  C27 UNL     1       8.067   2.239   8.917  1.00  0.00     0.273 C 
ENDBRANCH  17  20
ENDBRANCH  13  14
ENDBRANCH  12  13
ENDBRANCH  11  12
BRANCH  11  26
HETATM   26  C30 UNL     1       4.049  -1.794  13.605  1.00  0.00     0.072 C 
BRANCH  26  27
HETATM   27  C31 UNL     1       2.744  -1.442  13.058  1.00  0.00     0.024 A 
HETATM   28  C32 UNL     1       1.953  -0.235  13.085  1.00  0.00     0.010 A 
HETATM   29  C33 UNL     1       2.746  -0.461  11.844  1.00  0.00     0.010 A 
ENDBRANCH  26  27
ENDBRANCH  11  26
ENDBRANCH   1   9
BRANCH   8  30
HETATM   30  N4  UNL     1       6.635  -4.112  15.157  1.00  0.00    -0.370 N 
ATOM     31  H4  UNL     1       6.765  -3.573  14.301  1.00  0.00     0.161 HD
BRANCH  30  32
HETATM   32  C12 UNL     1       7.780  -4.386  15.974  1.00  0.00     0.083 C 
HETATM   33  C13 UNL     1       8.720  -3.187  16.024  1.00  0.00     0.028 C 
HETATM   34  C14 UNL     1      10.080  -3.571  16.514  1.00  0.00     0.034 C 
HETATM   35  C15 UNL     1       9.989  -4.846  17.302  1.00  0.00     0.118 C 
HETATM   36  C16 UNL     1       9.549  -5.995  16.422  1.00  0.00     0.034 C 
HETATM   37  C17 UNL     1       8.563  -5.545  15.367  1.00  0.00     0.028 C 
BRANCH  35  38
HETATM   38  O2  UNL     1      11.241  -5.094  17.869  1.00  0.00    -0.396 OA
ATOM     39  H2  UNL     1      11.540  -5.942  17.563  1.00  0.00     0.210 HD
ENDBRANCH  35  38
ENDBRANCH  30  32
ENDBRANCH   8  30
BRANCH   5  40
HETATM   40  N2  UNL     1       3.499  -7.396  15.684  1.00  0.00    -0.221 N 
ATOM     41  H2  UNL     1       2.891  -7.722  14.932  1.00  0.00     0.178 HD
BRANCH  40  42
HETATM   42  C5  UNL     1       3.986  -8.357  16.647  1.00  0.00     0.099 C 
HETATM   43  C6  UNL     1       3.710  -9.733  16.024  1.00  0.00     0.026 C 
HETATM   44  C7  UNL     1       3.658 -10.727  17.140  1.00  0.00     0.002 C 
HETATM   45  C8  UNL     1       2.399 -10.497  17.942  1.00  0.00     0.000 C 
HETATM   46  C9  UNL     1       1.946  -9.062  17.815  1.00  0.00     0.002 C 
HETATM   47  C10 UNL     1       3.181  -8.193  17.919  1.00  0.00     0.026 C 
ENDBRANCH  40  42
ENDBRANCH   5  40
TORSDOF 12
ENDMDL
MODEL 3
REMARK VINA RESULT: -9.174465993      0.981      1.051
REMARK  12 active torsions:
REMARK  status: ('A' for Active; 'I' for Inactive)
REMARK    1  A    between atoms: C1_2  and  C2_3 
REMARK       I    between atoms: C1_2  and  N5_29 
REMARK    2  A    between atoms: C4_7  and  N2_8 
REMARK    3  A    between atoms: N2_8  and  C5_10 
REMARK    4  A    between atoms: C11_18  and  N4_19 
REMARK    5  A    between atoms: N4_19  and  C12_21 
REMARK    6  A    between atoms: C15_24  and  O2_25 
REMARK    7  A    between atoms: N5_29  and  C18_30 
REMARK    8  A    between atoms: N5_29  and  C30_44 
REMARK    9  A    between atoms: C18_30  and  C19_31 
REMARK   10  A    between atoms: C19_31  and  N6_32 
REMARK   11  A    between atoms: C22_35  and  N7_36 
REMARK   12  A    between atoms: C30_44  and  C31_45 
ROOT
HETATM    1  C2  UNL     1       5.255  -0.888  14.249  1.00  0.00     0.092 A 
HETATM    2  C3  UNL     1       6.513  -0.529  14.709  1.00  0.00     0.127 A 
HETATM    3  N1  UNL     1       7.225   0.433  14.123  1.00  0.00    -0.201 N 
ATOM      4  H1  UNL     1       8.150   0.688  14.470  1.00  0.00     0.183 HD
HETATM    5  C4  UNL     1       6.689   1.055  13.062  1.00  0.00     0.679 A 
HETATM    6  N3  UNL     1       5.450   0.720  12.587  1.00  0.00    -0.176 N 
ATOM      7  H3  UNL     1       5.082   1.220  11.778  1.00  0.00     0.186 HD
HETATM    8  C11 UNL     1       4.714  -0.227  13.139  1.00  0.00     0.134 A 
ENDROOT
BRANCH   1   9
HETATM    9  C1  UNL     1       4.460  -1.916  14.879  1.00  0.00     0.262 C 
HETATM   10  O1  UNL     1       3.345  -1.649  15.361  1.00  0.00    -0.267 OA
HETATM   11  N5  UNL     1       4.928  -3.297  14.974  1.00  0.00    -0.323 N 
BRANCH  11  12
HETATM   12  C18 UNL     1       4.074  -4.237  15.631  1.00  0.00     0.175 C 
BRANCH  12  13
HETATM   13  C19 UNL     1       4.262  -4.592  17.035  1.00  0.00     0.078 C 
BRANCH  13  14
HETATM   14  N6  UNL     1       4.134  -5.897  17.506  1.00  0.00    -0.392 N 
HETATM   15  C20 UNL     1       4.613  -6.124  18.850  1.00  0.00     0.124 C 
HETATM   16  C21 UNL     1       6.100  -6.231  18.892  1.00  0.00     0.055 C 
HETATM   17  C22 UNL     1       6.613  -7.002  17.686  1.00  0.00     0.226 C 
HETATM   18  C28 UNL     1       5.460  -7.869  17.242  1.00  0.00     0.055 C 
HETATM   19  C29 UNL     1       4.401  -6.968  16.616  1.00  0.00     0.124 C 
BRANCH  17  20
HETATM   20  N7  UNL     1       7.795  -7.735  18.004  1.00  0.00     0.093 N 
HETATM   21  C23 UNL     1       8.713  -6.985  18.838  1.00  0.00     0.273 C 
HETATM   22  C24 UNL     1       9.302  -5.846  18.083  1.00  0.00     0.030 C 
HETATM   23  C25 UNL     1      10.169  -6.417  16.964  1.00  0.00     0.003 C 
HETATM   24  C26 UNL     1       9.247  -7.247  16.088  1.00  0.00     0.030 C 
HETATM   25  C27 UNL     1       8.503  -8.280  16.909  1.00  0.00     0.273 C 
ENDBRANCH  17  20
ENDBRANCH  13  14
ENDBRANCH  12  13
ENDBRANCH  11  12
BRANCH  11  26
HETATM   26  C30 UNL     1       6.094  -3.635  14.235  1.00  0.00     0.072 C 
BRANCH  26  27
HETATM   27  C31 UNL     1       7.316  -4.151  14.839  1.00  0.00     0.024 A 
HETATM   28  C32 UNL     1       8.639  -3.602  15.020  1.00  0.00     0.010 A 
HETATM   29  C33 UNL     1       7.736  -3.512  16.201  1.00  0.00     0.010 A 
ENDBRANCH  26  27
ENDBRANCH  11  26
ENDBRANCH   1   9
BRANCH   8  30
HETATM   30  N4  UNL     1       3.557  -0.577  12.718  1.00  0.00    -0.370 N 
ATOM     31  H4  UNL     1       3.379  -1.567  12.551  1.00  0.00     0.161 HD
BRANCH  30  32
HETATM   32  C12 UNL     1       2.501   0.360  12.470  1.00  0.00     0.083 C 
HETATM   33  C13 UNL     1       1.345   0.154  13.441  1.00  0.00     0.028 C 
HETATM   34  C14 UNL     1       0.094   0.820  12.961  1.00  0.00     0.034 C 
HETATM   35  C15 UNL     1       0.446   1.910  11.990  1.00  0.00     0.118 C 
HETATM   36  C16 UNL     1       1.091   1.338  10.746  1.00  0.00     0.034 C 
HETATM   37  C17 UNL     1       1.953   0.137  11.065  1.00  0.00     0.028 C 
BRANCH  35  38
HETATM   38  O2  UNL     1      -0.723   2.606  11.679  1.00  0.00    -0.396 OA
ATOM     39  H2  UNL     1      -0.482   3.377  11.179  1.00  0.00     0.210 HD
ENDBRANCH  35  38
ENDBRANCH  30  32
ENDBRANCH   8  30
BRANCH   5  40
HETATM   40  N2  UNL     1       7.341   1.979  12.479  1.00  0.00    -0.221 N 
ATOM     41  H2  UNL     1       8.193   2.328  12.918  1.00  0.00     0.178 HD
BRANCH  40  42
HETATM   42  C5  UNL     1       6.923   2.553  11.221  1.00  0.00     0.099 C 
HETATM   43  C6  UNL     1       7.953   2.068  10.191  1.00  0.00     0.026 C 
HETATM   44  C7  UNL     1       7.927   3.028   9.045  1.00  0.00     0.002 C 
HETATM   45  C8  UNL     1       8.536   4.337   9.490  1.00  0.00     0.000 C 
HETATM   46  C9  UNL     1       8.390   4.507  10.984  1.00  0.00     0.002 C 
HETATM   47  C10 UNL     1       6.990   4.061  11.350  1.00  0.00     0.026 C 
ENDBRANCH  40  42
ENDBRANCH   5  40
TORSDOF 12
ENDMDL
MODEL 4
REMARK VINA RESULT: -8.829257073      1.172      1.528
REMARK  12 active torsions:
REMARK  status: ('A' for Active; 'I' for Inactive)
REMARK    1  A    between atoms: C1_2  and  C2_3 
REMARK       I    between atoms: C1_2  and  N5_29 
REMARK    2  A    between atoms: C4_7  and  N2_8 
REMARK    3  A    between atoms: N2_8  and  C5_10 
REMARK    4  A    between atoms: C11_18  and  N4_19 
REMARK    5  A    between atoms: N4_19  and  C12_21 
REMARK    6  A    between atoms: C15_24  and  O2_25 
REMARK    7  A    between atoms: N5_29  and  C18_30 
REMARK    8  A    between atoms: N5_29  and  C30_44 
REMARK    9  A    between atoms: C18_30  and  C19_31 
REMARK   10  A    between atoms: C19_31  and  N6_32 
REMARK   11  A    between atoms: C22_35  and  N7_36 
REMARK   12  A    between atoms: C30_44  and  C31_45 
ROOT
HETATM    1  C2  UNL     1       5.620  -1.159  13.169  1.00  0.00     0.092 A 
HETATM    2  C3  UNL     1       6.949  -1.001  12.805  1.00  0.00     0.127 A 
HETATM    3  N1  UNL     1       7.479   0.204  12.599  1.00  0.00    -0.201 N 
ATOM      4  H1  UNL     1       8.458   0.308  12.332  1.00  0.00     0.183 HD
HETATM    5  C4  UNL     1       6.688   1.276  12.753  1.00  0.00     0.679 A 
HETATM    6  N3  UNL     1       5.373   1.148  13.111  1.00  0.00    -0.176 N 
ATOM      7  H3  UNL     1       4.807   1.990  13.217  1.00  0.00     0.186 HD
HETATM    8  C11 UNL     1       4.810  -0.027  13.323  1.00  0.00     0.134 A 
ENDROOT
BRANCH   1   9
HETATM    9  C1  UNL     1       5.029  -2.453  13.414  1.00  0.00     0.262 C 
HETATM   10  O1  UNL     1       4.532  -3.110  12.482  1.00  0.00    -0.267 OA
HETATM   11  N5  UNL     1       4.993  -3.039  14.752  1.00  0.00    -0.323 N 
BRANCH  11  12
HETATM   12  C18 UNL     1       4.372  -4.320  14.893  1.00  0.00     0.175 C 
BRANCH  12  13
HETATM   13  C19 UNL     1       4.970  -5.376  15.706  1.00  0.00     0.078 C 
BRANCH  13  14
HETATM   14  N6  UNL     1       4.252  -6.089  16.662  1.00  0.00    -0.392 N 
HETATM   15  C20 UNL     1       4.688  -5.913  18.029  1.00  0.00     0.124 C 
HETATM   16  C21 UNL     1       5.913  -6.711  18.321  1.00  0.00     0.055 C 
HETATM   17  C22 UNL     1       5.839  -8.069  17.641  1.00  0.00     0.226 C 
HETATM   18  C28 UNL     1       4.368  -8.344  17.449  1.00  0.00     0.055 C 
HETATM   19  C29 UNL     1       3.848  -7.414  16.358  1.00  0.00     0.124 C 
BRANCH  17  20
HETATM   20  N7  UNL     1       6.516  -9.067  18.404  1.00  0.00     0.093 N 
HETATM   21  C23 UNL     1       7.951  -8.867  18.443  1.00  0.00     0.273 C 
HETATM   22  C24 UNL     1       8.554  -9.101  17.103  1.00  0.00     0.030 C 
HETATM   23  C25 UNL     1       8.376 -10.577  16.755  1.00  0.00     0.003 C 
HETATM   24  C26 UNL     1       6.881 -10.838  16.745  1.00  0.00     0.030 C 
HETATM   25  C27 UNL     1       6.246 -10.409  18.052  1.00  0.00     0.273 C 
ENDBRANCH  17  20
ENDBRANCH  13  14
ENDBRANCH  12  13
ENDBRANCH  11  12
BRANCH  11  26
HETATM   26  C30 UNL     1       5.751  -2.387  15.762  1.00  0.00     0.072 C 
BRANCH  26  27
HETATM   27  C31 UNL     1       7.036  -2.871  16.251  1.00  0.00     0.024 A 
HETATM   28  C32 UNL     1       8.198  -3.426  15.597  1.00  0.00     0.010 A 
HETATM   29  C33 UNL     1       8.276  -1.977  15.934  1.00  0.00     0.010 A 
ENDBRANCH  26  27
ENDBRANCH  11  26
ENDBRANCH   1   9
BRANCH   8  30
HETATM   30  N4  UNL     1       3.582  -0.189  13.647  1.00  0.00    -0.370 N 
ATOM     31  H4  UNL     1       3.340  -0.959  14.271  1.00  0.00     0.161 HD
BRANCH  30  32
HETATM   32  C12 UNL     1       2.531   0.664  13.173  1.00  0.00     0.083 C 
HETATM   33  C13 UNL     1       1.184   0.250  13.754  1.00  0.00     0.028 C 
HETATM   34  C14 UNL     1       0.046   0.839  12.983  1.00  0.00     0.034 C 
HETATM   35  C15 UNL     1       0.520   2.052  12.234  1.00  0.00     0.118 C 
HETATM   36  C16 UNL     1       1.549   1.674  11.191  1.00  0.00     0.034 C 
HETATM   37  C17 UNL     1       2.426   0.535  11.658  1.00  0.00     0.028 C 
BRANCH  35  38
HETATM   38  O2  UNL     1      -0.592   2.662  11.650  1.00  0.00    -0.396 OA
ATOM     39  H2  UNL     1      -1.173   1.979  11.338  1.00  0.00     0.210 HD
ENDBRANCH  35  38
ENDBRANCH  30  32
ENDBRANCH   8  30
BRANCH   5  40
HETATM   40  N2  UNL     1       7.162   2.441  12.565  1.00  0.00    -0.221 N 
ATOM     41  H2  UNL     1       8.032   2.696  13.031  1.00  0.00     0.178 HD
BRANCH  40  42
HETATM   42  C5  UNL     1       6.517   3.417  11.717  1.00  0.00     0.099 C 
HETATM   43  C6  UNL     1       6.111   2.650  10.450  1.00  0.00     0.026 C 
HETATM   44  C7  UNL     1       5.966   3.650   9.348  1.00  0.00     0.002 C 
HETATM   45  C8  UNL     1       7.336   4.161   8.968  1.00  0.00     0.000 C 
HETATM   46  C9  UNL     1       8.288   4.040  10.134  1.00  0.00     0.002 C 
HETATM   47  C10 UNL     1       7.536   4.483  11.372  1.00  0.00     0.026 C 
ENDBRANCH  40  42
ENDBRANCH   5  40
TORSDOF 12
ENDMDL
MODEL 5
REMARK VINA RESULT: -8.821081174      2.362      5.464
REMARK  12 active torsions:
REMARK  status: ('A' for Active; 'I' for Inactive)
REMARK    1  A    between atoms: C1_2  and  C2_3 
REMARK       I    between atoms: C1_2  and  N5_29 
REMARK    2  A    between atoms: C4_7  and  N2_8 
REMARK    3  A    between atoms: N2_8  and  C5_10 
REMARK    4  A    between atoms: C11_18  and  N4_19 
REMARK    5  A    between atoms: N4_19  and  C12_21 
REMARK    6  A    between atoms: C15_24  and  O2_25 
REMARK    7  A    between atoms: N5_29  and  C18_30 
REMARK    8  A    between atoms: N5_29  and  C30_44 
REMARK    9  A    between atoms: C18_30  and  C19_31 
REMARK   10  A    between atoms: C19_31  and  N6_32 
REMARK   11  A    between atoms: C22_35  and  N7_36 
REMARK   12  A    between atoms: C30_44  and  C31_45 
ROOT
HETATM    1  C2  UNL     1       5.475  -1.366  15.334  1.00  0.00     0.092 A 
HETATM    2  C3  UNL     1       4.964  -0.080  15.417  1.00  0.00     0.127 A 
HETATM    3  N1  UNL     1       5.660   0.978  14.997  1.00  0.00    -0.201 N 
ATOM      4  H1  UNL     1       5.273   1.920  15.064  1.00  0.00     0.183 HD
HETATM    5  C4  UNL     1       6.881   0.765  14.486  1.00  0.00     0.679 A 
HETATM    6  N3  UNL     1       7.409  -0.494  14.394  1.00  0.00    -0.176 N 
ATOM      7  H3  UNL     1       8.342  -0.609  13.998  1.00  0.00     0.186 HD
HETATM    8  C11 UNL     1       6.753  -1.566  14.798  1.00  0.00     0.134 A 
ENDROOT
BRANCH   1   9
HETATM    9  C1  UNL     1       4.733  -2.527  15.767  1.00  0.00     0.262 C 
HETATM   10  O1  UNL     1       4.710  -2.854  16.967  1.00  0.00    -0.267 OA
HETATM   11  N5  UNL     1       3.986  -3.355  14.824  1.00  0.00    -0.323 N 
BRANCH  11  12
HETATM   12  C18 UNL     1       3.296  -4.492  15.350  1.00  0.00     0.175 C 
BRANCH  12  13
HETATM   13  C19 UNL     1       3.990  -5.744  15.638  1.00  0.00     0.078 C 
BRANCH  13  14
HETATM   14  N6  UNL     1       3.492  -6.696  16.524  1.00  0.00    -0.392 N 
HETATM   15  C20 UNL     1       3.732  -6.430  17.925  1.00  0.00     0.124 C 
HETATM   16  C21 UNL     1       5.131  -6.766  18.316  1.00  0.00     0.055 C 
HETATM   17  C22 UNL     1       5.587  -8.040  17.622  1.00  0.00     0.226 C 
HETATM   18  C28 UNL     1       4.323  -8.799  17.302  1.00  0.00     0.055 C 
HETATM   19  C29 UNL     1       3.600  -8.067  16.177  1.00  0.00     0.124 C 
BRANCH  17  20
HETATM   20  N7  UNL     1       6.507  -8.769  18.433  1.00  0.00     0.093 N 
HETATM   21  C23 UNL     1       7.868  -8.286  18.313  1.00  0.00     0.273 C 
HETATM   22  C24 UNL     1       8.415  -8.579  16.960  1.00  0.00     0.030 C 
HETATM   23  C25 UNL     1       8.525 -10.094  16.813  1.00  0.00     0.003 C 
HETATM   24  C26 UNL     1       7.120 -10.645  16.975  1.00  0.00     0.030 C 
HETATM   25  C27 UNL     1       6.499 -10.174  18.274  1.00  0.00     0.273 C 
ENDBRANCH  17  20
ENDBRANCH  13  14
ENDBRANCH  12  13
ENDBRANCH  11  12
BRANCH  11  26
HETATM   26  C30 UNL     1       3.839  -2.855  13.502  1.00  0.00     0.072 C 
BRANCH  26  27
HETATM   27  C31 UNL     1       2.722  -2.024  13.069  1.00  0.00     0.024 A 
HETATM   28  C32 UNL     1       2.326  -0.667  13.363  1.00  0.00     0.010 A 
HETATM   29  C33 UNL     1       3.067  -0.862  12.085  1.00  0.00     0.010 A 
ENDBRANCH  26  27
ENDBRANCH  11  26
ENDBRANCH   1   9
BRANCH   8  30
HETATM   30  N4  UNL     1       7.217  -2.758  14.740  1.00  0.00    -0.370 N 
ATOM     31  H4  UNL     1       6.940  -3.350  13.956  1.00  0.00     0.161 HD
BRANCH  30  32
HETATM   32  C12 UNL     1       8.108  -3.298  15.724  1.00  0.00     0.083 C 
HETATM   33  C13 UNL     1       9.472  -3.608  15.119  1.00  0.00     0.028 C 
HETATM   34  C14 UNL     1      10.267  -4.527  15.991  1.00  0.00     0.034 C 
HETATM   35  C15 UNL     1       9.756  -4.450  17.400  1.00  0.00     0.118 C 
HETATM   36  C16 UNL     1       8.333  -4.958  17.487  1.00  0.00     0.034 C 
HETATM   37  C17 UNL     1       7.539  -4.612  16.248  1.00  0.00     0.028 C 
BRANCH  35  38
HETATM   38  O2  UNL     1      10.610  -5.199  18.212  1.00  0.00    -0.396 OA
ATOM     39  H2  UNL     1      11.428  -4.724  18.296  1.00  0.00     0.210 HD
ENDBRANCH  35  38
ENDBRANCH  30  32
ENDBRANCH   8  30
BRANCH   5  40
HETATM   40  N2  UNL     1       7.571   1.752  14.075  1.00  0.00    -0.221 N 
ATOM     41  H2  UNL     1       7.909   2.430  14.758  1.00  0.00     0.178 HD
BRANCH  40  42
HETATM   42  C5  UNL     1       7.897   1.950  12.682  1.00  0.00     0.099 C 
HETATM   43  C6  UNL     1       7.569   3.422  12.393  1.00  0.00     0.026 C 
HETATM   44  C7  UNL     1       7.343   3.550  10.921  1.00  0.00     0.002 C 
HETATM   45  C8  UNL     1       6.040   2.874  10.565  1.00  0.00     0.000 C 
HETATM   46  C9  UNL     1       5.713   1.795  11.570  1.00  0.00     0.002 C 
HETATM   47  C10 UNL     1       6.999   1.049  11.859  1.00  0.00     0.026 C 
ENDBRANCH  40  42
ENDBRANCH   5  40
TORSDOF 12
ENDMDL
