MODEL 1
REMARK VINA RESULT: -6.891559283      0.000      0.000
REMARK  5 active torsions:
REMARK  status: ('A' for Active; 'I' for Inactive)
REMARK    1  A    between atoms: C3_4  and  N2_5 
REMARK    2  A    between atoms: C6_9  and  N3_10 
REMARK    3  A    between atoms: C7_15  and  N5_16 
REMARK    4  A    between atoms: N5_16  and  O1_18 
REMARK    5  A    between atoms: O1_18  and  C8_19 
ROOT
HETATM    1  N2  UNL     1     -19.092 -42.221 -11.961  1.00  0.00    -0.137 N 
HETATM    2  C4  UNL     1     -19.994 -43.225 -12.207  1.00  0.00     0.144 A 
HETATM    3  C5  UNL     1     -19.801 -44.491 -11.734  1.00  0.00     0.094 A 
HETATM    4 CL1  UNL     1     -20.956 -45.789 -12.047  1.00  0.00    -0.079 Cl
HETATM    5  C6  UNL     1     -18.660 -44.750 -10.990  1.00  0.00     0.138 A 
HETATM    6  N4  UNL     1     -17.795 -43.734 -10.768  1.00  0.00    -0.173 N 
ATOM      7  H4  UNL     1     -16.953 -43.915 -10.222  1.00  0.00     0.186 HD
HETATM    8  C7  UNL     1     -18.011 -42.470 -11.254  1.00  0.00     0.712 A 
ENDROOT
BRANCH   1   9
HETATM    9  C3  UNL     1     -19.407 -40.951 -12.506  1.00  0.00     0.161 A 
HETATM   10  C2  UNL     1     -19.202 -40.606 -13.842  1.00  0.00     0.162 A 
HETATM   11  N1  UNL     1     -19.585 -39.345 -13.999  1.00  0.00    -0.290 N 
HETATM   12  C1  UNL     1     -19.542 -38.585 -15.238  1.00  0.00     0.178 C 
HETATM   13  N9  UNL     1     -20.005 -38.917 -12.833  1.00  0.00    -0.240 N 
HETATM   14  N8  UNL     1     -19.911 -39.858 -11.916  1.00  0.00    -0.269 N 
ATOM     15  H9  UNL     1     -20.360 -37.977 -12.658  1.00  0.00     0.208 HD
ATOM     16  H8  UNL     1     -20.173 -39.771 -10.934  1.00  0.00     0.190 HD
ENDBRANCH   1   9
BRANCH   8  17
HETATM   17  N5  UNL     1     -17.143 -41.600 -10.990  1.00  0.00    -0.087 N 
ATOM     18  H5  UNL     1     -16.314 -41.556 -11.581  1.00  0.00     0.214 HD
BRANCH  17  19
HETATM   19  O1  UNL     1     -17.242 -40.722  -9.973  1.00  0.00    -0.183 OA
BRANCH  19  20
HETATM   20  C8  UNL     1     -16.868 -41.052  -8.682  1.00  0.00     0.277 A 
HETATM   21  N6  UNL     1     -17.386 -41.655  -7.622  1.00  0.00    -0.259 N 
HETATM   22  N7  UNL     1     -16.081 -41.168  -7.516  1.00  0.00    -0.259 N 
ATOM     23  H6  UNL     1     -18.176 -42.134  -7.191  1.00  0.00     0.190 HD
ATOM     24  H7  UNL     1     -15.218 -41.013  -6.994  1.00  0.00     0.190 HD
ENDBRANCH  19  20
ENDBRANCH  17  19
ENDBRANCH   8  17
BRANCH   5  25
HETATM   25  N3  UNL     1     -18.457 -45.926 -10.536  1.00  0.00    -0.384 N 
ATOM     26  H32 UNL     1     -18.853 -46.243  -9.650  1.00  0.00     0.157 HD
ATOM     27  H31 UNL     1     -17.883 -46.580 -11.069  1.00  0.00     0.157 HD
ENDBRANCH   5  25
TORSDOF 5
ENDMDL
MODEL 2
REMARK VINA RESULT: -6.575780093      3.853      6.996
REMARK  5 active torsions:
REMARK  status: ('A' for Active; 'I' for Inactive)
REMARK    1  A    between atoms: C3_4  and  N2_5 
REMARK    2  A    between atoms: C6_9  and  N3_10 
REMARK    3  A    between atoms: C7_15  and  N5_16 
REMARK    4  A    between atoms: N5_16  and  O1_18 
REMARK    5  A    between atoms: O1_18  and  C8_19 
ROOT
HETATM    1  N2  UNL     1     -16.363 -43.221  -7.987  1.00  0.00    -0.137 N 
HETATM    2  C4  UNL     1     -16.646 -41.946  -8.408  1.00  0.00     0.144 A 
HETATM    3  C5  UNL     1     -17.211 -41.704  -9.626  1.00  0.00     0.094 A 
HETATM    4 CL1  UNL     1     -17.578 -40.066 -10.175  1.00  0.00    -0.079 Cl
HETATM    5  C6  UNL     1     -17.499 -42.785 -10.446  1.00  0.00     0.138 A 
HETATM    6  N4  UNL     1     -17.205 -44.026  -9.997  1.00  0.00    -0.173 N 
ATOM      7  H4  UNL     1     -17.414 -44.827 -10.592  1.00  0.00     0.186 HD
HETATM    8  C7  UNL     1     -16.638 -44.244  -8.767  1.00  0.00     0.712 A 
ENDROOT
BRANCH   1   9
HETATM    9  C3  UNL     1     -15.777 -43.340  -6.702  1.00  0.00     0.161 A 
HETATM   10  C2  UNL     1     -16.468 -43.122  -5.510  1.00  0.00     0.162 A 
HETATM   11  N1  UNL     1     -15.615 -43.299  -4.509  1.00  0.00    -0.290 N 
HETATM   12  C1  UNL     1     -15.919 -43.170  -3.093  1.00  0.00     0.178 C 
HETATM   13  N9  UNL     1     -14.454 -43.608  -5.035  1.00  0.00    -0.240 N 
HETATM   14  N8  UNL     1     -14.519 -43.641  -6.350  1.00  0.00    -0.269 N 
ATOM     15  H9  UNL     1     -13.610 -43.799  -4.495  1.00  0.00     0.208 HD
ATOM     16  H8  UNL     1     -13.751 -43.856  -6.986  1.00  0.00     0.190 HD
ENDBRANCH   1   9
BRANCH   8  17
HETATM   17  N5  UNL     1     -16.406 -45.438  -8.448  1.00  0.00    -0.087 N 
ATOM     18  H5  UNL     1     -15.442 -45.767  -8.491  1.00  0.00     0.214 HD
BRANCH  17  19
HETATM   19  O1  UNL     1     -17.355 -46.308  -8.054  1.00  0.00    -0.183 OA
BRANCH  19  20
HETATM   20  C8  UNL     1     -17.813 -46.350  -6.748  1.00  0.00     0.277 A 
HETATM   21  N6  UNL     1     -17.351 -46.649  -5.544  1.00  0.00    -0.259 N 
HETATM   22  N7  UNL     1     -18.684 -46.244  -5.642  1.00  0.00    -0.259 N 
ATOM     23  H6  UNL     1     -16.573 -46.957  -4.959  1.00  0.00     0.190 HD
ATOM     24  H7  UNL     1     -19.593 -46.033  -5.230  1.00  0.00     0.190 HD
ENDBRANCH  19  20
ENDBRANCH  17  19
ENDBRANCH   8  17
BRANCH   5  25
HETATM   25  N3  UNL     1     -18.028 -42.584 -11.591  1.00  0.00    -0.384 N 
ATOM     26  H32 UNL     1     -19.002 -42.819 -11.788  1.00  0.00     0.157 HD
ATOM     27  H31 UNL     1     -17.469 -42.174 -12.340  1.00  0.00     0.157 HD
ENDBRANCH   5  25
TORSDOF 5
ENDMDL
MODEL 3
REMARK VINA RESULT: -6.516370175      3.401      5.335
REMARK  5 active torsions:
REMARK  status: ('A' for Active; 'I' for Inactive)
REMARK    1  A    between atoms: C3_4  and  N2_5 
REMARK    2  A    between atoms: C6_9  and  N3_10 
REMARK    3  A    between atoms: C7_15  and  N5_16 
REMARK    4  A    between atoms: N5_16  and  O1_18 
REMARK    5  A    between atoms: O1_18  and  C8_19 
ROOT
HETATM    1  N2  UNL     1     -20.089 -40.527 -13.187  1.00  0.00    -0.137 N 
HETATM    2  C4  UNL     1     -19.027 -41.010 -12.464  1.00  0.00     0.144 A 
HETATM    3  C5  UNL     1     -19.021 -42.279 -11.963  1.00  0.00     0.094 A 
HETATM    4 CL1  UNL     1     -17.660 -42.907 -11.031  1.00  0.00    -0.079 Cl
HETATM    5  C6  UNL     1     -20.124 -43.086 -12.199  1.00  0.00     0.138 A 
HETATM    6  N4  UNL     1     -21.150 -42.575 -12.916  1.00  0.00    -0.173 N 
ATOM      7  H4  UNL     1     -21.965 -43.162 -13.096  1.00  0.00     0.186 HD
HETATM    8  C7  UNL     1     -21.133 -41.296 -13.410  1.00  0.00     0.712 A 
ENDROOT
BRANCH   1   9
HETATM    9  C3  UNL     1     -19.973 -39.193 -13.653  1.00  0.00     0.161 A 
HETATM   10  C2  UNL     1     -19.185 -38.816 -14.739  1.00  0.00     0.162 A 
HETATM   11  N1  UNL     1     -19.294 -37.500 -14.882  1.00  0.00    -0.290 N 
HETATM   12  C1  UNL     1     -18.636 -36.692 -15.896  1.00  0.00     0.178 C 
HETATM   13  N9  UNL     1     -20.103 -37.072 -13.943  1.00  0.00    -0.240 N 
HETATM   14  N8  UNL     1     -20.527 -38.065 -13.188  1.00  0.00    -0.269 N 
ATOM     15  H9  UNL     1     -20.369 -36.096 -13.813  1.00  0.00     0.208 HD
ATOM     16  H8  UNL     1     -21.162 -37.988 -12.393  1.00  0.00     0.190 HD
ENDBRANCH   1   9
BRANCH   8  17
HETATM   17  N5  UNL     1     -22.139 -40.921 -14.063  1.00  0.00    -0.087 N 
ATOM     18  H5  UNL     1     -22.875 -40.421 -13.565  1.00  0.00     0.214 HD
BRANCH  17  19
HETATM   19  O1  UNL     1     -22.305 -41.140 -15.381  1.00  0.00    -0.183 OA
BRANCH  19  20
HETATM   20  C8  UNL     1     -22.316 -40.105 -16.300  1.00  0.00     0.277 A 
HETATM   21  N6  UNL     1     -22.511 -38.795 -16.317  1.00  0.00    -0.259 N 
HETATM   22  N7  UNL     1     -22.224 -39.421 -17.532  1.00  0.00    -0.259 N 
ATOM     23  H6  UNL     1     -22.721 -37.938 -15.805  1.00  0.00     0.190 HD
ATOM     24  H7  UNL     1     -22.068 -39.401 -18.540  1.00  0.00     0.190 HD
ENDBRANCH  19  20
ENDBRANCH  17  19
ENDBRANCH   8  17
BRANCH   5  25
HETATM   25  N3  UNL     1     -20.142 -44.279 -11.741  1.00  0.00    -0.384 N 
ATOM     26  H32 UNL     1     -19.299 -44.744 -11.406  1.00  0.00     0.157 HD
ATOM     27  H31 UNL     1     -21.024 -44.790 -11.704  1.00  0.00     0.157 HD
ENDBRANCH   5  25
TORSDOF 5
ENDMDL
MODEL 4
REMARK VINA RESULT: -6.496290246      3.660      5.482
REMARK  5 active torsions:
REMARK  status: ('A' for Active; 'I' for Inactive)
REMARK    1  A    between atoms: C3_4  and  N2_5 
REMARK    2  A    between atoms: C6_9  and  N3_10 
REMARK    3  A    between atoms: C7_15  and  N5_16 
REMARK    4  A    between atoms: N5_16  and  O1_18 
REMARK    5  A    between atoms: O1_18  and  C8_19 
ROOT
HETATM    1  N2  UNL     1     -17.007 -43.572  -9.384  1.00  0.00    -0.137 N 
HETATM    2  C4  UNL     1     -17.654 -42.794 -10.310  1.00  0.00     0.144 A 
HETATM    3  C5  UNL     1     -18.434 -43.343 -11.286  1.00  0.00     0.094 A 
HETATM    4 CL1  UNL     1     -19.269 -42.348 -12.482  1.00  0.00    -0.079 Cl
HETATM    5  C6  UNL     1     -18.564 -44.723 -11.328  1.00  0.00     0.138 A 
HETATM    6  N4  UNL     1     -17.912 -45.456 -10.398  1.00  0.00    -0.173 N 
ATOM      7  H4  UNL     1     -18.002 -46.472 -10.420  1.00  0.00     0.186 HD
HETATM    8  C7  UNL     1     -17.133 -44.882  -9.426  1.00  0.00     0.712 A 
ENDROOT
BRANCH   1   9
HETATM    9  C3  UNL     1     -16.227 -42.883  -8.422  1.00  0.00     0.161 A 
HETATM   10  C2  UNL     1     -16.767 -42.119  -7.387  1.00  0.00     0.162 A 
HETATM   11  N1  UNL     1     -15.759 -41.603  -6.695  1.00  0.00    -0.290 N 
HETATM   12  C1  UNL     1     -15.873 -40.742  -5.529  1.00  0.00     0.178 C 
HETATM   13  N9  UNL     1     -14.649 -42.015  -7.258  1.00  0.00    -0.240 N 
HETATM   14  N8  UNL     1     -14.896 -42.785  -8.298  1.00  0.00    -0.269 N 
ATOM     15  H9  UNL     1     -13.713 -41.770  -6.933  1.00  0.00     0.208 HD
ATOM     16  H8  UNL     1     -14.201 -43.226  -8.900  1.00  0.00     0.190 HD
ENDBRANCH   1   9
BRANCH   8  17
HETATM   17  N5  UNL     1     -16.571 -45.656  -8.611  1.00  0.00    -0.087 N 
ATOM     18  H5  UNL     1     -15.559 -45.763  -8.672  1.00  0.00     0.214 HD
BRANCH  17  19
HETATM   19  O1  UNL     1     -17.224 -46.353  -7.662  1.00  0.00    -0.183 OA
BRANCH  19  20
HETATM   20  C8  UNL     1     -17.634 -45.768  -6.475  1.00  0.00     0.277 A 
HETATM   21  N6  UNL     1     -17.095 -45.136  -5.444  1.00  0.00    -0.259 N 
HETATM   22  N7  UNL     1     -18.480 -45.324  -5.437  1.00  0.00    -0.259 N 
ATOM     23  H6  UNL     1     -16.262 -44.771  -4.982  1.00  0.00     0.190 HD
ATOM     24  H7  UNL     1     -19.400 -45.220  -5.008  1.00  0.00     0.190 HD
ENDBRANCH  19  20
ENDBRANCH  17  19
ENDBRANCH   8  17
BRANCH   5  25
HETATM   25  N3  UNL     1     -19.290 -45.261 -12.231  1.00  0.00    -0.384 N 
ATOM     26  H32 UNL     1     -20.277 -45.030 -12.344  1.00  0.00     0.157 HD
ATOM     27  H31 UNL     1     -18.877 -45.944 -12.867  1.00  0.00     0.157 HD
ENDBRANCH   5  25
TORSDOF 5
ENDMDL
MODEL 5
REMARK VINA RESULT: -6.493800536      2.685      4.088
REMARK  5 active torsions:
REMARK  status: ('A' for Active; 'I' for Inactive)
REMARK    1  A    between atoms: C3_4  and  N2_5 
REMARK    2  A    between atoms: C6_9  and  N3_10 
REMARK    3  A    between atoms: C7_15  and  N5_16 
REMARK    4  A    between atoms: N5_16  and  O1_18 
REMARK    5  A    between atoms: O1_18  and  C8_19 
ROOT
HETATM    1  N2  UNL     1     -18.961 -42.084 -11.848  1.00  0.00    -0.137 N 
HETATM    2  C4  UNL     1     -17.884 -42.012 -11.001  1.00  0.00     0.144 A 
HETATM    3  C5  UNL     1     -17.422 -43.108 -10.335  1.00  0.00     0.094 A 
HETATM    4 CL1  UNL     1     -16.037 -43.022  -9.243  1.00  0.00    -0.079 Cl
HETATM    5  C6  UNL     1     -18.071 -44.319 -10.528  1.00  0.00     0.138 A 
HETATM    6  N4  UNL     1     -19.128 -44.351 -11.370  1.00  0.00    -0.173 N 
ATOM      7  H4  UNL     1     -19.612 -45.237 -11.520  1.00  0.00     0.186 HD
HETATM    8  C7  UNL     1     -19.574 -43.235 -12.031  1.00  0.00     0.712 A 
ENDROOT
BRANCH   1   9
HETATM    9  C3  UNL     1     -19.342 -40.875 -12.481  1.00  0.00     0.161 A 
HETATM   10  C2  UNL     1     -19.071 -40.579 -13.817  1.00  0.00     0.162 A 
HETATM   11  N1  UNL     1     -19.548 -39.365 -14.068  1.00  0.00    -0.290 N 
HETATM   12  C1  UNL     1     -19.480 -38.666 -15.341  1.00  0.00     0.178 C 
HETATM   13  N9  UNL     1     -20.087 -38.921 -12.958  1.00  0.00    -0.240 N 
HETATM   14  N8  UNL     1     -19.979 -39.804 -11.987  1.00  0.00    -0.269 N 
ATOM     15  H9  UNL     1     -20.533 -38.008 -12.859  1.00  0.00     0.208 HD
ATOM     16  H8  UNL     1     -20.319 -39.694 -11.031  1.00  0.00     0.190 HD
ENDBRANCH   1   9
BRANCH   8  17
HETATM   17  N5  UNL     1     -20.565 -43.376 -12.790  1.00  0.00    -0.087 N 
ATOM     18  H5  UNL     1     -20.391 -43.519 -13.784  1.00  0.00     0.214 HD
BRANCH  17  19
HETATM   19  O1  UNL     1     -21.844 -43.350 -12.370  1.00  0.00    -0.183 OA
BRANCH  19  20
HETATM   20  C8  UNL     1     -22.690 -42.294 -12.663  1.00  0.00     0.277 A 
HETATM   21  N6  UNL     1     -22.785 -41.316 -13.550  1.00  0.00    -0.259 N 
HETATM   22  N7  UNL     1     -23.780 -41.401 -12.573  1.00  0.00    -0.259 N 
ATOM     23  H6  UNL     1     -22.403 -40.839 -14.367  1.00  0.00     0.190 HD
ATOM     24  H7  UNL     1     -24.638 -41.071 -12.132  1.00  0.00     0.190 HD
ENDBRANCH  19  20
ENDBRANCH  17  19
ENDBRANCH   8  17
BRANCH   5  25
HETATM   25  N3  UNL     1     -17.658 -45.361  -9.916  1.00  0.00    -0.384 N 
ATOM     26  H32 UNL     1     -18.111 -45.709  -9.070  1.00  0.00     0.157 HD
ATOM     27  H31 UNL     1     -16.851 -45.870 -10.276  1.00  0.00     0.157 HD
ENDBRANCH   5  25
TORSDOF 5
ENDMDL
