MODEL 1
REMARK VINA RESULT: -8.864737932      0.000      0.000
REMARK  5 active torsions:
REMARK  status: ('A' for Active; 'I' for Inactive)
REMARK       I    between atoms: C1_4  and  N3_6 
REMARK       I    between atoms: N3_6  and  C2_8 
REMARK    1  A    between atoms: C2_8  and  C3_10 
REMARK    2  A    between atoms: C4_13  and  C5_14 
REMARK    3  A    between atoms: C5_14  and  N5_15 
REMARK    4  A    between atoms: C5_14  and  O2_19 
REMARK    5  A    between atoms: C7_24  and  N7_25 
ROOT
HETATM    1  C3  UNL     1       5.132  -0.135  12.026  1.00  0.00     0.191 A 
HETATM    2  N4  UNL     1       4.741  -1.369  12.402  1.00  0.00    -0.333 N 
ATOM      3  H4  UNL     1       3.748  -1.588  12.488  1.00  0.00     0.167 HD
HETATM    4  C4  UNL     1       5.659  -2.304  12.665  1.00  0.00     0.115 A 
HETATM    5  C6  UNL     1       7.001  -1.946  12.530  1.00  0.00     0.188 A 
HETATM    6  N6  UNL     1       8.140  -2.635  12.714  1.00  0.00    -0.170 N 
ATOM      7  H6  UNL     1       8.217  -3.610  13.005  1.00  0.00     0.186 HD
HETATM    8  C7  UNL     1       9.165  -1.799  12.444  1.00  0.00     0.693 A 
HETATM    9  N8  UNL     1       8.682  -0.590  12.090  1.00  0.00    -0.109 N 
ATOM     10  H8  UNL     1       9.215   0.241  11.831  1.00  0.00     0.208 HD
HETATM   11  N9  UNL     1       7.368  -0.715  12.154  1.00  0.00    -0.161 N 
HETATM   12  N10 UNL     1       6.432   0.163  11.910  1.00  0.00    -0.257 N 
ATOM     13  H10 UNL     1       6.700   1.103  11.623  1.00  0.00     0.191 HD
ENDROOT
BRANCH   1  14
HETATM   14  C2  UNL     1       4.181   0.919  11.729  1.00  0.00     0.293 C 
HETATM   15  N3  UNL     1       4.582   2.097  11.050  1.00  0.00    -0.295 N 
HETATM   16  C1  UNL     1       3.693   3.149  10.740  1.00  0.00     0.188 C 
ATOM     17  H3  UNL     1       5.560   2.189  10.773  1.00  0.00     0.171 HD
HETATM   18  N1  UNL     1       4.108   4.186  10.129  1.00  0.00    -0.373 N 
HETATM   19  N2  UNL     1       2.339   3.042  11.114  1.00  0.00    -0.064 NA
ATOM     20  H12 UNL     1       3.465   4.946   9.905  1.00  0.00     0.158 HD
ATOM     21  H11 UNL     1       5.088   4.264   9.858  1.00  0.00     0.158 HD
HETATM   22  O1  UNL     1       2.999   0.766  12.084  1.00  0.00    -0.264 OA
ENDBRANCH   1  14
BRANCH   4  23
HETATM   23  C5  UNL     1       5.339  -3.694  13.088  1.00  0.00     0.371 C 
BRANCH  23  24
HETATM   24  N5  UNL     1       5.301  -4.509  11.888  1.00  0.00    -0.047 N 
ATOM     25  H53 UNL     1       4.797  -4.066  11.120  1.00  0.00     0.277 HD
ATOM     26  H52 UNL     1       6.208  -4.582  11.426  1.00  0.00     0.277 HD
ATOM     27  H51 UNL     1       4.913  -5.415  12.151  1.00  0.00     0.277 HD
ENDBRANCH  23  24
BRANCH  23  28
HETATM   28  O2  UNL     1       6.229  -4.172  14.024  1.00  0.00    -0.365 OA
ATOM     29  H2  UNL     1       6.494  -5.066  13.844  1.00  0.00     0.212 HD
ENDBRANCH  23  28
ENDBRANCH   4  23
BRANCH   8  30
HETATM   30  N7  UNL     1      10.434  -2.075  12.501  1.00  0.00    -0.233 N 
ATOM     31  H72 UNL     1      10.807  -2.920  12.935  1.00  0.00     0.174 HD
ATOM     32  H71 UNL     1      11.201  -1.511  12.137  1.00  0.00     0.174 HD
ENDBRANCH   8  30
TORSDOF 5
ENDMDL
MODEL 2
REMARK VINA RESULT: -8.265717444      2.188      6.306
REMARK  5 active torsions:
REMARK  status: ('A' for Active; 'I' for Inactive)
REMARK       I    between atoms: C1_4  and  N3_6 
REMARK       I    between atoms: N3_6  and  C2_8 
REMARK    1  A    between atoms: C2_8  and  C3_10 
REMARK    2  A    between atoms: C4_13  and  C5_14 
REMARK    3  A    between atoms: C5_14  and  N5_15 
REMARK    4  A    between atoms: C5_14  and  O2_19 
REMARK    5  A    between atoms: C7_24  and  N7_25 
ROOT
HETATM    1  C3  UNL     1       5.362  -2.962  12.312  1.00  0.00     0.191 A 
HETATM    2  N4  UNL     1       6.609  -2.450  12.334  1.00  0.00    -0.333 N 
ATOM      3  H4  UNL     1       7.416  -3.071  12.401  1.00  0.00     0.167 HD
HETATM    4  C4  UNL     1       6.784  -1.127  12.269  1.00  0.00     0.115 A 
HETATM    5  C6  UNL     1       5.643  -0.329  12.178  1.00  0.00     0.188 A 
HETATM    6  N6  UNL     1       5.478   1.002  12.099  1.00  0.00    -0.170 N 
ATOM      7  H6  UNL     1       6.218   1.704  12.090  1.00  0.00     0.186 HD
HETATM    8  C7  UNL     1       4.151   1.242  12.032  1.00  0.00     0.693 A 
HETATM    9  N8  UNL     1       3.478   0.072  12.067  1.00  0.00    -0.109 N 
ATOM     10  H8  UNL     1       2.468  -0.064  12.033  1.00  0.00     0.208 HD
HETATM   11  N9  UNL     1       4.413  -0.857  12.156  1.00  0.00    -0.161 N 
HETATM   12  N10 UNL     1       4.296  -2.156  12.223  1.00  0.00    -0.257 N 
ATOM     13  H10 UNL     1       3.364  -2.569  12.207  1.00  0.00     0.191 HD
ENDROOT
BRANCH   1  14
HETATM   14  C2  UNL     1       5.111  -4.389  12.379  1.00  0.00     0.293 C 
HETATM   15  N3  UNL     1       5.207  -5.092  13.605  1.00  0.00    -0.295 N 
HETATM   16  C1  UNL     1       4.973  -6.479  13.719  1.00  0.00     0.188 C 
ATOM     17  H3  UNL     1       5.458  -4.570  14.446  1.00  0.00     0.171 HD
HETATM   18  N1  UNL     1       5.075  -7.061  14.848  1.00  0.00    -0.373 N 
HETATM   19  N2  UNL     1       4.625  -7.218  12.571  1.00  0.00    -0.064 NA
ATOM     20  H12 UNL     1       4.905  -8.064  14.930  1.00  0.00     0.158 HD
ATOM     21  H11 UNL     1       5.326  -6.526  15.679  1.00  0.00     0.158 HD
HETATM   22  O1  UNL     1       4.807  -4.985  11.331  1.00  0.00    -0.264 OA
ENDBRANCH   1  14
BRANCH   4  23
HETATM   23  C5  UNL     1       8.113  -0.457  12.287  1.00  0.00     0.371 C 
BRANCH  23  24
HETATM   24  N5  UNL     1       9.116  -1.491  12.112  1.00  0.00    -0.047 N 
ATOM     25  H53 UNL     1       9.005  -2.269  12.762  1.00  0.00     0.277 HD
ATOM     26  H52 UNL     1       8.996  -2.022  11.250  1.00  0.00     0.277 HD
ATOM     27  H51 UNL     1      10.028  -1.040  12.180  1.00  0.00     0.277 HD
ENDBRANCH  23  24
BRANCH  23  28
HETATM   28  O2  UNL     1       8.208   0.537  11.340  1.00  0.00    -0.365 OA
ATOM     29  H2  UNL     1       8.933   1.127  11.510  1.00  0.00     0.212 HD
ENDBRANCH  23  28
ENDBRANCH   4  23
BRANCH   8  30
HETATM   30  N7  UNL     1       3.570   2.401  11.944  1.00  0.00    -0.233 N 
ATOM     31  H72 UNL     1       4.072   3.269  11.755  1.00  0.00     0.174 HD
ATOM     32  H71 UNL     1       2.575   2.597  12.048  1.00  0.00     0.174 HD
ENDBRANCH   8  30
TORSDOF 5
ENDMDL
MODEL 3
REMARK VINA RESULT: -8.162143954      1.284      3.126
REMARK  5 active torsions:
REMARK  status: ('A' for Active; 'I' for Inactive)
REMARK       I    between atoms: C1_4  and  N3_6 
REMARK       I    between atoms: N3_6  and  C2_8 
REMARK    1  A    between atoms: C2_8  and  C3_10 
REMARK    2  A    between atoms: C4_13  and  C5_14 
REMARK    3  A    between atoms: C5_14  and  N5_15 
REMARK    4  A    between atoms: C5_14  and  O2_19 
REMARK    5  A    between atoms: C7_24  and  N7_25 
ROOT
HETATM    1  C3  UNL     1       4.763  -0.355  12.164  1.00  0.00     0.191 A 
HETATM    2  N4  UNL     1       6.111  -0.364  12.187  1.00  0.00    -0.333 N 
ATOM      3  H4  UNL     1       6.632   0.481  11.954  1.00  0.00     0.167 HD
HETATM    4  C4  UNL     1       6.761  -1.484  12.515  1.00  0.00     0.115 A 
HETATM    5  C6  UNL     1       5.994  -2.608  12.825  1.00  0.00     0.188 A 
HETATM    6  N6  UNL     1       6.331  -3.858  13.186  1.00  0.00    -0.170 N 
ATOM      7  H6  UNL     1       7.278  -4.219  13.303  1.00  0.00     0.186 HD
HETATM    8  C7  UNL     1       5.186  -4.549  13.366  1.00  0.00     0.693 A 
HETATM    9  N8  UNL     1       4.130  -3.746  13.122  1.00  0.00    -0.109 N 
ATOM     10  H8  UNL     1       3.140  -3.987  13.176  1.00  0.00     0.208 HD
HETATM   11  N9  UNL     1       4.657  -2.578  12.797  1.00  0.00    -0.161 N 
HETATM   12  N10 UNL     1       4.069  -1.459  12.469  1.00  0.00    -0.257 N 
ATOM     13  H10 UNL     1       3.050  -1.425  12.444  1.00  0.00     0.191 HD
ENDROOT
BRANCH   1  14
HETATM   14  C2  UNL     1       4.004   0.831  11.814  1.00  0.00     0.293 C 
HETATM   15  N3  UNL     1       4.623   1.935  11.180  1.00  0.00    -0.295 N 
HETATM   16  C1  UNL     1       3.925   3.110  10.823  1.00  0.00     0.188 C 
ATOM     17  H3  UNL     1       5.621   1.880  10.972  1.00  0.00     0.171 HD
HETATM   18  N1  UNL     1       4.533   4.075  10.255  1.00  0.00    -0.373 N 
HETATM   19  N2  UNL     1       2.548   3.207  11.101  1.00  0.00    -0.064 NA
ATOM     20  H12 UNL     1       4.028   4.923   9.996  1.00  0.00     0.158 HD
ATOM     21  H11 UNL     1       5.530   4.004  10.053  1.00  0.00     0.158 HD
HETATM   22  O1  UNL     1       2.790   0.855  12.085  1.00  0.00    -0.264 OA
ENDBRANCH   1  14
BRANCH   4  23
HETATM   23  C5  UNL     1       8.243  -1.605  12.572  1.00  0.00     0.371 C 
BRANCH  23  24
HETATM   24  N5  UNL     1       8.794  -0.413  11.954  1.00  0.00    -0.047 N 
ATOM     25  H53 UNL     1       8.679  -0.398  10.941  1.00  0.00     0.277 HD
ATOM     26  H52 UNL     1       8.255   0.429  12.159  1.00  0.00     0.277 HD
ATOM     27  H51 UNL     1       9.768  -0.344  12.247  1.00  0.00     0.277 HD
ENDBRANCH  23  24
BRANCH  23  28
HETATM   28  O2  UNL     1       8.703  -1.795  13.855  1.00  0.00    -0.365 OA
ATOM     29  H2  UNL     1       9.453  -2.376  13.887  1.00  0.00     0.212 HD
ENDBRANCH  23  28
ENDBRANCH   4  23
BRANCH   8  30
HETATM   30  N7  UNL     1       5.073  -5.794  13.720  1.00  0.00    -0.233 N 
ATOM     31  H72 UNL     1       5.592  -6.209  14.494  1.00  0.00     0.174 HD
ATOM     32  H71 UNL     1       4.477  -6.502  13.291  1.00  0.00     0.174 HD
ENDBRANCH   8  30
TORSDOF 5
ENDMDL
MODEL 4
REMARK VINA RESULT: -8.026939727      2.547      5.084
REMARK  5 active torsions:
REMARK  status: ('A' for Active; 'I' for Inactive)
REMARK       I    between atoms: C1_4  and  N3_6 
REMARK       I    between atoms: N3_6  and  C2_8 
REMARK    1  A    between atoms: C2_8  and  C3_10 
REMARK    2  A    between atoms: C4_13  and  C5_14 
REMARK    3  A    between atoms: C5_14  and  N5_15 
REMARK    4  A    between atoms: C5_14  and  O2_19 
REMARK    5  A    between atoms: C7_24  and  N7_25 
ROOT
HETATM    1  C3  UNL     1       6.247  -1.735  12.021  1.00  0.00     0.191 A 
HETATM    2  N4  UNL     1       7.465  -2.142  12.428  1.00  0.00    -0.333 N 
ATOM      3  H4  UNL     1       7.592  -3.081  12.807  1.00  0.00     0.167 HD
HETATM    4  C4  UNL     1       8.508  -1.311  12.334  1.00  0.00     0.115 A 
HETATM    5  C6  UNL     1       8.275  -0.041  11.807  1.00  0.00     0.188 A 
HETATM    6  N6  UNL     1       9.087   1.006  11.584  1.00  0.00    -0.170 N 
ATOM      7  H6  UNL     1      10.088   1.046  11.778  1.00  0.00     0.186 HD
HETATM    8  C7  UNL     1       8.337   1.995  11.055  1.00  0.00     0.693 A 
HETATM    9  N8  UNL     1       7.057   1.581  10.943  1.00  0.00    -0.109 N 
ATOM     10  H8  UNL     1       6.263   2.108  10.578  1.00  0.00     0.208 HD
HETATM   11  N9  UNL     1       7.057   0.344  11.408  1.00  0.00    -0.161 N 
HETATM   12  N10 UNL     1       6.071  -0.505  11.521  1.00  0.00    -0.257 N 
ATOM     13  H10 UNL     1       5.139  -0.223  11.219  1.00  0.00     0.191 HD
ENDROOT
BRANCH   1  14
HETATM   14  C2  UNL     1       5.080  -2.593  12.099  1.00  0.00     0.293 C 
HETATM   15  N3  UNL     1       5.210  -3.992  12.276  1.00  0.00    -0.295 N 
HETATM   16  C1  UNL     1       4.104  -4.866  12.357  1.00  0.00     0.188 C 
ATOM     17  H3  UNL     1       6.148  -4.387  12.348  1.00  0.00     0.171 HD
HETATM   18  N1  UNL     1       4.279  -6.117  12.515  1.00  0.00    -0.373 N 
HETATM   19  N2  UNL     1       2.800  -4.341  12.259  1.00  0.00    -0.064 NA
ATOM     20  H12 UNL     1       3.480  -6.748  12.574  1.00  0.00     0.158 HD
ATOM     21  H11 UNL     1       5.223  -6.498  12.586  1.00  0.00     0.158 HD
HETATM   22  O1  UNL     1       3.955  -2.069  12.007  1.00  0.00    -0.264 OA
ENDBRANCH   1  14
BRANCH   4  23
HETATM   23  C5  UNL     1       9.893  -1.657  12.754  1.00  0.00     0.371 C 
BRANCH  23  24
HETATM   24  N5  UNL     1      10.655  -1.916  11.547  1.00  0.00    -0.047 N 
ATOM     25  H53 UNL     1      10.615  -1.148  10.876  1.00  0.00     0.277 HD
ATOM     26  H52 UNL     1      11.663  -1.905  11.700  1.00  0.00     0.277 HD
ATOM     27  H51 UNL     1      10.319  -2.800  11.163  1.00  0.00     0.277 HD
ENDBRANCH  23  24
BRANCH  23  28
HETATM   28  O2  UNL     1      10.461  -0.676  13.537  1.00  0.00    -0.365 OA
ATOM     29  H2  UNL     1      11.014  -0.090  13.034  1.00  0.00     0.212 HD
ENDBRANCH  23  28
ENDBRANCH   4  23
BRANCH   8  30
HETATM   30  N7  UNL     1       8.742   3.176  10.696  1.00  0.00    -0.233 N 
ATOM     31  H72 UNL     1       9.725   3.447  10.658  1.00  0.00     0.174 HD
ATOM     32  H71 UNL     1       8.160   3.965  10.413  1.00  0.00     0.174 HD
ENDBRANCH   8  30
TORSDOF 5
ENDMDL
MODEL 5
REMARK VINA RESULT: -7.903672124      1.583      3.274
REMARK  5 active torsions:
REMARK  status: ('A' for Active; 'I' for Inactive)
REMARK       I    between atoms: C1_4  and  N3_6 
REMARK       I    between atoms: N3_6  and  C2_8 
REMARK    1  A    between atoms: C2_8  and  C3_10 
REMARK    2  A    between atoms: C4_13  and  C5_14 
REMARK    3  A    between atoms: C5_14  and  N5_15 
REMARK    4  A    between atoms: C5_14  and  O2_19 
REMARK    5  A    between atoms: C7_24  and  N7_25 
ROOT
HETATM    1  C3  UNL     1       5.701  -0.012  12.052  1.00  0.00     0.191 A 
HETATM    2  N4  UNL     1       7.034  -0.201  12.120  1.00  0.00    -0.333 N 
ATOM      3  H4  UNL     1       7.671   0.549  11.853  1.00  0.00     0.167 HD
HETATM    4  C4  UNL     1       7.516  -1.375  12.537  1.00  0.00     0.115 A 
HETATM    5  C6  UNL     1       6.596  -2.362  12.889  1.00  0.00     0.188 A 
HETATM    6  N6  UNL     1       6.750  -3.620  13.337  1.00  0.00    -0.170 N 
ATOM      7  H6  UNL     1       7.636  -4.097  13.507  1.00  0.00     0.186 HD
HETATM    8  C7  UNL     1       5.517  -4.138  13.520  1.00  0.00     0.693 A 
HETATM    9  N8  UNL     1       4.587  -3.216  13.193  1.00  0.00    -0.109 N 
ATOM     10  H8  UNL     1       3.572  -3.318  13.229  1.00  0.00     0.208 HD
HETATM   11  N9  UNL     1       5.276  -2.155  12.815  1.00  0.00    -0.161 N 
HETATM   12  N10 UNL     1       4.855  -0.990  12.400  1.00  0.00    -0.257 N 
ATOM     13  H10 UNL     1       3.851  -0.820  12.340  1.00  0.00     0.191 HD
ENDROOT
BRANCH   1  14
HETATM   14  C2  UNL     1       5.120   1.240  11.606  1.00  0.00     0.293 C 
HETATM   15  N3  UNL     1       3.735   1.498  11.753  1.00  0.00    -0.295 N 
HETATM   16  C1  UNL     1       3.125   2.701  11.334  1.00  0.00     0.188 C 
ATOM     17  H3  UNL     1       3.150   0.780  12.182  1.00  0.00     0.171 HD
HETATM   18  N1  UNL     1       1.873   2.879  11.489  1.00  0.00    -0.373 N 
HETATM   19  N2  UNL     1       3.914   3.705  10.740  1.00  0.00    -0.064 NA
ATOM     20  H12 UNL     1       1.433   3.748  11.187  1.00  0.00     0.158 HD
ATOM     21  H11 UNL     1       1.302   2.152  11.919  1.00  0.00     0.158 HD
HETATM   22  O1  UNL     1       5.869   2.088  11.090  1.00  0.00    -0.264 OA
ENDBRANCH   1  14
BRANCH   4  23
HETATM   23  C5  UNL     1       8.966  -1.690  12.650  1.00  0.00     0.371 C 
BRANCH  23  24
HETATM   24  N5  UNL     1       9.686  -0.661  11.923  1.00  0.00    -0.047 N 
ATOM     25  H53 UNL     1       9.170  -0.303  11.120  1.00  0.00     0.277 HD
ATOM     26  H52 UNL     1       9.755   0.217  12.438  1.00  0.00     0.277 HD
ATOM     27  H51 UNL     1      10.596  -1.049  11.673  1.00  0.00     0.277 HD
ENDBRANCH  23  24
BRANCH  23  28
HETATM   28  O2  UNL     1       9.377  -1.798  13.959  1.00  0.00    -0.365 OA
ATOM     29  H2  UNL     1       9.158  -1.027  14.470  1.00  0.00     0.212 HD
ENDBRANCH  23  28
ENDBRANCH   4  23
BRANCH   8  30
HETATM   30  N7  UNL     1       5.226  -5.331  13.945  1.00  0.00    -0.233 N 
ATOM     31  H72 UNL     1       5.822  -5.863  14.579  1.00  0.00     0.174 HD
ATOM     32  H71 UNL     1       4.398  -5.879  13.714  1.00  0.00     0.174 HD
ENDBRANCH   8  30
TORSDOF 5
ENDMDL
