MODEL 1
REMARK VINA RESULT: -8.142195842      0.000      0.000
REMARK  9 active torsions:
REMARK  status: ('A' for Active; 'I' for Inactive)
REMARK    1  A    between atoms: C2_2  and  C3_3 
REMARK    2  A    between atoms: C3_3  and  C4_6 
REMARK    3  A    between atoms: C4_6  and  O1_7 
REMARK    4  A    between atoms: C4_6  and  O2_9 
REMARK    5  A    between atoms: C4_6  and  C5_11 
REMARK    6  A    between atoms: C5_11  and  N1_12 
REMARK    7  A    between atoms: C9_18  and  S2_19 
REMARK    8  A    between atoms: S2_19  and  N2_22 
REMARK    9  A    between atoms: C11_24  and  C12_25 
ROOT
HETATM    1  N1  UNL     1       4.547  29.064  55.161  1.00  0.00    -0.302 N 
HETATM    2  C6  UNL     1       3.506  29.262  54.333  1.00  0.00     0.291 A 
HETATM    3  O3  UNL     1       3.054  28.589  53.369  1.00  0.00    -0.259 OA
HETATM    4  S1  UNL     1       2.792  30.752  54.851  1.00  0.00    -0.027 SA
HETATM    5  C7  UNL     1       3.887  31.052  56.133  1.00  0.00     0.038 A 
HETATM    6  C8  UNL     1       3.969  32.099  57.071  1.00  0.00     0.046 A 
HETATM    7  C9  UNL     1       4.957  32.094  58.031  1.00  0.00     0.076 A 
HETATM    8  C16 UNL     1       5.812  31.023  57.987  1.00  0.00     0.027 A 
HETATM    9  C17 UNL     1       5.725  30.017  57.076  1.00  0.00     0.032 A 
HETATM   10  C18 UNL     1       4.729  29.996  56.085  1.00  0.00     0.055 A 
ENDROOT
BRANCH   7  11
HETATM   11  S2  UNL     1       5.068  33.383  59.194  1.00  0.00     0.245 S 
HETATM   12  O4  UNL     1       4.490  32.970  60.539  1.00  0.00    -0.206 OA
HETATM   13  O5  UNL     1       4.244  34.581  58.752  1.00  0.00    -0.206 OA
BRANCH  11  14
HETATM   14  N2  UNL     1       6.685  33.880  59.464  1.00  0.00    -0.187 NA
HETATM   15  C10 UNL     1       6.762  34.766  60.581  1.00  0.00     0.124 C 
HETATM   16  C11 UNL     1       8.157  35.338  60.758  1.00  0.00     0.101 C 
HETATM   17  C13 UNL     1       9.104  34.556  59.903  1.00  0.00     0.019 C 
HETATM   18  C14 UNL     1       8.946  33.075  59.964  1.00  0.00     0.038 C 
HETATM   19  C15 UNL     1       7.498  32.721  59.708  1.00  0.00     0.170 C 
HETATM   20 CL1  UNL     1       6.866  31.752  61.038  1.00  0.00    -0.107 Cl
BRANCH  16  21
HETATM   21  C12 UNL     1       8.552  35.423  62.177  1.00  0.00     0.178 C 
HETATM   22  O6  UNL     1       9.405  36.265  62.517  1.00  0.00    -0.648 OA
HETATM   23  O7  UNL     1       8.012  34.606  63.129  1.00  0.00    -0.648 OA
ENDBRANCH  16  21
ENDBRANCH  11  14
ENDBRANCH   7  11
BRANCH   1  24
HETATM   24  C5  UNL     1       5.378  27.868  54.974  1.00  0.00     0.208 C 
BRANCH  24  25
HETATM   25  C4  UNL     1       6.603  27.914  54.230  1.00  0.00     0.244 C 
BRANCH  25  26
HETATM   26  C3  UNL     1       7.957  27.808  54.745  1.00  0.00     0.299 C 
HETATM   27  F1  UNL     1       8.334  28.625  55.769  1.00  0.00    -0.200 F 
HETATM   28  F2  UNL     1       8.089  26.515  55.315  1.00  0.00    -0.200 F 
BRANCH  26  29
HETATM   29  C2  UNL     1       9.046  27.806  53.696  1.00  0.00     0.080 C 
HETATM   30  C1  UNL     1      10.247  27.049  54.224  1.00  0.00     0.011 C 
ENDBRANCH  26  29
ENDBRANCH  25  26
BRANCH  25  31
HETATM   31  O1  UNL     1       6.598  29.109  53.443  1.00  0.00    -0.360 OA
ATOM     32  H1  UNL     1       6.406  29.808  54.057  1.00  0.00     0.213 HD
ENDBRANCH  25  31
BRANCH  25  33
HETATM   33  O2  UNL     1       6.547  26.968  53.130  1.00  0.00    -0.360 OA
ATOM     34  H2  UNL     1       5.805  27.246  52.606  1.00  0.00     0.213 HD
ENDBRANCH  25  33
ENDBRANCH  24  25
ENDBRANCH   1  24
TORSDOF 9
ENDMDL
MODEL 2
REMARK VINA RESULT: -7.787004116      3.639      8.565
REMARK  9 active torsions:
REMARK  status: ('A' for Active; 'I' for Inactive)
REMARK    1  A    between atoms: C2_2  and  C3_3 
REMARK    2  A    between atoms: C3_3  and  C4_6 
REMARK    3  A    between atoms: C4_6  and  O1_7 
REMARK    4  A    between atoms: C4_6  and  O2_9 
REMARK    5  A    between atoms: C4_6  and  C5_11 
REMARK    6  A    between atoms: C5_11  and  N1_12 
REMARK    7  A    between atoms: C9_18  and  S2_19 
REMARK    8  A    between atoms: S2_19  and  N2_22 
REMARK    9  A    between atoms: C11_24  and  C12_25 
ROOT
HETATM    1  N1  UNL     1       5.692  32.910  62.692  1.00  0.00    -0.302 N 
HETATM    2  C6  UNL     1       5.637  32.184  63.823  1.00  0.00     0.291 A 
HETATM    3  O3  UNL     1       5.671  32.511  65.039  1.00  0.00    -0.259 OA
HETATM    4  S1  UNL     1       5.492  30.540  63.299  1.00  0.00    -0.027 SA
HETATM    5  C7  UNL     1       5.508  30.874  61.620  1.00  0.00     0.038 A 
HETATM    6  C8  UNL     1       5.415  30.032  60.495  1.00  0.00     0.046 A 
HETATM    7  C9  UNL     1       5.436  30.566  59.225  1.00  0.00     0.076 A 
HETATM    8  C16 UNL     1       5.550  31.931  59.165  1.00  0.00     0.027 A 
HETATM    9  C17 UNL     1       5.640  32.736  60.257  1.00  0.00     0.032 A 
HETATM   10  C18 UNL     1       5.623  32.220  61.564  1.00  0.00     0.055 A 
ENDROOT
BRANCH   7  11
HETATM   11  S2  UNL     1       5.323  29.534  57.829  1.00  0.00     0.245 S 
HETATM   12  O4  UNL     1       5.268  30.344  56.542  1.00  0.00    -0.206 OA
HETATM   13  O5  UNL     1       4.033  28.731  57.854  1.00  0.00    -0.206 OA
BRANCH  11  14
HETATM   14  N2  UNL     1       6.652  28.461  57.701  1.00  0.00    -0.187 NA
HETATM   15  C10 UNL     1       6.990  28.234  56.333  1.00  0.00     0.124 C 
HETATM   16  C11 UNL     1       8.070  27.177  56.181  1.00  0.00     0.101 C 
HETATM   17  C13 UNL     1       8.677  26.922  57.525  1.00  0.00     0.019 C 
HETATM   18  C14 UNL     1       9.002  28.139  58.322  1.00  0.00     0.038 C 
HETATM   19  C15 UNL     1       7.778  29.025  58.392  1.00  0.00     0.170 C 
HETATM   20 CL1  UNL     1       8.164  30.639  57.797  1.00  0.00    -0.107 Cl
BRANCH  16  21
HETATM   21  C12 UNL     1       9.046  27.521  55.131  1.00  0.00     0.178 C 
HETATM   22  O6  UNL     1      10.104  26.868  55.053  1.00  0.00    -0.648 OA
HETATM   23  O7  UNL     1       8.827  28.534  54.241  1.00  0.00    -0.648 OA
ENDBRANCH  16  21
ENDBRANCH  11  14
ENDBRANCH   7  11
BRANCH   1  24
HETATM   24  C5  UNL     1       5.828  34.369  62.798  1.00  0.00     0.208 C 
BRANCH  24  25
HETATM   25  C4  UNL     1       7.111  35.007  62.759  1.00  0.00     0.244 C 
BRANCH  25  26
HETATM   26  C3  UNL     1       7.928  35.287  61.590  1.00  0.00     0.299 C 
HETATM   27  F1  UNL     1       7.307  35.507  60.396  1.00  0.00    -0.200 F 
HETATM   28  F2  UNL     1       8.591  36.518  61.827  1.00  0.00    -0.200 F 
BRANCH  26  29
HETATM   29  C2  UNL     1       9.084  34.338  61.371  1.00  0.00     0.080 C 
HETATM   30  C1  UNL     1      10.142  35.025  60.532  1.00  0.00     0.011 C 
ENDBRANCH  26  29
ENDBRANCH  25  26
BRANCH  25  31
HETATM   31  O1  UNL     1       7.979  34.312  63.660  1.00  0.00    -0.360 OA
ATOM     32  H1  UNL     1       7.775  33.393  63.540  1.00  0.00     0.213 HD
ENDBRANCH  25  31
BRANCH  25  33
HETATM   33  O2  UNL     1       7.059  36.264  63.486  1.00  0.00    -0.360 OA
ATOM     34  H2  UNL     1       7.048  36.934  62.813  1.00  0.00     0.213 HD
ENDBRANCH  25  33
ENDBRANCH  24  25
ENDBRANCH   1  24
TORSDOF 9
ENDMDL
MODEL 3
REMARK VINA RESULT: -7.728628389      2.337      3.002
REMARK  9 active torsions:
REMARK  status: ('A' for Active; 'I' for Inactive)
REMARK    1  A    between atoms: C2_2  and  C3_3 
REMARK    2  A    between atoms: C3_3  and  C4_6 
REMARK    3  A    between atoms: C4_6  and  O1_7 
REMARK    4  A    between atoms: C4_6  and  O2_9 
REMARK    5  A    between atoms: C4_6  and  C5_11 
REMARK    6  A    between atoms: C5_11  and  N1_12 
REMARK    7  A    between atoms: C9_18  and  S2_19 
REMARK    8  A    between atoms: S2_19  and  N2_22 
REMARK    9  A    between atoms: C11_24  and  C12_25 
ROOT
HETATM    1  N1  UNL     1       6.952  28.718  56.043  1.00  0.00    -0.302 N 
HETATM    2  C6  UNL     1       5.878  28.261  55.373  1.00  0.00     0.291 A 
HETATM    3  O3  UNL     1       5.757  27.707  54.249  1.00  0.00    -0.259 OA
HETATM    4  S1  UNL     1       4.529  28.580  56.411  1.00  0.00    -0.027 SA
HETATM    5  C7  UNL     1       5.429  29.297  57.679  1.00  0.00     0.038 A 
HETATM    6  C8  UNL     1       5.039  29.824  58.925  1.00  0.00     0.046 A 
HETATM    7  C9  UNL     1       5.982  30.337  59.787  1.00  0.00     0.076 A 
HETATM    8  C16 UNL     1       7.277  30.288  59.337  1.00  0.00     0.027 A 
HETATM    9  C17 UNL     1       7.644  29.777  58.131  1.00  0.00     0.032 A 
HETATM   10  C18 UNL     1       6.704  29.248  57.231  1.00  0.00     0.055 A 
ENDROOT
BRANCH   7  11
HETATM   11  S2  UNL     1       5.511  30.992  61.328  1.00  0.00     0.245 S 
HETATM   12  O4  UNL     1       5.959  30.097  62.473  1.00  0.00    -0.206 OA
HETATM   13  O5  UNL     1       3.997  31.065  61.443  1.00  0.00    -0.206 OA
BRANCH  11  14
HETATM   14  N2  UNL     1       6.172  32.548  61.606  1.00  0.00    -0.187 NA
HETATM   15  C10 UNL     1       7.371  32.730  60.852  1.00  0.00     0.124 C 
HETATM   16  C11 UNL     1       8.058  34.042  61.185  1.00  0.00     0.101 C 
HETATM   17  C13 UNL     1       7.108  34.892  61.969  1.00  0.00     0.019 C 
HETATM   18  C14 UNL     1       5.716  34.951  61.438  1.00  0.00     0.038 C 
HETATM   19  C15 UNL     1       5.206  33.543  61.229  1.00  0.00     0.170 C 
HETATM   20 CL1  UNL     1       4.672  33.332  59.563  1.00  0.00    -0.107 Cl
BRANCH  16  21
HETATM   21  C12 UNL     1       8.616  34.702  59.989  1.00  0.00     0.178 C 
HETATM   22  O6  UNL     1       9.649  35.388  60.105  1.00  0.00    -0.648 OA
HETATM   23  O7  UNL     1       8.033  34.584  58.759  1.00  0.00    -0.648 OA
ENDBRANCH  16  21
ENDBRANCH  11  14
ENDBRANCH   7  11
BRANCH   1  24
HETATM   24  C5  UNL     1       8.275  28.601  55.415  1.00  0.00     0.208 C 
BRANCH  24  25
HETATM   25  C4  UNL     1       9.060  27.408  55.537  1.00  0.00     0.244 C 
BRANCH  25  26
HETATM   26  C3  UNL     1      10.106  26.940  54.644  1.00  0.00     0.299 C 
HETATM   27  F1  UNL     1      11.403  27.022  55.055  1.00  0.00    -0.200 F 
HETATM   28  F2  UNL     1       9.921  25.543  54.477  1.00  0.00    -0.200 F 
BRANCH  26  29
HETATM   29  C2  UNL     1      10.012  27.446  53.222  1.00  0.00     0.080 C 
HETATM   30  C1  UNL     1      11.401  27.774  52.715  1.00  0.00     0.011 C 
ENDBRANCH  26  29
ENDBRANCH  25  26
BRANCH  25  31
HETATM   31  O1  UNL     1       8.165  26.300  55.673  1.00  0.00    -0.360 OA
ATOM     32  H1  UNL     1       7.568  26.550  56.367  1.00  0.00     0.213 HD
ENDBRANCH  25  31
BRANCH  25  33
HETATM   33  O2  UNL     1       9.645  27.337  56.865  1.00  0.00    -0.360 OA
ATOM     34  H2  UNL     1       9.480  26.449  57.157  1.00  0.00     0.213 HD
ENDBRANCH  25  33
ENDBRANCH  24  25
ENDBRANCH   1  24
TORSDOF 9
ENDMDL
MODEL 4
REMARK VINA RESULT: -7.660331784      3.782      8.548
REMARK  9 active torsions:
REMARK  status: ('A' for Active; 'I' for Inactive)
REMARK    1  A    between atoms: C2_2  and  C3_3 
REMARK    2  A    between atoms: C3_3  and  C4_6 
REMARK    3  A    between atoms: C4_6  and  O1_7 
REMARK    4  A    between atoms: C4_6  and  O2_9 
REMARK    5  A    between atoms: C4_6  and  C5_11 
REMARK    6  A    between atoms: C5_11  and  N1_12 
REMARK    7  A    between atoms: C9_18  and  S2_19 
REMARK    8  A    between atoms: S2_19  and  N2_22 
REMARK    9  A    between atoms: C11_24  and  C12_25 
ROOT
HETATM    1  N1  UNL     1       5.715  33.852  62.160  1.00  0.00    -0.302 N 
HETATM    2  C6  UNL     1       4.842  33.788  63.180  1.00  0.00     0.291 A 
HETATM    3  O3  UNL     1       4.435  34.653  63.999  1.00  0.00    -0.259 OA
HETATM    4  S1  UNL     1       4.290  32.146  63.201  1.00  0.00    -0.027 SA
HETATM    5  C7  UNL     1       5.226  31.614  61.870  1.00  0.00     0.038 A 
HETATM    6  C8  UNL     1       5.330  30.361  61.237  1.00  0.00     0.046 A 
HETATM    7  C9  UNL     1       6.162  30.199  60.151  1.00  0.00     0.076 A 
HETATM    8  C16 UNL     1       6.847  31.322  59.765  1.00  0.00     0.027 A 
HETATM    9  C17 UNL     1       6.742  32.528  60.383  1.00  0.00     0.032 A 
HETATM   10  C18 UNL     1       5.902  32.723  61.493  1.00  0.00     0.055 A 
ENDROOT
BRANCH   7  11
HETATM   11  S2  UNL     1       6.298  28.654  59.362  1.00  0.00     0.245 S 
HETATM   12  O4  UNL     1       5.651  27.551  60.186  1.00  0.00    -0.206 OA
HETATM   13  O5  UNL     1       7.756  28.247  59.219  1.00  0.00    -0.206 OA
BRANCH  11  14
HETATM   14  N2  UNL     1       5.556  28.642  57.818  1.00  0.00    -0.187 NA
HETATM   15  C10 UNL     1       4.783  29.826  57.619  1.00  0.00     0.124 C 
HETATM   16  C11 UNL     1       3.998  29.782  56.321  1.00  0.00     0.101 C 
HETATM   17  C13 UNL     1       4.516  28.650  55.490  1.00  0.00     0.019 C 
HETATM   18  C14 UNL     1       6.000  28.543  55.410  1.00  0.00     0.038 C 
HETATM   19  C15 UNL     1       6.574  28.552  56.809  1.00  0.00     0.170 C 
HETATM   20 CL1  UNL     1       7.763  29.843  56.968  1.00  0.00    -0.107 Cl
BRANCH  16  21
HETATM   21  C12 UNL     1       3.985  31.084  55.629  1.00  0.00     0.178 C 
HETATM   22  O6  UNL     1       3.326  31.203  54.579  1.00  0.00    -0.648 OA
HETATM   23  O7  UNL     1       4.674  32.163  56.104  1.00  0.00    -0.648 OA
ENDBRANCH  16  21
ENDBRANCH  11  14
ENDBRANCH   7  11
BRANCH   1  24
HETATM   24  C5  UNL     1       6.379  35.133  61.881  1.00  0.00     0.208 C 
BRANCH  24  25
HETATM   25  C4  UNL     1       7.549  35.543  62.599  1.00  0.00     0.244 C 
BRANCH  25  26
HETATM   26  C3  UNL     1       8.895  35.714  62.078  1.00  0.00     0.299 C 
HETATM   27  F1  UNL     1       9.580  36.849  62.396  1.00  0.00    -0.200 F 
HETATM   28  F2  UNL     1       9.699  34.695  62.652  1.00  0.00    -0.200 F 
BRANCH  26  29
HETATM   29  C2  UNL     1       9.051  35.448  60.599  1.00  0.00     0.080 C 
HETATM   30  C1  UNL     1      10.050  34.328  60.395  1.00  0.00     0.011 C 
ENDBRANCH  26  29
ENDBRANCH  25  26
BRANCH  25  31
HETATM   31  O1  UNL     1       7.697  34.683  63.734  1.00  0.00    -0.360 OA
ATOM     32  H1  UNL     1       6.811  34.456  63.988  1.00  0.00     0.213 HD
ENDBRANCH  25  31
BRANCH  25  33
HETATM   33  O2  UNL     1       7.275  36.768  63.331  1.00  0.00    -0.360 OA
ATOM     34  H2  UNL     1       7.766  36.685  64.139  1.00  0.00     0.213 HD
ENDBRANCH  25  33
ENDBRANCH  24  25
ENDBRANCH   1  24
TORSDOF 9
ENDMDL
MODEL 5
REMARK VINA RESULT: -7.622778291      3.740      9.004
REMARK  9 active torsions:
REMARK  status: ('A' for Active; 'I' for Inactive)
REMARK    1  A    between atoms: C2_2  and  C3_3 
REMARK    2  A    between atoms: C3_3  and  C4_6 
REMARK    3  A    between atoms: C4_6  and  O1_7 
REMARK    4  A    between atoms: C4_6  and  O2_9 
REMARK    5  A    between atoms: C4_6  and  C5_11 
REMARK    6  A    between atoms: C5_11  and  N1_12 
REMARK    7  A    between atoms: C9_18  and  S2_19 
REMARK    8  A    between atoms: S2_19  and  N2_22 
REMARK    9  A    between atoms: C11_24  and  C12_25 
ROOT
HETATM    1  N1  UNL     1       6.173  33.374  61.893  1.00  0.00    -0.302 N 
HETATM    2  C6  UNL     1       5.754  32.792  63.031  1.00  0.00     0.291 A 
HETATM    3  O3  UNL     1       5.505  33.256  64.175  1.00  0.00    -0.259 OA
HETATM    4  S1  UNL     1       5.580  31.112  62.643  1.00  0.00    -0.027 SA
HETATM    5  C7  UNL     1       6.064  31.244  61.006  1.00  0.00     0.038 A 
HETATM    6  C8  UNL     1       6.179  30.285  59.982  1.00  0.00     0.046 A 
HETATM    7  C9  UNL     1       6.582  30.663  58.720  1.00  0.00     0.076 A 
HETATM    8  C16 UNL     1       6.847  31.999  58.565  1.00  0.00     0.027 A 
HETATM    9  C17 UNL     1       6.735  32.918  59.560  1.00  0.00     0.032 A 
HETATM   10  C18 UNL     1       6.327  32.562  60.857  1.00  0.00     0.055 A 
ENDROOT
BRANCH   7  11
HETATM   11  S2  UNL     1       6.727  29.486  57.447  1.00  0.00     0.245 S 
HETATM   12  O4  UNL     1       6.707  28.068  57.997  1.00  0.00    -0.206 OA
HETATM   13  O5  UNL     1       8.064  29.623  56.736  1.00  0.00    -0.206 OA
BRANCH  11  14
HETATM   14  N2  UNL     1       5.462  29.607  56.298  1.00  0.00    -0.187 NA
HETATM   15  C10 UNL     1       5.468  28.483  55.418  1.00  0.00     0.124 C 
HETATM   16  C11 UNL     1       4.452  28.630  54.300  1.00  0.00     0.101 C 
HETATM   17  C13 UNL     1       3.531  29.761  54.640  1.00  0.00     0.019 C 
HETATM   18  C14 UNL     1       3.030  29.777  56.043  1.00  0.00     0.038 C 
HETATM   19  C15 UNL     1       4.205  29.675  56.990  1.00  0.00     0.170 C 
HETATM   20 CL1  UNL     1       3.988  28.307  58.079  1.00  0.00    -0.107 Cl
BRANCH  16  21
HETATM   21  C12 UNL     1       3.765  27.361  53.997  1.00  0.00     0.178 C 
HETATM   22  O6  UNL     1       3.606  27.030  52.807  1.00  0.00    -0.648 OA
HETATM   23  O7  UNL     1       3.297  26.537  54.981  1.00  0.00    -0.648 OA
ENDBRANCH  16  21
ENDBRANCH  11  14
ENDBRANCH   7  11
BRANCH   1  24
HETATM   24  C5  UNL     1       6.427  34.820  61.894  1.00  0.00     0.208 C 
BRANCH  24  25
HETATM   25  C4  UNL     1       7.567  35.381  62.557  1.00  0.00     0.244 C 
BRANCH  25  26
HETATM   26  C3  UNL     1       8.850  35.731  61.971  1.00  0.00     0.299 C 
HETATM   27  F1  UNL     1       9.360  36.973  62.208  1.00  0.00    -0.200 F 
HETATM   28  F2  UNL     1       9.823  34.880  62.555  1.00  0.00    -0.200 F 
BRANCH  26  29
HETATM   29  C2  UNL     1       8.993  35.417  60.500  1.00  0.00     0.080 C 
HETATM   30  C1  UNL     1       9.982  34.283  60.325  1.00  0.00     0.011 C 
ENDBRANCH  26  29
ENDBRANCH  25  26
BRANCH  25  31
HETATM   31  O1  UNL     1       7.886  34.546  63.675  1.00  0.00    -0.360 OA
ATOM     32  H1  UNL     1       7.056  34.390  64.110  1.00  0.00     0.213 HD
ENDBRANCH  25  31
BRANCH  25  33
HETATM   33  O2  UNL     1       7.170  36.557  63.312  1.00  0.00    -0.360 OA
ATOM     34  H2  UNL     1       6.232  36.464  63.433  1.00  0.00     0.213 HD
ENDBRANCH  25  33
ENDBRANCH  24  25
ENDBRANCH   1  24
TORSDOF 9
ENDMDL
