MODEL 1
REMARK VINA RESULT: -8.162744669      0.000      0.000
REMARK  7 active torsions:
REMARK  status: ('A' for Active; 'I' for Inactive)
REMARK    1  A    between atoms: C2_2  and  N1_3 
REMARK    2  A    between atoms: N2_6  and  C5_7 
REMARK    3  A    between atoms: C7_11  and  N4_12 
REMARK    4  A    between atoms: N6_17  and  C9_18 
REMARK    5  A    between atoms: C12_21  and  O1_22 
REMARK    6  A    between atoms: C12_21  and  C13_24 
REMARK    7  A    between atoms: C18_32  and  C19_33 
ROOT
HETATM    1  C9  UNL     1       7.078  31.018  57.729  1.00  0.00     0.125 C 
HETATM    2  C10 UNL     1       5.714  31.608  57.713  1.00  0.00     0.032 C 
HETATM    3  C11 UNL     1       5.284  32.294  58.961  1.00  0.00     0.046 C 
HETATM    4  C12 UNL     1       6.372  32.830  59.825  1.00  0.00     0.118 C 
HETATM    5  C14 UNL     1       7.622  32.018  59.868  1.00  0.00     0.065 C 
HETATM    6  C15 UNL     1       7.505  30.704  59.144  1.00  0.00     0.120 C 
HETATM    7  C16 UNL     1       6.599  29.773  59.777  1.00  0.00     0.066 C 
HETATM    8  N7  UNL     1       5.882  29.023  60.281  1.00  0.00    -0.197 NA
ENDROOT
BRANCH   1   9
HETATM    9  N6  UNL     1       7.102  29.823  56.909  1.00  0.00    -0.295 N 
HETATM   10  N5  UNL     1       6.064  29.300  56.269  1.00  0.00    -0.282 N 
HETATM   11  C8  UNL     1       6.436  28.197  55.606  1.00  0.00     0.138 A 
ATOM     12  H5  UNL     1       5.119  29.682  56.280  1.00  0.00     0.189 HD
HETATM   13  N4  UNL     1       5.741  27.409  54.871  1.00  0.00    -0.327 N 
HETATM   14  C18 UNL     1       7.797  28.011  55.841  1.00  0.00     0.091 A 
ATOM     15  H4  UNL     1       6.209  26.610  54.444  1.00  0.00     0.169 HD
HETATM   16  C17 UNL     1       8.172  29.053  56.663  1.00  0.00     0.131 A 
BRANCH  13  17
HETATM   17  C7  UNL     1       4.374  27.586  54.624  1.00  0.00     0.108 A 
HETATM   18  N3  UNL     1       3.565  26.517  54.710  1.00  0.00    -0.350 N 
HETATM   19  C6  UNL     1       2.232  26.584  54.487  1.00  0.00     0.120 A 
ATOM     20  H3  UNL     1       3.974  25.615  54.953  1.00  0.00     0.166 HD
HETATM   21  C5  UNL     1       1.648  27.792  54.156  1.00  0.00     0.068 A 
HETATM   22  C21 UNL     1       2.468  28.890  54.065  1.00  0.00     0.065 A 
HETATM   23  C20 UNL     1       3.836  28.798  54.297  1.00  0.00     0.074 A 
HETATM   24 CL1  UNL     1       1.846  30.459  53.650  1.00  0.00    -0.082 Cl
BRANCH  21  25
HETATM   25  N2  UNL     1       0.261  27.936  53.912  1.00  0.00    -0.375 N 
HETATM   26  C4  UNL     1      -0.660  28.206  55.007  1.00  0.00     0.153 C 
HETATM   27  C3  UNL     1      -2.000  27.556  54.626  1.00  0.00     0.292 C 
HETATM   28  N1  UNL     1      -1.688  26.402  53.815  1.00  0.00     0.091 N 
HETATM   29  C23 UNL     1      -1.396  26.843  52.465  1.00  0.00     0.292 C 
HETATM   30  C22 UNL     1      -0.235  27.811  52.543  1.00  0.00     0.153 C 
BRANCH  28  31
HETATM   31  C2  UNL     1      -2.749  25.415  53.840  1.00  0.00     0.268 C 
HETATM   32  C1  UNL     1      -2.723  24.534  52.610  1.00  0.00     0.037 C 
ENDBRANCH  28  31
ENDBRANCH  21  25
ENDBRANCH  13  17
BRANCH  14  33
HETATM   33  C19 UNL     1       8.607  26.930  55.309  1.00  0.00     0.270 C 
HETATM   34  N8  UNL     1       9.090  26.967  53.984  1.00  0.00    -0.057 NA
HETATM   35  O2  UNL     1       8.872  25.957  56.048  1.00  0.00    -0.271 OA
ENDBRANCH  14  33
ENDBRANCH   1   9
BRANCH   4  36
HETATM   36  O1  UNL     1       5.880  32.870  61.152  1.00  0.00    -0.384 OA
ATOM     37  H1  UNL     1       6.626  32.990  61.730  1.00  0.00     0.210 HD
ENDBRANCH   4  36
BRANCH   4  38
HETATM   38  C13 UNL     1       6.665  34.294  59.482  1.00  0.00     0.387 C 
HETATM   39  F1  UNL     1       6.830  35.036  60.634  1.00  0.00    -0.211 F 
HETATM   40  F2  UNL     1       7.838  34.382  58.758  1.00  0.00    -0.211 F 
ENDBRANCH   4  38
TORSDOF 7
ENDMDL
MODEL 2
REMARK VINA RESULT: -8.099589177      1.078      1.918
REMARK  7 active torsions:
REMARK  status: ('A' for Active; 'I' for Inactive)
REMARK    1  A    between atoms: C2_2  and  N1_3 
REMARK    2  A    between atoms: N2_6  and  C5_7 
REMARK    3  A    between atoms: C7_11  and  N4_12 
REMARK    4  A    between atoms: N6_17  and  C9_18 
REMARK    5  A    between atoms: C12_21  and  O1_22 
REMARK    6  A    between atoms: C12_21  and  C13_24 
REMARK    7  A    between atoms: C18_32  and  C19_33 
ROOT
HETATM    1  C9  UNL     1       7.096  31.019  57.741  1.00  0.00     0.125 C 
HETATM    2  C10 UNL     1       5.738  31.621  57.716  1.00  0.00     0.032 C 
HETATM    3  C11 UNL     1       5.305  32.308  58.962  1.00  0.00     0.046 C 
HETATM    4  C12 UNL     1       6.391  32.833  59.836  1.00  0.00     0.118 C 
HETATM    5  C14 UNL     1       7.633  32.010  59.886  1.00  0.00     0.065 C 
HETATM    6  C15 UNL     1       7.510  30.698  59.158  1.00  0.00     0.120 C 
HETATM    7  C16 UNL     1       6.591  29.774  59.783  1.00  0.00     0.066 C 
HETATM    8  N7  UNL     1       5.863  29.030  60.280  1.00  0.00    -0.197 NA
ENDROOT
BRANCH   1   9
HETATM    9  N6  UNL     1       7.116  29.825  56.919  1.00  0.00    -0.295 N 
HETATM   10  N5  UNL     1       6.075  29.304  56.283  1.00  0.00    -0.282 N 
HETATM   11  C8  UNL     1       6.443  28.202  55.616  1.00  0.00     0.138 A 
ATOM     12  H5  UNL     1       5.130  29.687  56.299  1.00  0.00     0.189 HD
HETATM   13  N4  UNL     1       5.745  27.415  54.883  1.00  0.00    -0.327 N 
HETATM   14  C18 UNL     1       7.805  28.015  55.845  1.00  0.00     0.091 A 
ATOM     15  H4  UNL     1       6.210  26.617  54.453  1.00  0.00     0.169 HD
HETATM   16  C17 UNL     1       8.184  29.055  56.667  1.00  0.00     0.131 A 
BRANCH  13  17
HETATM   17  C7  UNL     1       4.377  27.594  54.642  1.00  0.00     0.108 A 
HETATM   18  N3  UNL     1       3.562  26.534  54.771  1.00  0.00    -0.350 N 
HETATM   19  C6  UNL     1       2.227  26.603  54.559  1.00  0.00     0.120 A 
ATOM     20  H3  UNL     1       3.966  25.637  55.041  1.00  0.00     0.166 HD
HETATM   21  C5  UNL     1       1.648  27.803  54.192  1.00  0.00     0.068 A 
HETATM   22  C21 UNL     1       2.474  28.891  54.056  1.00  0.00     0.065 A 
HETATM   23  C20 UNL     1       3.843  28.798  54.279  1.00  0.00     0.074 A 
HETATM   24 CL1  UNL     1       1.859  30.450  53.594  1.00  0.00    -0.082 Cl
BRANCH  21  25
HETATM   25  N2  UNL     1       0.260  27.949  53.956  1.00  0.00    -0.375 N 
HETATM   26  C4  UNL     1      -0.301  27.689  52.638  1.00  0.00     0.153 C 
HETATM   27  C3  UNL     1      -1.514  28.620  52.485  1.00  0.00     0.292 C 
HETATM   28  N1  UNL     1      -1.231  29.807  53.257  1.00  0.00     0.091 N 
HETATM   29  C23 UNL     1      -1.488  29.527  54.657  1.00  0.00     0.292 C 
HETATM   30  C22 UNL     1      -0.605  28.364  55.058  1.00  0.00     0.153 C 
BRANCH  28  31
HETATM   31  C2  UNL     1      -1.984  30.954  52.792  1.00  0.00     0.268 C 
HETATM   32  C1  UNL     1      -2.197  31.969  53.894  1.00  0.00     0.037 C 
ENDBRANCH  28  31
ENDBRANCH  21  25
ENDBRANCH  13  17
BRANCH  14  33
HETATM   33  C19 UNL     1       8.612  26.934  55.308  1.00  0.00     0.270 C 
HETATM   34  N8  UNL     1       9.099  26.977  53.983  1.00  0.00    -0.057 NA
HETATM   35  O2  UNL     1       8.873  25.956  56.041  1.00  0.00    -0.271 OA
ENDBRANCH  14  33
ENDBRANCH   1   9
BRANCH   4  36
HETATM   36  O1  UNL     1       5.889  32.875  61.159  1.00  0.00    -0.384 OA
ATOM     37  H1  UNL     1       6.567  33.252  61.709  1.00  0.00     0.210 HD
ENDBRANCH   4  36
BRANCH   4  38
HETATM   38  C13 UNL     1       6.699  34.295  59.497  1.00  0.00     0.387 C 
HETATM   39  F1  UNL     1       6.971  35.009  60.646  1.00  0.00    -0.211 F 
HETATM   40  F2  UNL     1       7.816  34.366  58.688  1.00  0.00    -0.211 F 
ENDBRANCH   4  38
TORSDOF 7
ENDMDL
MODEL 3
REMARK VINA RESULT: -8.059788277      1.315      1.921
REMARK  7 active torsions:
REMARK  status: ('A' for Active; 'I' for Inactive)
REMARK    1  A    between atoms: C2_2  and  N1_3 
REMARK    2  A    between atoms: N2_6  and  C5_7 
REMARK    3  A    between atoms: C7_11  and  N4_12 
REMARK    4  A    between atoms: N6_17  and  C9_18 
REMARK    5  A    between atoms: C12_21  and  O1_22 
REMARK    6  A    between atoms: C12_21  and  C13_24 
REMARK    7  A    between atoms: C18_32  and  C19_33 
ROOT
HETATM    1  C9  UNL     1       6.468  30.742  58.988  1.00  0.00     0.125 C 
HETATM    2  C10 UNL     1       7.756  31.242  59.533  1.00  0.00     0.032 C 
HETATM    3  C11 UNL     1       7.731  32.610  60.118  1.00  0.00     0.046 C 
HETATM    4  C12 UNL     1       6.414  33.083  60.628  1.00  0.00     0.118 C 
HETATM    5  C14 UNL     1       5.222  32.631  59.855  1.00  0.00     0.065 C 
HETATM    6  C15 UNL     1       5.575  31.895  58.591  1.00  0.00     0.120 C 
HETATM    7  C16 UNL     1       6.200  32.730  57.590  1.00  0.00     0.066 C 
HETATM    8  N7  UNL     1       6.693  33.393  56.785  1.00  0.00    -0.197 NA
ENDROOT
BRANCH   1   9
HETATM    9  N6  UNL     1       6.721  29.877  57.852  1.00  0.00    -0.295 N 
HETATM   10  N5  UNL     1       5.803  29.395  57.024  1.00  0.00    -0.282 N 
HETATM   11  C8  UNL     1       6.380  28.632  56.086  1.00  0.00     0.138 A 
ATOM     12  H5  UNL     1       4.802  29.579  57.091  1.00  0.00     0.189 HD
HETATM   13  N4  UNL     1       5.850  27.993  55.109  1.00  0.00    -0.327 N 
HETATM   14  C18 UNL     1       7.751  28.632  56.337  1.00  0.00     0.091 A 
ATOM     15  H4  UNL     1       6.462  27.459  54.493  1.00  0.00     0.169 HD
HETATM   16  C17 UNL     1       7.919  29.425  57.452  1.00  0.00     0.131 A 
BRANCH  13  17
HETATM   17  C7  UNL     1       4.475  27.987  54.844  1.00  0.00     0.108 A 
HETATM   18  N3  UNL     1       3.811  26.823  54.938  1.00  0.00    -0.350 N 
HETATM   19  C6  UNL     1       2.483  26.713  54.699  1.00  0.00     0.120 A 
ATOM     20  H3  UNL     1       4.330  25.985  55.199  1.00  0.00     0.166 HD
HETATM   21  C5  UNL     1       1.752  27.829  54.343  1.00  0.00     0.068 A 
HETATM   22  C21 UNL     1       2.422  29.023  54.244  1.00  0.00     0.065 A 
HETATM   23  C20 UNL     1       3.787  29.114  54.493  1.00  0.00     0.074 A 
HETATM   24 CL1  UNL     1       1.607  30.492  53.798  1.00  0.00    -0.082 Cl
BRANCH  21  25
HETATM   25  N2  UNL     1       0.360  27.788  54.082  1.00  0.00    -0.375 N 
HETATM   26  C4  UNL     1      -0.602  27.866  55.172  1.00  0.00     0.153 C 
HETATM   27  C3  UNL     1      -1.830  27.054  54.734  1.00  0.00     0.292 C 
HETATM   28  N1  UNL     1      -1.349  26.000  53.872  1.00  0.00     0.091 N 
HETATM   29  C23 UNL     1      -1.108  26.549  52.551  1.00  0.00     0.292 C 
HETATM   30  C22 UNL     1      -0.098  27.666  52.700  1.00  0.00     0.153 C 
BRANCH  28  31
HETATM   31  C2  UNL     1      -2.258  24.873  53.827  1.00  0.00     0.268 C 
HETATM   32  C1  UNL     1      -2.465  24.375  52.413  1.00  0.00     0.037 C 
ENDBRANCH  28  31
ENDBRANCH  21  25
ENDBRANCH  13  17
BRANCH  14  33
HETATM   33  C19 UNL     1       8.753  27.929  55.557  1.00  0.00     0.270 C 
HETATM   34  N8  UNL     1       8.923  28.194  54.181  1.00  0.00    -0.057 NA
HETATM   35  O2  UNL     1       9.470  27.078  56.126  1.00  0.00    -0.271 OA
ENDBRANCH  14  33
ENDBRANCH   1   9
BRANCH   4  36
HETATM   36  O1  UNL     1       6.416  34.497  60.562  1.00  0.00    -0.384 OA
ATOM     37  H1  UNL     1       5.531  34.793  60.744  1.00  0.00     0.210 HD
ENDBRANCH   4  36
BRANCH   4  38
HETATM   38  C13 UNL     1       6.267  32.771  62.121  1.00  0.00     0.387 C 
HETATM   39  F1  UNL     1       6.208  31.408  62.325  1.00  0.00    -0.211 F 
HETATM   40  F2  UNL     1       7.364  33.249  62.812  1.00  0.00    -0.211 F 
ENDBRANCH   4  38
TORSDOF 7
ENDMDL
MODEL 4
REMARK VINA RESULT: -7.959365656      4.172      9.017
REMARK  7 active torsions:
REMARK  status: ('A' for Active; 'I' for Inactive)
REMARK    1  A    between atoms: C2_2  and  N1_3 
REMARK    2  A    between atoms: N2_6  and  C5_7 
REMARK    3  A    between atoms: C7_11  and  N4_12 
REMARK    4  A    between atoms: N6_17  and  C9_18 
REMARK    5  A    between atoms: C12_21  and  O1_22 
REMARK    6  A    between atoms: C12_21  and  C13_24 
REMARK    7  A    between atoms: C18_32  and  C19_33 
ROOT
HETATM    1  C9  UNL     1       3.828  27.552  54.586  1.00  0.00     0.125 C 
HETATM    2  C10 UNL     1       3.059  27.447  55.853  1.00  0.00     0.032 C 
HETATM    3  C11 UNL     1       1.634  27.866  55.789  1.00  0.00     0.046 C 
HETATM    4  C12 UNL     1       0.981  27.777  54.453  1.00  0.00     0.118 C 
HETATM    5  C14 UNL     1       1.855  28.087  53.286  1.00  0.00     0.065 C 
HETATM    6  C15 UNL     1       3.217  28.593  53.678  1.00  0.00     0.120 C 
HETATM    7  C16 UNL     1       3.192  29.895  54.304  1.00  0.00     0.066 C 
HETATM    8  N7  UNL     1       3.179  30.937  54.799  1.00  0.00    -0.197 NA
ENDROOT
BRANCH   1   9
HETATM    9  N6  UNL     1       5.210  27.877  54.879  1.00  0.00    -0.295 N 
HETATM   10  N5  UNL     1       5.628  28.696  55.836  1.00  0.00    -0.282 N 
HETATM   11  C8  UNL     1       6.966  28.769  55.831  1.00  0.00     0.138 A 
ATOM     12  H5  UNL     1       5.019  29.197  56.483  1.00  0.00     0.189 HD
HETATM   13  N4  UNL     1       7.753  29.441  56.589  1.00  0.00    -0.327 N 
HETATM   14  C18 UNL     1       7.423  27.944  54.806  1.00  0.00     0.091 A 
ATOM     15  H4  UNL     1       8.757  29.367  56.429  1.00  0.00     0.169 HD
HETATM   16  C17 UNL     1       6.289  27.406  54.237  1.00  0.00     0.131 A 
BRANCH  13  17
HETATM   17  C7  UNL     1       7.307  30.271  57.625  1.00  0.00     0.108 A 
HETATM   18  N3  UNL     1       6.500  29.747  58.562  1.00  0.00    -0.350 N 
HETATM   19  C6  UNL     1       6.015  30.466  59.601  1.00  0.00     0.120 A 
ATOM     20  H3  UNL     1       6.241  28.763  58.488  1.00  0.00     0.166 HD
HETATM   21  C5  UNL     1       6.347  31.801  59.730  1.00  0.00     0.068 A 
HETATM   22  C21 UNL     1       7.170  32.346  58.776  1.00  0.00     0.065 A 
HETATM   23  C20 UNL     1       7.658  31.588  57.716  1.00  0.00     0.074 A 
HETATM   24 CL1  UNL     1       7.650  34.015  58.833  1.00  0.00    -0.082 Cl
BRANCH  21  25
HETATM   25  N2  UNL     1       5.879  32.613  60.791  1.00  0.00    -0.375 N 
HETATM   26  C4  UNL     1       5.028  33.763  60.527  1.00  0.00     0.153 C 
HETATM   27  C3  UNL     1       5.335  34.800  61.619  1.00  0.00     0.292 C 
HETATM   28  N1  UNL     1       6.719  34.618  61.989  1.00  0.00     0.091 N 
HETATM   29  C23 UNL     1       6.819  33.484  62.888  1.00  0.00     0.292 C 
HETATM   30  C22 UNL     1       6.263  32.278  62.161  1.00  0.00     0.153 C 
BRANCH  28  31
HETATM   31  C2  UNL     1       7.291  35.816  62.571  1.00  0.00     0.268 C 
HETATM   32  C1  UNL     1       8.723  36.024  62.131  1.00  0.00     0.037 C 
ENDBRANCH  28  31
ENDBRANCH  21  25
ENDBRANCH  13  17
BRANCH  14  33
HETATM   33  C19 UNL     1       8.814  27.728  54.450  1.00  0.00     0.270 C 
HETATM   34  N8  UNL     1       9.632  26.859  55.203  1.00  0.00    -0.057 NA
HETATM   35  O2  UNL     1       9.281  28.329  53.459  1.00  0.00    -0.271 OA
ENDBRANCH  14  33
ENDBRANCH   1   9
BRANCH   4  36
HETATM   36  O1  UNL     1      -0.068  28.727  54.428  1.00  0.00    -0.384 OA
ATOM     37  H1  UNL     1      -0.838  28.293  54.078  1.00  0.00     0.210 HD
ENDBRANCH   4  36
BRANCH   4  38
HETATM   38  C13 UNL     1       0.276  26.427  54.285  1.00  0.00     0.387 C 
HETATM   39  F1  UNL     1       1.054  25.566  53.537  1.00  0.00    -0.211 F 
HETATM   40  F2  UNL     1       0.077  25.842  55.520  1.00  0.00    -0.211 F 
ENDBRANCH   4  38
TORSDOF 7
ENDMDL
MODEL 5
REMARK VINA RESULT: -7.957936528      1.639      2.635
REMARK  7 active torsions:
REMARK  status: ('A' for Active; 'I' for Inactive)
REMARK    1  A    between atoms: C2_2  and  N1_3 
REMARK    2  A    between atoms: N2_6  and  C5_7 
REMARK    3  A    between atoms: C7_11  and  N4_12 
REMARK    4  A    between atoms: N6_17  and  C9_18 
REMARK    5  A    between atoms: C12_21  and  O1_22 
REMARK    6  A    between atoms: C12_21  and  C13_24 
REMARK    7  A    between atoms: C18_32  and  C19_33 
ROOT
HETATM    1  C9  UNL     1       6.483  30.724  59.000  1.00  0.00     0.125 C 
HETATM    2  C10 UNL     1       7.766  31.243  59.539  1.00  0.00     0.032 C 
HETATM    3  C11 UNL     1       7.725  32.610  60.121  1.00  0.00     0.046 C 
HETATM    4  C12 UNL     1       6.404  33.067  60.636  1.00  0.00     0.118 C 
HETATM    5  C14 UNL     1       5.215  32.596  59.869  1.00  0.00     0.065 C 
HETATM    6  C15 UNL     1       5.572  31.863  58.605  1.00  0.00     0.120 C 
HETATM    7  C16 UNL     1       6.181  32.705  57.600  1.00  0.00     0.066 C 
HETATM    8  N7  UNL     1       6.662  33.373  56.792  1.00  0.00    -0.197 NA
ENDROOT
BRANCH   1   9
HETATM    9  N6  UNL     1       6.743  29.860  57.865  1.00  0.00    -0.295 N 
HETATM   10  N5  UNL     1       5.831  29.383  57.028  1.00  0.00    -0.282 N 
HETATM   11  C8  UNL     1       6.413  28.620  56.093  1.00  0.00     0.138 A 
ATOM     12  H5  UNL     1       4.830  29.570  57.087  1.00  0.00     0.189 HD
HETATM   13  N4  UNL     1       5.889  27.984  55.111  1.00  0.00    -0.327 N 
HETATM   14  C18 UNL     1       7.781  28.615  56.355  1.00  0.00     0.091 A 
ATOM     15  H4  UNL     1       6.505  27.450  54.498  1.00  0.00     0.169 HD
HETATM   16  C17 UNL     1       7.942  29.405  57.474  1.00  0.00     0.131 A 
BRANCH  13  17
HETATM   17  C7  UNL     1       4.517  27.983  54.834  1.00  0.00     0.108 A 
HETATM   18  N3  UNL     1       3.844  26.826  54.940  1.00  0.00    -0.350 N 
HETATM   19  C6  UNL     1       2.517  26.721  54.692  1.00  0.00     0.120 A 
ATOM     20  H3  UNL     1       4.355  25.989  55.220  1.00  0.00     0.166 HD
HETATM   21  C5  UNL     1       1.797  27.836  54.311  1.00  0.00     0.068 A 
HETATM   22  C21 UNL     1       2.476  29.024  54.199  1.00  0.00     0.065 A 
HETATM   23  C20 UNL     1       3.840  29.109  54.458  1.00  0.00     0.074 A 
HETATM   24 CL1  UNL     1       1.675  30.491  53.722  1.00  0.00    -0.082 Cl
BRANCH  21  25
HETATM   25  N2  UNL     1       0.407  27.801  54.040  1.00  0.00    -0.375 N 
HETATM   26  C4  UNL     1      -0.081  27.458  52.712  1.00  0.00     0.153 C 
HETATM   27  C3  UNL     1      -1.398  28.223  52.515  1.00  0.00     0.292 C 
HETATM   28  N1  UNL     1      -1.289  29.445  53.277  1.00  0.00     0.091 N 
HETATM   29  C23 UNL     1      -1.546  29.150  54.675  1.00  0.00     0.292 C 
HETATM   30  C22 UNL     1      -0.533  28.114  55.114  1.00  0.00     0.153 C 
BRANCH  28  31
HETATM   31  C2  UNL     1      -2.170  30.481  52.778  1.00  0.00     0.268 C 
HETATM   32  C1  UNL     1      -2.026  31.766  53.564  1.00  0.00     0.037 C 
ENDBRANCH  28  31
ENDBRANCH  21  25
ENDBRANCH  13  17
BRANCH  14  33
HETATM   33  C19 UNL     1       8.789  27.910  55.583  1.00  0.00     0.270 C 
HETATM   34  N8  UNL     1       8.950  28.154  54.202  1.00  0.00    -0.057 NA
HETATM   35  O2  UNL     1       9.516  27.076  56.162  1.00  0.00    -0.271 OA
ENDBRANCH  14  33
ENDBRANCH   1   9
BRANCH   4  36
HETATM   36  O1  UNL     1       6.387  34.481  60.568  1.00  0.00    -0.384 OA
ATOM     37  H1  UNL     1       7.147  34.799  61.042  1.00  0.00     0.210 HD
ENDBRANCH   4  36
BRANCH   4  38
HETATM   38  C13 UNL     1       6.269  32.756  62.130  1.00  0.00     0.387 C 
HETATM   39  F1  UNL     1       6.213  31.392  62.336  1.00  0.00    -0.211 F 
HETATM   40  F2  UNL     1       7.370  33.235  62.813  1.00  0.00    -0.211 F 
ENDBRANCH   4  38
TORSDOF 7
ENDMDL
