MODEL 1
REMARK VINA RESULT: -5.593852273      0.000      0.000
REMARK  12 active torsions:
REMARK  status: ('A' for Active; 'I' for Inactive)
REMARK    1  A    between atoms: C2_2  and  C4_7 
REMARK    2  A    between atoms: C4_7  and  O2_9 
REMARK    3  A    between atoms: O2_9  and  C5_10 
REMARK    4  A    between atoms: C5_10  and  O3_11 
REMARK    5  A    between atoms: C5_10  and  C6_13 
REMARK    6  A    between atoms: C6_13  and  N3_14 
REMARK    7  A    between atoms: C6_13  and  C7_18 
REMARK    8  A    between atoms: C7_18  and  O4_19 
REMARK    9  A    between atoms: C7_18  and  C8_21 
REMARK   10  A    between atoms: C11_26  and  N5_27 
REMARK   11  A    between atoms: N5_27  and  N6_29 
REMARK   12  A    between atoms: C14_35  and  N8_36 
ROOT
HETATM    1  C1  UNL     1      40.701   5.190   6.951  1.00  0.00     0.075 C 
HETATM    2  C2  UNL     1      40.993   5.689   8.321  1.00  0.00     0.090 C 
HETATM    3  N1  UNL     1      41.184   6.924   8.463  1.00  0.00    -0.292 N 
ATOM      4  H1  UNL     1      41.130   7.520   7.638  1.00  0.00     0.178 HD
HETATM    5  C3  UNL     1      41.463   7.513   9.682  1.00  0.00     0.182 C 
HETATM    6  N2  UNL     1      41.703   8.041  10.710  1.00  0.00    -0.172 NA
ENDROOT
BRANCH   2   7
HETATM    7  C4  UNL     1      41.047   4.760   9.414  1.00  0.00     0.308 C 
HETATM    8  O1  UNL     1      42.080   4.146   9.709  1.00  0.00    -0.258 OA
BRANCH   7   9
HETATM    9  O2  UNL     1      39.895   4.538  10.171  1.00  0.00    -0.283 OA
BRANCH   9  10
HETATM   10  C5  UNL     1      39.845   4.817  11.571  1.00  0.00     0.300 C 
BRANCH  10  11
HETATM   11  O3  UNL     1      39.221   6.028  11.722  1.00  0.00    -0.368 OA
ATOM     12  H3  UNL     1      39.115   6.176  12.654  1.00  0.00     0.212 HD
ENDBRANCH  10  11
BRANCH  10  13
HETATM   13  C6  UNL     1      39.101   3.673  12.220  1.00  0.00     0.271 C 
BRANCH  13  14
HETATM   14  N3  UNL     1      38.216   4.239  13.202  1.00  0.00    -0.068 N 
ATOM     15  H33 UNL     1      37.767   5.098  12.886  1.00  0.00     0.275 HD
ATOM     16  H32 UNL     1      37.369   3.689  13.338  1.00  0.00     0.275 HD
ATOM     17  H31 UNL     1      38.753   4.363  14.060  1.00  0.00     0.275 HD
ENDBRANCH  13  14
BRANCH  13  18
HETATM   18  C7  UNL     1      40.018   2.601  12.714  1.00  0.00     0.186 C 
BRANCH  18  19
HETATM   19  O4  UNL     1      41.086   2.392  11.837  1.00  0.00    -0.389 OA
ATOM     20  H4  UNL     1      41.176   1.475  11.607  1.00  0.00     0.210 HD
ENDBRANCH  18  19
BRANCH  18  21
HETATM   21  C8  UNL     1      39.391   1.347  13.144  1.00  0.00     0.005 C 
HETATM   22  C9  UNL     1      39.607   0.785  14.325  1.00  0.00     0.013 C 
HETATM   23  C10 UNL     1      40.544   1.389  15.303  1.00  0.00     0.068 C 
HETATM   24  N4  UNL     1      38.756  -0.298  14.759  1.00  0.00    -0.347 N 
HETATM   25  C11 UNL     1      37.777  -0.748  14.085  1.00  0.00     0.116 C 
ATOM     26  H4  UNL     1      38.953  -0.729  15.662  1.00  0.00     0.167 HD
HETATM   27  C12 UNL     1      37.382  -0.042  12.847  1.00  0.00     0.196 C 
HETATM   28  C13 UNL     1      36.491   1.061  13.276  1.00  0.00     0.074 C 
HETATM   29  C14 UNL     1      38.601   0.518  12.193  1.00  0.00     0.241 C 
HETATM   30  N7  UNL     1      35.781   1.912  13.607  1.00  0.00    -0.196 NA
BRANCH  25  31
HETATM   31  N5  UNL     1      37.016  -1.827  14.600  1.00  0.00    -0.294 N 
ATOM     32  H5  UNL     1      36.450  -2.415  13.988  1.00  0.00     0.187 HD
BRANCH  31  33
HETATM   33  N6  UNL     1      37.069  -2.056  15.974  1.00  0.00    -0.344 N 
ATOM     34  H62 UNL     1      37.389  -1.321  16.606  1.00  0.00     0.176 HD
ATOM     35  H61 UNL     1      36.778  -2.973  16.312  1.00  0.00     0.176 HD
ENDBRANCH  31  33
ENDBRANCH  25  31
BRANCH  29  36
HETATM   36  N8  UNL     1      39.465  -0.631  11.886  1.00  0.00    -0.069 N 
ATOM     37  H83 UNL     1      39.995  -0.531  11.020  1.00  0.00     0.275 HD
ATOM     38  H82 UNL     1      40.271  -0.721  12.506  1.00  0.00     0.275 HD
ATOM     39  H81 UNL     1      38.842  -1.439  11.899  1.00  0.00     0.275 HD
ENDBRANCH  29  36
ENDBRANCH  18  21
ENDBRANCH  13  18
ENDBRANCH  10  13
ENDBRANCH   9  10
ENDBRANCH   7   9
ENDBRANCH   2   7
TORSDOF 12
ENDMDL
MODEL 2
REMARK VINA RESULT: -5.500324104      3.362      5.164
REMARK  12 active torsions:
REMARK  status: ('A' for Active; 'I' for Inactive)
REMARK    1  A    between atoms: C2_2  and  C4_7 
REMARK    2  A    between atoms: C4_7  and  O2_9 
REMARK    3  A    between atoms: O2_9  and  C5_10 
REMARK    4  A    between atoms: C5_10  and  O3_11 
REMARK    5  A    between atoms: C5_10  and  C6_13 
REMARK    6  A    between atoms: C6_13  and  N3_14 
REMARK    7  A    between atoms: C6_13  and  C7_18 
REMARK    8  A    between atoms: C7_18  and  O4_19 
REMARK    9  A    between atoms: C7_18  and  C8_21 
REMARK   10  A    between atoms: C11_26  and  N5_27 
REMARK   11  A    between atoms: N5_27  and  N6_29 
REMARK   12  A    between atoms: C14_35  and  N8_36 
ROOT
HETATM    1  C1  UNL     1      37.257   6.235  16.010  1.00  0.00     0.075 C 
HETATM    2  C2  UNL     1      37.452   5.608  14.676  1.00  0.00     0.090 C 
HETATM    3  N1  UNL     1      38.512   5.878  14.055  1.00  0.00    -0.292 N 
ATOM      4  H1  UNL     1      39.183   6.509  14.494  1.00  0.00     0.178 HD
HETATM    5  C3  UNL     1      38.815   5.362  12.809  1.00  0.00     0.182 C 
HETATM    6  N2  UNL     1      39.096   4.936  11.746  1.00  0.00    -0.172 NA
ENDROOT
BRANCH   2   7
HETATM    7  C4  UNL     1      36.442   4.734  14.151  1.00  0.00     0.308 C 
HETATM    8  O1  UNL     1      35.424   5.161  13.592  1.00  0.00    -0.258 OA
BRANCH   7   9
HETATM    9  O2  UNL     1      36.610   3.354  14.276  1.00  0.00    -0.283 OA
BRANCH   9  10
HETATM   10  C5  UNL     1      36.352   2.460  13.193  1.00  0.00     0.300 C 
BRANCH  10  11
HETATM   11  O3  UNL     1      36.511   3.170  12.032  1.00  0.00    -0.368 OA
ATOM     12  H3  UNL     1      36.023   3.980  12.127  1.00  0.00     0.212 HD
ENDBRANCH  10  11
BRANCH  10  13
HETATM   13  C6  UNL     1      37.322   1.310  13.332  1.00  0.00     0.271 C 
BRANCH  13  14
HETATM   14  N3  UNL     1      38.580   1.742  12.787  1.00  0.00    -0.068 N 
ATOM     15  H33 UNL     1      39.190   0.967  12.530  1.00  0.00     0.275 HD
ATOM     16  H32 UNL     1      38.491   2.155  11.858  1.00  0.00     0.275 HD
ATOM     17  H31 UNL     1      39.005   2.375  13.465  1.00  0.00     0.275 HD
ENDBRANCH  13  14
BRANCH  13  18
HETATM   18  C7  UNL     1      36.779   0.032  12.778  1.00  0.00     0.186 C 
BRANCH  18  19
HETATM   19  O4  UNL     1      35.382   0.023  12.780  1.00  0.00    -0.389 OA
ATOM     20  H4  UNL     1      35.026   0.893  12.649  1.00  0.00     0.210 HD
ENDBRANCH  18  19
BRANCH  18  21
HETATM   21  C8  UNL     1      37.351  -1.209  13.310  1.00  0.00     0.005 C 
HETATM   22  C9  UNL     1      37.284  -2.377  12.686  1.00  0.00     0.013 C 
HETATM   23  C10 UNL     1      36.582  -2.512  11.386  1.00  0.00     0.068 C 
HETATM   24  N4  UNL     1      38.091  -3.478  13.155  1.00  0.00    -0.347 N 
HETATM   25  C11 UNL     1      38.898  -3.402  14.134  1.00  0.00     0.116 C 
ATOM     26  H4  UNL     1      38.008  -4.372  12.672  1.00  0.00     0.167 HD
HETATM   27  C12 UNL     1      39.146  -2.081  14.751  1.00  0.00     0.196 C 
HETATM   28  C13 UNL     1      40.194  -1.437  13.925  1.00  0.00     0.074 C 
HETATM   29  C14 UNL     1      37.891  -1.273  14.696  1.00  0.00     0.241 C 
HETATM   30  N7  UNL     1      41.024  -0.941  13.292  1.00  0.00    -0.196 NA
BRANCH  25  31
HETATM   31  N5  UNL     1      39.631  -4.552  14.521  1.00  0.00    -0.294 N 
ATOM     32  H5  UNL     1      39.757  -5.339  13.884  1.00  0.00     0.187 HD
BRANCH  31  33
HETATM   33  N6  UNL     1      40.175  -4.568  15.804  1.00  0.00    -0.344 N 
ATOM     34  H62 UNL     1      39.913  -5.300  16.465  1.00  0.00     0.176 HD
ATOM     35  H61 UNL     1      40.834  -3.829  16.047  1.00  0.00     0.176 HD
ENDBRANCH  31  33
ENDBRANCH  25  31
BRANCH  29  36
HETATM   36  N8  UNL     1      36.886  -2.026  15.460  1.00  0.00    -0.069 N 
ATOM     37  H83 UNL     1      36.380  -1.465  16.145  1.00  0.00     0.275 HD
ATOM     38  H82 UNL     1      36.070  -2.302  14.912  1.00  0.00     0.275 HD
ATOM     39  H81 UNL     1      37.397  -2.811  15.863  1.00  0.00     0.275 HD
ENDBRANCH  29  36
ENDBRANCH  18  21
ENDBRANCH  13  18
ENDBRANCH  10  13
ENDBRANCH   9  10
ENDBRANCH   7   9
ENDBRANCH   2   7
TORSDOF 12
ENDMDL
MODEL 3
REMARK VINA RESULT: -5.430583045      3.656      4.662
REMARK  12 active torsions:
REMARK  status: ('A' for Active; 'I' for Inactive)
REMARK    1  A    between atoms: C2_2  and  C4_7 
REMARK    2  A    between atoms: C4_7  and  O2_9 
REMARK    3  A    between atoms: O2_9  and  C5_10 
REMARK    4  A    between atoms: C5_10  and  O3_11 
REMARK    5  A    between atoms: C5_10  and  C6_13 
REMARK    6  A    between atoms: C6_13  and  N3_14 
REMARK    7  A    between atoms: C6_13  and  C7_18 
REMARK    8  A    between atoms: C7_18  and  O4_19 
REMARK    9  A    between atoms: C7_18  and  C8_21 
REMARK   10  A    between atoms: C11_26  and  N5_27 
REMARK   11  A    between atoms: N5_27  and  N6_29 
REMARK   12  A    between atoms: C14_35  and  N8_36 
ROOT
HETATM    1  C1  UNL     1      36.974   7.438  14.614  1.00  0.00     0.075 C 
HETATM    2  C2  UNL     1      36.970   6.011  14.196  1.00  0.00     0.090 C 
HETATM    3  N1  UNL     1      35.899   5.366  14.333  1.00  0.00    -0.292 N 
ATOM      4  H1  UNL     1      35.090   5.850  14.722  1.00  0.00     0.178 HD
HETATM    5  C3  UNL     1      35.763   4.035  13.983  1.00  0.00     0.182 C 
HETATM    6  N2  UNL     1      35.622   2.901  13.693  1.00  0.00    -0.172 NA
ENDROOT
BRANCH   2   7
HETATM    7  C4  UNL     1      38.168   5.428  13.661  1.00  0.00     0.308 C 
HETATM    8  O1  UNL     1      38.507   5.583  12.481  1.00  0.00    -0.258 OA
BRANCH   7   9
HETATM    9  O2  UNL     1      38.979   4.660  14.497  1.00  0.00    -0.283 OA
BRANCH   9  10
HETATM   10  C5  UNL     1      40.094   3.919  13.998  1.00  0.00     0.300 C 
BRANCH  10  11
HETATM   11  O3  UNL     1      41.204   4.349  14.676  1.00  0.00    -0.368 OA
ATOM     12  H3  UNL     1      41.519   5.129  14.235  1.00  0.00     0.212 HD
ENDBRANCH  10  11
BRANCH  10  13
HETATM   13  C6  UNL     1      39.783   2.457  14.219  1.00  0.00     0.271 C 
BRANCH  13  14
HETATM   14  N3  UNL     1      40.931   1.865  14.851  1.00  0.00    -0.068 N 
ATOM     15  H33 UNL     1      40.941   1.997  15.862  1.00  0.00     0.275 HD
ATOM     16  H32 UNL     1      40.904   0.846  14.850  1.00  0.00     0.275 HD
ATOM     17  H31 UNL     1      41.760   2.243  14.392  1.00  0.00     0.275 HD
ENDBRANCH  13  14
BRANCH  13  18
HETATM   18  C7  UNL     1      39.305   1.779  12.976  1.00  0.00     0.186 C 
BRANCH  18  19
HETATM   19  O4  UNL     1      38.383   2.567  12.282  1.00  0.00    -0.389 OA
ATOM     20  H4  UNL     1      37.709   2.907  12.858  1.00  0.00     0.210 HD
ENDBRANCH  18  19
BRANCH  18  21
HETATM   21  C8  UNL     1      38.863   0.388  13.115  1.00  0.00     0.005 C 
HETATM   22  C9  UNL     1      39.337  -0.611  12.383  1.00  0.00     0.013 C 
HETATM   23  C10 UNL     1      40.352  -0.375  11.329  1.00  0.00     0.068 C 
HETATM   24  N4  UNL     1      39.036  -1.971  12.764  1.00  0.00    -0.347 N 
HETATM   25  C11 UNL     1      38.353  -2.290  13.787  1.00  0.00     0.116 C 
ATOM     26  H4  UNL     1      39.395  -2.723  12.175  1.00  0.00     0.167 HD
HETATM   27  C12 UNL     1      37.953  -1.227  14.734  1.00  0.00     0.196 C 
HETATM   28  C13 UNL     1      39.105  -1.042  15.647  1.00  0.00     0.074 C 
HETATM   29  C14 UNL     1      37.701   0.034  13.976  1.00  0.00     0.241 C 
HETATM   30  N7  UNL     1      39.997  -0.909  16.371  1.00  0.00    -0.196 NA
BRANCH  25  31
HETATM   31  N5  UNL     1      38.105  -3.659  14.058  1.00  0.00    -0.294 N 
ATOM     32  H5  UNL     1      38.739  -4.387  13.728  1.00  0.00     0.187 HD
BRANCH  31  33
HETATM   33  N6  UNL     1      36.963  -3.974  14.793  1.00  0.00    -0.344 N 
ATOM     34  H62 UNL     1      36.201  -3.301  14.873  1.00  0.00     0.176 HD
ATOM     35  H61 UNL     1      36.926  -4.891  15.238  1.00  0.00     0.176 HD
ENDBRANCH  31  33
ENDBRANCH  25  31
BRANCH  29  36
HETATM   36  N8  UNL     1      36.611  -0.265  13.035  1.00  0.00    -0.069 N 
ATOM     37  H83 UNL     1      36.526   0.407  12.273  1.00  0.00     0.275 HD
ATOM     38  H82 UNL     1      36.781  -1.084  12.451  1.00  0.00     0.275 HD
ATOM     39  H81 UNL     1      35.776  -0.338  13.617  1.00  0.00     0.275 HD
ENDBRANCH  29  36
ENDBRANCH  18  21
ENDBRANCH  13  18
ENDBRANCH  10  13
ENDBRANCH   9  10
ENDBRANCH   7   9
ENDBRANCH   2   7
TORSDOF 12
ENDMDL
MODEL 4
REMARK VINA RESULT: -5.363213309      3.168      7.076
REMARK  12 active torsions:
REMARK  status: ('A' for Active; 'I' for Inactive)
REMARK    1  A    between atoms: C2_2  and  C4_7 
REMARK    2  A    between atoms: C4_7  and  O2_9 
REMARK    3  A    between atoms: O2_9  and  C5_10 
REMARK    4  A    between atoms: C5_10  and  O3_11 
REMARK    5  A    between atoms: C5_10  and  C6_13 
REMARK    6  A    between atoms: C6_13  and  N3_14 
REMARK    7  A    between atoms: C6_13  and  C7_18 
REMARK    8  A    between atoms: C7_18  and  O4_19 
REMARK    9  A    between atoms: C7_18  and  C8_21 
REMARK   10  A    between atoms: C11_26  and  N5_27 
REMARK   11  A    between atoms: N5_27  and  N6_29 
REMARK   12  A    between atoms: C14_35  and  N8_36 
ROOT
HETATM    1  C1  UNL     1      35.313  -1.570  11.326  1.00  0.00     0.075 C 
HETATM    2  C2  UNL     1      36.307  -1.556  12.431  1.00  0.00     0.090 C 
HETATM    3  N1  UNL     1      36.067  -2.269  13.440  1.00  0.00    -0.292 N 
ATOM      4  H1  UNL     1      35.208  -2.818  13.451  1.00  0.00     0.178 HD
HETATM    5  C3  UNL     1      36.910  -2.345  14.533  1.00  0.00     0.182 C 
HETATM    6  N2  UNL     1      37.611  -2.427  15.478  1.00  0.00    -0.172 NA
ENDROOT
BRANCH   2   7
HETATM    7  C4  UNL     1      37.485  -0.744  12.312  1.00  0.00     0.308 C 
HETATM    8  O1  UNL     1      38.562  -1.198  11.905  1.00  0.00    -0.258 OA
BRANCH   7   9
HETATM    9  O2  UNL     1      37.416   0.604  12.668  1.00  0.00    -0.283 OA
BRANCH   9  10
HETATM   10  C5  UNL     1      38.278   1.170  13.657  1.00  0.00     0.300 C 
BRANCH  10  11
HETATM   11  O3  UNL     1      38.933   0.133  14.267  1.00  0.00    -0.368 OA
ATOM     12  H3  UNL     1      38.408  -0.132  15.013  1.00  0.00     0.212 HD
ENDBRANCH  10  11
BRANCH  10  13
HETATM   13  C6  UNL     1      39.203   2.124  12.937  1.00  0.00     0.271 C 
BRANCH  13  14
HETATM   14  N3  UNL     1      40.185   1.332  12.248  1.00  0.00    -0.068 N 
ATOM     15  H33 UNL     1      41.137   1.511  12.567  1.00  0.00     0.275 HD
ATOM     16  H32 UNL     1      40.146   0.344  12.497  1.00  0.00     0.275 HD
ATOM     17  H31 UNL     1      40.062   1.496  11.249  1.00  0.00     0.275 HD
ENDBRANCH  13  14
BRANCH  13  18
HETATM   18  C7  UNL     1      39.743   3.187  13.839  1.00  0.00     0.186 C 
BRANCH  18  19
HETATM   19  O4  UNL     1      40.186   2.656  15.053  1.00  0.00    -0.389 OA
ATOM     20  H4  UNL     1      40.884   2.024  14.925  1.00  0.00     0.210 HD
ENDBRANCH  18  19
BRANCH  18  21
HETATM   21  C8  UNL     1      38.911   4.381  14.018  1.00  0.00     0.005 C 
HETATM   22  C9  UNL     1      38.889   5.396  13.166  1.00  0.00     0.013 C 
HETATM   23  C10 UNL     1      39.747   5.402  11.957  1.00  0.00     0.068 C 
HETATM   24  N4  UNL     1      37.858   6.400  13.288  1.00  0.00    -0.347 N 
HETATM   25  C11 UNL     1      36.935   6.370  14.160  1.00  0.00     0.116 C 
ATOM     26  H4  UNL     1      37.872   7.182  12.633  1.00  0.00     0.167 HD
HETATM   27  C12 UNL     1      36.807   5.172  15.018  1.00  0.00     0.196 C 
HETATM   28  C13 UNL     1      36.008   4.198  14.240  1.00  0.00     0.074 C 
HETATM   29  C14 UNL     1      38.166   4.614  15.286  1.00  0.00     0.241 C 
HETATM   30  N7  UNL     1      35.370   3.442  13.639  1.00  0.00    -0.196 NA
BRANCH  25  31
HETATM   31  N5  UNL     1      35.981   7.418  14.200  1.00  0.00    -0.294 N 
ATOM     32  H5  UNL     1      36.119   8.236  14.794  1.00  0.00     0.187 HD
BRANCH  31  33
HETATM   33  N6  UNL     1      34.848   7.290  13.399  1.00  0.00    -0.344 N 
ATOM     34  H62 UNL     1      34.926   7.350  12.383  1.00  0.00     0.176 HD
ATOM     35  H61 UNL     1      33.954   7.136  13.866  1.00  0.00     0.176 HD
ENDBRANCH  31  33
ENDBRANCH  25  31
BRANCH  29  36
HETATM   36  N8  UNL     1      38.915   5.675  15.975  1.00  0.00    -0.069 N 
ATOM     37  H83 UNL     1      39.924   5.625  15.837  1.00  0.00     0.275 HD
ATOM     38  H82 UNL     1      38.788   6.603  15.571  1.00  0.00     0.275 HD
ATOM     39  H81 UNL     1      38.627   5.606  16.952  1.00  0.00     0.275 HD
ENDBRANCH  29  36
ENDBRANCH  18  21
ENDBRANCH  13  18
ENDBRANCH  10  13
ENDBRANCH   9  10
ENDBRANCH   7   9
ENDBRANCH   2   7
TORSDOF 12
ENDMDL
MODEL 5
REMARK VINA RESULT: -5.292607274      3.484      4.286
REMARK  12 active torsions:
REMARK  status: ('A' for Active; 'I' for Inactive)
REMARK    1  A    between atoms: C2_2  and  C4_7 
REMARK    2  A    between atoms: C4_7  and  O2_9 
REMARK    3  A    between atoms: O2_9  and  C5_10 
REMARK    4  A    between atoms: C5_10  and  O3_11 
REMARK    5  A    between atoms: C5_10  and  C6_13 
REMARK    6  A    between atoms: C6_13  and  N3_14 
REMARK    7  A    between atoms: C6_13  and  C7_18 
REMARK    8  A    between atoms: C7_18  and  O4_19 
REMARK    9  A    between atoms: C7_18  and  C8_21 
REMARK   10  A    between atoms: C11_26  and  N5_27 
REMARK   11  A    between atoms: N5_27  and  N6_29 
REMARK   12  A    between atoms: C14_35  and  N8_36 
ROOT
HETATM    1  C1  UNL     1      38.320   7.562  15.053  1.00  0.00     0.075 C 
HETATM    2  C2  UNL     1      37.487   6.574  14.319  1.00  0.00     0.090 C 
HETATM    3  N1  UNL     1      36.238   6.720  14.359  1.00  0.00    -0.292 N 
ATOM      4  H1  UNL     1      35.860   7.504  14.890  1.00  0.00     0.178 HD
HETATM    5  C3  UNL     1      35.353   5.872  13.720  1.00  0.00     0.182 C 
HETATM    6  N2  UNL     1      34.578   5.163  13.184  1.00  0.00    -0.172 NA
ENDROOT
BRANCH   2   7
HETATM    7  C4  UNL     1      38.125   5.506  13.602  1.00  0.00     0.308 C 
HETATM    8  O1  UNL     1      38.388   5.585  12.396  1.00  0.00    -0.258 OA
BRANCH   7   9
HETATM    9  O2  UNL     1      38.458   4.336  14.287  1.00  0.00    -0.283 OA
BRANCH   9  10
HETATM   10  C5  UNL     1      39.560   3.518  13.893  1.00  0.00     0.300 C 
BRANCH  10  11
HETATM   11  O3  UNL     1      40.675   4.315  13.882  1.00  0.00    -0.368 OA
ATOM     12  H3  UNL     1      41.415   3.767  14.118  1.00  0.00     0.212 HD
ENDBRANCH  10  11
BRANCH  10  13
HETATM   13  C6  UNL     1      39.642   2.384  14.889  1.00  0.00     0.271 C 
BRANCH  13  14
HETATM   14  N3  UNL     1      40.451   2.837  15.989  1.00  0.00    -0.068 N 
ATOM     15  H33 UNL     1      41.450   2.722  15.822  1.00  0.00     0.275 HD
ATOM     16  H32 UNL     1      40.450   3.851  16.093  1.00  0.00     0.275 HD
ATOM     17  H31 UNL     1      40.128   2.349  16.825  1.00  0.00     0.275 HD
ENDBRANCH  13  14
BRANCH  13  18
HETATM   18  C7  UNL     1      40.066   1.097  14.258  1.00  0.00     0.186 C 
BRANCH  18  19
HETATM   19  O4  UNL     1      41.078   1.295  13.315  1.00  0.00    -0.389 OA
ATOM     20  H4  UNL     1      41.938   1.139  13.686  1.00  0.00     0.210 HD
ENDBRANCH  18  19
BRANCH  18  21
HETATM   21  C8  UNL     1      38.997   0.226  13.761  1.00  0.00     0.005 C 
HETATM   22  C9  UNL     1      38.542  -0.830  14.420  1.00  0.00     0.013 C 
HETATM   23  C10 UNL     1      39.121  -1.226  15.727  1.00  0.00     0.068 C 
HETATM   24  N4  UNL     1      37.325  -1.470  13.980  1.00  0.00    -0.347 N 
HETATM   25  C11 UNL     1      36.627  -1.071  12.996  1.00  0.00     0.116 C 
ATOM     26  H4  UNL     1      37.005  -2.292  14.491  1.00  0.00     0.167 HD
HETATM   27  C12 UNL     1      36.989   0.204  12.338  1.00  0.00     0.196 C 
HETATM   28  C13 UNL     1      36.345   1.271  13.139  1.00  0.00     0.074 C 
HETATM   29  C14 UNL     1      38.472   0.369  12.375  1.00  0.00     0.241 C 
HETATM   30  N7  UNL     1      35.828   2.104  13.753  1.00  0.00    -0.196 NA
BRANCH  25  31
HETATM   31  N5  UNL     1      35.455  -1.784  12.640  1.00  0.00    -0.294 N 
ATOM     32  H5  UNL     1      34.756  -2.035  13.340  1.00  0.00     0.187 HD
BRANCH  31  33
HETATM   33  N6  UNL     1      35.291  -2.128  11.300  1.00  0.00    -0.344 N 
ATOM     34  H62 UNL     1      36.092  -2.437  10.746  1.00  0.00     0.176 HD
ATOM     35  H61 UNL     1      34.353  -2.060  10.905  1.00  0.00     0.176 HD
ENDBRANCH  31  33
ENDBRANCH  25  31
BRANCH  29  36
HETATM   36  N8  UNL     1      39.029  -0.775  11.639  1.00  0.00    -0.069 N 
ATOM     37  H83 UNL     1      39.694  -0.516  10.911  1.00  0.00     0.275 HD
ATOM     38  H82 UNL     1      39.675  -1.345  12.187  1.00  0.00     0.275 HD
ATOM     39  H81 UNL     1      38.217  -1.286  11.295  1.00  0.00     0.275 HD
ENDBRANCH  29  36
ENDBRANCH  18  21
ENDBRANCH  13  18
ENDBRANCH  10  13
ENDBRANCH   9  10
ENDBRANCH   7   9
ENDBRANCH   2   7
TORSDOF 12
ENDMDL
