MODEL 1
REMARK VINA RESULT: -6.645822265      0.000      0.000
REMARK  7 active torsions:
REMARK  status: ('A' for Active; 'I' for Inactive)
REMARK    1  A    between atoms: N1_1  and  C1_4 
REMARK    2  A    between atoms: C2_7  and  S1_8 
REMARK    3  A    between atoms: S1_8  and  S2_9 
REMARK    4  A    between atoms: S2_9  and  N3_10 
REMARK    5  A    between atoms: N3_10  and  N4_12 
REMARK    6  A    between atoms: N6_17  and  O2_18 
REMARK    7  A    between atoms: C6_29  and  O4_30 
ROOT
HETATM    1  C1  UNL     1      37.550   4.078  20.264  1.00  0.00     0.119 A 
HETATM    2  N2  UNL     1      37.594   5.408  20.086  1.00  0.00    -0.322 N 
ATOM      3  H2  UNL     1      38.163   5.781  19.325  1.00  0.00     0.169 HD
HETATM    4  C2  UNL     1      36.914   6.277  20.874  1.00  0.00     0.160 A 
HETATM    5  N7  UNL     1      36.179   5.740  21.863  1.00  0.00    -0.320 N 
ATOM      6  H7  UNL     1      35.655   6.364  22.476  1.00  0.00     0.169 HD
HETATM    7  C5  UNL     1      36.106   4.420  22.079  1.00  0.00     0.140 A 
HETATM    8  N8  UNL     1      35.456   3.679  22.976  1.00  0.00    -0.283 N 
ATOM      9  H8  UNL     1      34.851   4.032  23.718  1.00  0.00     0.188 HD
HETATM   10  N9  UNL     1      35.734   2.387  22.738  1.00  0.00    -0.278 N 
ATOM     11  H9  UNL     1      35.367   1.604  23.279  1.00  0.00     0.189 HD
HETATM   12  C6  UNL     1      36.563   2.272  21.690  1.00  0.00     0.172 A 
HETATM   13  C7  UNL     1      36.799   3.555  21.273  1.00  0.00     0.105 A 
ENDROOT
BRANCH   4  14
HETATM   14  S1  UNL     1      37.025   8.033  20.552  1.00  0.00     0.003 SA
BRANCH  14  15
HETATM   15  S2  UNL     1      36.269   8.380  18.595  1.00  0.00     0.045 SA
BRANCH  15  16
HETATM   16  N3  UNL     1      37.559   7.957  17.465  1.00  0.00    -0.238 N 
ATOM     17  H3  UNL     1      38.529   8.229  17.626  1.00  0.00     0.198 HD
BRANCH  16  18
HETATM   18  N4  UNL     1      37.163   7.216  16.321  1.00  0.00    -0.129 N 
HETATM   19  N5  UNL     1      36.683   7.687  15.193  1.00  0.00    -0.223 N 
HETATM   20  C3  UNL     1      36.429   6.690  14.343  1.00  0.00     0.371 A 
ATOM     21  H5  UNL     1      36.527   8.675  14.995  1.00  0.00     0.194 HD
HETATM   22  O1  UNL     1      35.969   6.722  13.174  1.00  0.00    -0.243 OA
HETATM   23  N6  UNL     1      36.771   5.553  14.984  1.00  0.00    -0.115 N 
HETATM   24  C4  UNL     1      37.223   5.881  16.205  1.00  0.00     0.392 A 
HETATM   25  O3  UNL     1      37.630   5.078  17.081  1.00  0.00    -0.240 OA
BRANCH  23  26
HETATM   26  O2  UNL     1      36.672   4.285  14.472  1.00  0.00    -0.275 OA
ATOM     27  H2  UNL     1      36.955   3.489  14.905  1.00  0.00     0.245 HD
ENDBRANCH  23  26
ENDBRANCH  16  18
ENDBRANCH  15  16
ENDBRANCH  14  15
ENDBRANCH   4  14
BRANCH   1  28
HETATM   28  N1  UNL     1      38.205   3.267  19.501  1.00  0.00    -0.385 N 
ATOM     29  H12 UNL     1      38.337   3.522  18.522  1.00  0.00     0.157 HD
ATOM     30  H11 UNL     1      38.587   2.390  19.853  1.00  0.00     0.157 HD
ENDBRANCH   1  28
BRANCH  12  31
HETATM   31  O4  UNL     1      37.039   1.071  21.191  1.00  0.00    -0.344 OA
ATOM     32  H4  UNL     1      37.589   0.986  20.422  1.00  0.00     0.219 HD
ENDBRANCH  12  31
TORSDOF 7
ENDMDL
MODEL 2
REMARK VINA RESULT: -6.638028298      6.563      8.306
REMARK  7 active torsions:
REMARK  status: ('A' for Active; 'I' for Inactive)
REMARK    1  A    between atoms: N1_1  and  C1_4 
REMARK    2  A    between atoms: C2_7  and  S1_8 
REMARK    3  A    between atoms: S1_8  and  S2_9 
REMARK    4  A    between atoms: S2_9  and  N3_10 
REMARK    5  A    between atoms: N3_10  and  N4_12 
REMARK    6  A    between atoms: N6_17  and  O2_18 
REMARK    7  A    between atoms: C6_29  and  O4_30 
ROOT
HETATM    1  C1  UNL     1      37.003  -0.807  11.869  1.00  0.00     0.119 A 
HETATM    2  N2  UNL     1      37.824   0.029  12.524  1.00  0.00    -0.322 N 
ATOM      3  H2  UNL     1      38.241   0.806  12.012  1.00  0.00     0.169 HD
HETATM    4  C2  UNL     1      38.122  -0.117  13.838  1.00  0.00     0.160 A 
HETATM    5  N7  UNL     1      37.549  -1.156  14.471  1.00  0.00    -0.320 N 
ATOM      6  H7  UNL     1      37.752  -1.296  15.461  1.00  0.00     0.169 HD
HETATM    7  C5  UNL     1      36.725  -2.014  13.859  1.00  0.00     0.140 A 
HETATM    8  N8  UNL     1      36.057  -3.091  14.275  1.00  0.00    -0.283 N 
ATOM      9  H8  UNL     1      36.068  -3.472  15.221  1.00  0.00     0.188 HD
HETATM   10  N9  UNL     1      35.367  -3.588  13.236  1.00  0.00    -0.278 N 
ATOM     11  H9  UNL     1      34.769  -4.413  13.277  1.00  0.00     0.189 HD
HETATM   12  C6  UNL     1      35.576  -2.846  12.138  1.00  0.00     0.172 A 
HETATM   13  C7  UNL     1      36.434  -1.853  12.529  1.00  0.00     0.105 A 
ENDROOT
BRANCH   4  14
HETATM   14  S1  UNL     1      39.218   1.055  14.630  1.00  0.00     0.003 SA
BRANCH  14  15
HETATM   15  S2  UNL     1      40.411   1.949  13.113  1.00  0.00     0.045 SA
BRANCH  15  16
HETATM   16  N3  UNL     1      39.441   3.236  12.392  1.00  0.00    -0.238 N 
ATOM     17  H3  UNL     1      39.648   3.616  11.468  1.00  0.00     0.198 HD
BRANCH  16  18
HETATM   18  N4  UNL     1      38.355   3.709  13.175  1.00  0.00    -0.129 N 
HETATM   19  N5  UNL     1      38.416   4.474  14.240  1.00  0.00    -0.223 N 
HETATM   20  C3  UNL     1      37.190   4.717  14.708  1.00  0.00     0.371 A 
ATOM     21  H5  UNL     1      39.278   4.832  14.652  1.00  0.00     0.194 HD
HETATM   22  O1  UNL     1      36.824   5.399  15.699  1.00  0.00    -0.243 OA
HETATM   23  N6  UNL     1      36.338   4.069  13.887  1.00  0.00    -0.115 N 
HETATM   24  C4  UNL     1      37.061   3.447  12.943  1.00  0.00     0.392 A 
HETATM   25  O3  UNL     1      36.603   2.745  12.007  1.00  0.00    -0.240 OA
BRANCH  23  26
HETATM   26  O2  UNL     1      34.972   4.051  14.004  1.00  0.00    -0.275 OA
ATOM     27  H2  UNL     1      34.354   4.231  13.305  1.00  0.00     0.245 HD
ENDBRANCH  23  26
ENDBRANCH  16  18
ENDBRANCH  15  16
ENDBRANCH  14  15
ENDBRANCH   4  14
BRANCH   1  28
HETATM   28  N1  UNL     1      36.731  -0.649  10.615  1.00  0.00    -0.385 N 
ATOM     29  H12 UNL     1      35.857  -0.189  10.362  1.00  0.00     0.157 HD
ATOM     30  H11 UNL     1      37.364  -0.972   9.884  1.00  0.00     0.157 HD
ENDBRANCH   1  28
BRANCH  12  31
HETATM   31  O4  UNL     1      35.007  -3.096  10.900  1.00  0.00    -0.344 OA
ATOM     32  H4  UNL     1      34.719  -2.426  10.293  1.00  0.00     0.219 HD
ENDBRANCH  12  31
TORSDOF 7
ENDMDL
MODEL 3
REMARK VINA RESULT: -6.635942523      2.445      3.206
REMARK  7 active torsions:
REMARK  status: ('A' for Active; 'I' for Inactive)
REMARK    1  A    between atoms: N1_1  and  C1_4 
REMARK    2  A    between atoms: C2_7  and  S1_8 
REMARK    3  A    between atoms: S1_8  and  S2_9 
REMARK    4  A    between atoms: S2_9  and  N3_10 
REMARK    5  A    between atoms: N3_10  and  N4_12 
REMARK    6  A    between atoms: N6_17  and  O2_18 
REMARK    7  A    between atoms: C6_29  and  O4_30 
ROOT
HETATM    1  C1  UNL     1      36.913   6.256  20.564  1.00  0.00     0.119 A 
HETATM    2  N2  UNL     1      37.641   6.051  19.456  1.00  0.00    -0.322 N 
ATOM      3  H2  UNL     1      37.925   6.859  18.901  1.00  0.00     0.169 HD
HETATM    4  C2  UNL     1      38.017   4.816  19.043  1.00  0.00     0.160 A 
HETATM    5  N7  UNL     1      37.620   3.782  19.806  1.00  0.00    -0.320 N 
ATOM      6  H7  UNL     1      37.885   2.838  19.525  1.00  0.00     0.169 HD
HETATM    7  C5  UNL     1      36.892   3.939  20.919  1.00  0.00     0.140 A 
HETATM    8  N8  UNL     1      36.397   3.082  21.812  1.00  0.00    -0.283 N 
ATOM      9  H8  UNL     1      36.502   2.068  21.789  1.00  0.00     0.188 HD
HETATM   10  N9  UNL     1      35.736   3.782  22.747  1.00  0.00    -0.278 N 
ATOM     11  H9  UNL     1      35.258   3.372  23.550  1.00  0.00     0.189 HD
HETATM   12  C6  UNL     1      35.791   5.094  22.478  1.00  0.00     0.172 A 
HETATM   13  C7  UNL     1      36.521   5.196  21.323  1.00  0.00     0.105 A 
ENDROOT
BRANCH   4  14
HETATM   14  S1  UNL     1      38.999   4.641  17.558  1.00  0.00     0.003 SA
BRANCH  14  15
HETATM   15  S2  UNL     1      38.898   6.483  16.498  1.00  0.00     0.045 SA
BRANCH  15  16
HETATM   16  N3  UNL     1      38.750   6.080  14.785  1.00  0.00    -0.238 N 
ATOM     17  H3  UNL     1      39.487   6.297  14.113  1.00  0.00     0.198 HD
BRANCH  16  18
HETATM   18  N4  UNL     1      37.544   5.437  14.401  1.00  0.00    -0.129 N 
HETATM   19  N5  UNL     1      37.316   4.146  14.339  1.00  0.00    -0.223 N 
HETATM   20  C3  UNL     1      36.063   3.914  13.941  1.00  0.00     0.371 A 
ATOM     21  H5  UNL     1      37.998   3.422  14.563  1.00  0.00     0.194 HD
HETATM   22  O1  UNL     1      35.461   2.826  13.759  1.00  0.00    -0.243 OA
HETATM   23  N6  UNL     1      35.498   5.125  13.751  1.00  0.00    -0.115 N 
HETATM   24  C4  UNL     1      36.416   6.062  14.035  1.00  0.00     0.392 A 
HETATM   25  O3  UNL     1      36.245   7.305  13.969  1.00  0.00    -0.240 OA
BRANCH  23  26
HETATM   26  O2  UNL     1      34.211   5.351  13.338  1.00  0.00    -0.275 OA
ATOM     27  H2  UNL     1      33.864   5.161  12.475  1.00  0.00     0.245 HD
ENDBRANCH  23  26
ENDBRANCH  16  18
ENDBRANCH  15  16
ENDBRANCH  14  15
ENDBRANCH   4  14
BRANCH   1  28
HETATM   28  N1  UNL     1      36.566   7.443  20.940  1.00  0.00    -0.385 N 
ATOM     29  H12 UNL     1      37.019   7.844  21.761  1.00  0.00     0.157 HD
ATOM     30  H11 UNL     1      35.858   7.979  20.440  1.00  0.00     0.157 HD
ENDBRANCH   1  28
BRANCH  12  31
HETATM   31  O4  UNL     1      35.207   6.083  23.252  1.00  0.00    -0.344 OA
ATOM     32  H4  UNL     1      35.684   6.773  23.696  1.00  0.00     0.219 HD
ENDBRANCH  12  31
TORSDOF 7
ENDMDL
MODEL 4
REMARK VINA RESULT: -6.553119797      2.668      3.556
REMARK  7 active torsions:
REMARK  status: ('A' for Active; 'I' for Inactive)
REMARK    1  A    between atoms: N1_1  and  C1_4 
REMARK    2  A    between atoms: C2_7  and  S1_8 
REMARK    3  A    between atoms: S1_8  and  S2_9 
REMARK    4  A    between atoms: S2_9  and  N3_10 
REMARK    5  A    between atoms: N3_10  and  N4_12 
REMARK    6  A    between atoms: N6_17  and  O2_18 
REMARK    7  A    between atoms: C6_29  and  O4_30 
ROOT
HETATM    1  C1  UNL     1      36.619   6.653  20.297  1.00  0.00     0.119 A 
HETATM    2  N2  UNL     1      37.230   6.623  19.103  1.00  0.00    -0.322 N 
ATOM      3  H2  UNL     1      37.307   7.490  18.571  1.00  0.00     0.169 HD
HETATM    4  C2  UNL     1      37.750   5.489  18.573  1.00  0.00     0.160 A 
HETATM    5  N7  UNL     1      37.625   4.371  19.310  1.00  0.00    -0.320 N 
ATOM      6  H7  UNL     1      38.005   3.499  18.942  1.00  0.00     0.169 HD
HETATM    7  C5  UNL     1      37.023   4.354  20.506  1.00  0.00     0.140 A 
HETATM    8  N8  UNL     1      36.789   3.387  21.394  1.00  0.00    -0.283 N 
ATOM      9  H8  UNL     1      37.055   2.408  21.295  1.00  0.00     0.188 HD
HETATM   10  N9  UNL     1      36.141   3.923  22.440  1.00  0.00    -0.278 N 
ATOM     11  H9  UNL     1      35.839   3.403  23.265  1.00  0.00     0.189 HD
HETATM   12  C6  UNL     1      35.947   5.236  22.249  1.00  0.00     0.172 A 
HETATM   13  C7  UNL     1      36.503   5.510  21.027  1.00  0.00     0.105 A 
ENDROOT
BRANCH   4  14
HETATM   14  S1  UNL     1      38.558   5.548  16.978  1.00  0.00     0.003 SA
BRANCH  14  15
HETATM   15  S2  UNL     1      37.351   6.732  15.687  1.00  0.00     0.045 SA
BRANCH  15  16
HETATM   16  N3  UNL     1      36.275   5.623  14.832  1.00  0.00    -0.238 N 
ATOM     17  H3  UNL     1      35.260   5.670  14.931  1.00  0.00     0.198 HD
BRANCH  16  18
HETATM   18  N4  UNL     1      36.908   4.664  13.999  1.00  0.00    -0.129 N 
HETATM   19  N5  UNL     1      38.090   4.754  13.436  1.00  0.00    -0.223 N 
HETATM   20  C3  UNL     1      38.352   3.655  12.726  1.00  0.00     0.371 A 
ATOM     21  H5  UNL     1      38.719   5.552  13.527  1.00  0.00     0.194 HD
HETATM   22  O1  UNL     1      39.367   3.354  12.047  1.00  0.00    -0.243 OA
HETATM   23  N6  UNL     1      37.276   2.852  12.864  1.00  0.00    -0.115 N 
HETATM   24  C4  UNL     1      36.386   3.479  13.649  1.00  0.00     0.392 A 
HETATM   25  O3  UNL     1      35.265   3.031  13.995  1.00  0.00    -0.240 OA
BRANCH  23  26
HETATM   26  O2  UNL     1      37.125   1.613  12.296  1.00  0.00    -0.275 OA
ATOM     27  H2  UNL     1      36.335   1.086  12.320  1.00  0.00     0.245 HD
ENDBRANCH  23  26
ENDBRANCH  16  18
ENDBRANCH  15  16
ENDBRANCH  14  15
ENDBRANCH   4  14
BRANCH   1  28
HETATM   28  N1  UNL     1      36.131   7.746  20.784  1.00  0.00    -0.385 N 
ATOM     29  H12 UNL     1      36.746   8.554  20.877  1.00  0.00     0.157 HD
ATOM     30  H11 UNL     1      35.156   7.816  21.074  1.00  0.00     0.157 HD
ENDBRANCH   1  28
BRANCH  12  31
HETATM   31  O4  UNL     1      35.307   6.076  23.145  1.00  0.00    -0.344 OA
ATOM     32  H4  UNL     1      35.097   6.987  22.976  1.00  0.00     0.219 HD
ENDBRANCH  12  31
TORSDOF 7
ENDMDL
MODEL 5
REMARK VINA RESULT: -6.550840572      6.314      8.017
REMARK  7 active torsions:
REMARK  status: ('A' for Active; 'I' for Inactive)
REMARK    1  A    between atoms: N1_1  and  C1_4 
REMARK    2  A    between atoms: C2_7  and  S1_8 
REMARK    3  A    between atoms: S1_8  and  S2_9 
REMARK    4  A    between atoms: S2_9  and  N3_10 
REMARK    5  A    between atoms: N3_10  and  N4_12 
REMARK    6  A    between atoms: N6_17  and  O2_18 
REMARK    7  A    between atoms: C6_29  and  O4_30 
ROOT
HETATM    1  C1  UNL     1      37.119  -0.865  11.736  1.00  0.00     0.119 A 
HETATM    2  N2  UNL     1      38.171  -0.079  12.016  1.00  0.00    -0.322 N 
ATOM      3  H2  UNL     1      38.521   0.546  11.289  1.00  0.00     0.169 HD
HETATM    4  C2  UNL     1      38.787  -0.081  13.223  1.00  0.00     0.160 A 
HETATM    5  N7  UNL     1      38.290  -0.921  14.148  1.00  0.00    -0.320 N 
ATOM      6  H7  UNL     1      38.730  -0.948  15.068  1.00  0.00     0.169 HD
HETATM    7  C5  UNL     1      37.244  -1.722  13.914  1.00  0.00     0.140 A 
HETATM    8  N8  UNL     1      36.594  -2.615  14.662  1.00  0.00    -0.283 N 
ATOM      9  H8  UNL     1      36.812  -2.855  15.629  1.00  0.00     0.188 HD
HETATM   10  N9  UNL     1      35.605  -3.143  13.925  1.00  0.00    -0.278 N 
ATOM     11  H9  UNL     1      34.951  -3.854  14.253  1.00  0.00     0.189 HD
HETATM   12  C6  UNL     1      35.597  -2.605  12.696  1.00  0.00     0.172 A 
HETATM   13  C7  UNL     1      36.632  -1.708  12.687  1.00  0.00     0.105 A 
ENDROOT
BRANCH   4  14
HETATM   14  S1  UNL     1      40.176   1.011  13.507  1.00  0.00     0.003 SA
BRANCH  14  15
HETATM   15  S2  UNL     1      39.500   3.005  13.208  1.00  0.00     0.045 SA
BRANCH  15  16
HETATM   16  N3  UNL     1      38.399   3.378  14.537  1.00  0.00    -0.238 N 
ATOM     17  H3  UNL     1      38.480   2.928  15.449  1.00  0.00     0.198 HD
BRANCH  16  18
HETATM   18  N4  UNL     1      37.394   4.341  14.258  1.00  0.00    -0.129 N 
HETATM   19  N5  UNL     1      37.518   5.648  14.272  1.00  0.00    -0.223 N 
HETATM   20  C3  UNL     1      36.359   6.228  13.953  1.00  0.00     0.371 A 
ATOM     21  H5  UNL     1      38.378   6.149  14.495  1.00  0.00     0.194 HD
HETATM   22  O1  UNL     1      36.065   7.447  13.855  1.00  0.00    -0.243 OA
HETATM   23  N6  UNL     1      35.484   5.226  13.733  1.00  0.00    -0.115 N 
HETATM   24  C4  UNL     1      36.126   4.062  13.923  1.00  0.00     0.392 A 
HETATM   25  O3  UNL     1      35.625   2.916  13.806  1.00  0.00    -0.240 OA
BRANCH  23  26
HETATM   26  O2  UNL     1      34.168   5.375  13.377  1.00  0.00    -0.275 OA
ATOM     27  H2  UNL     1      33.853   5.762  12.569  1.00  0.00     0.245 HD
ENDBRANCH  23  26
ENDBRANCH  16  18
ENDBRANCH  15  16
ENDBRANCH  14  15
ENDBRANCH   4  14
BRANCH   1  28
HETATM   28  N1  UNL     1      36.546  -0.847  10.578  1.00  0.00    -0.385 N 
ATOM     29  H12 UNL     1      36.938  -1.423   9.833  1.00  0.00     0.157 HD
ATOM     30  H11 UNL     1      35.720  -0.277  10.396  1.00  0.00     0.157 HD
ENDBRANCH   1  28
BRANCH  12  31
HETATM   31  O4  UNL     1      34.698  -2.939  11.697  1.00  0.00    -0.344 OA
ATOM     32  H4  UNL     1      33.816  -2.594  11.626  1.00  0.00     0.219 HD
ENDBRANCH  12  31
TORSDOF 7
ENDMDL
