MODEL 1
REMARK VINA RESULT: -8.957833476      0.000      0.000
REMARK  10 active torsions:
REMARK  status: ('A' for Active; 'I' for Inactive)
REMARK    1  A    between atoms: C2_2  and  O1_3 
REMARK    2  A    between atoms: O1_3  and  C3_4 
REMARK       I    between atoms: C3_4  and  N1_6 
REMARK       I    between atoms: N1_6  and  C4_8 
REMARK       I    between atoms: C4_8  and  N2_10 
REMARK    3  A    between atoms: C8_15  and  C9_16 
REMARK    4  A    between atoms: C9_16  and  C10_17 
REMARK    5  A    between atoms: C9_16  and  C18_30 
REMARK    6  A    between atoms: C10_17  and  C11_18 
REMARK    7  A    between atoms: C11_18  and  C12_19 
REMARK    8  A    between atoms: C12_19  and  N3_20 
REMARK       I    between atoms: N3_20  and  C13_22 
REMARK       I    between atoms: C13_22  and  N4_24 
REMARK    9  A    between atoms: N4_24  and  C14_26 
REMARK   10  A    between atoms: C19_33  and  C20_34 
ROOT
HETATM    1  C9  UNL     1      15.701 -14.425  21.297  1.00  0.00     0.005 C 
ENDROOT
BRANCH   1   2
HETATM    2  C8  UNL     1      16.781 -13.515  20.798  1.00  0.00     0.128 C 
HETATM    3  N2  UNL     1      16.883 -12.998  19.531  1.00  0.00    -0.322 N 
HETATM    4  C4  UNL     1      16.040 -12.730  18.446  1.00  0.00     0.327 C 
HETATM    5  C5  UNL     1      18.332 -12.658  19.333  1.00  0.00     0.165 C 
HETATM    6  N1  UNL     1      16.610 -12.159  17.243  1.00  0.00    -0.254 N 
HETATM    7  O3  UNL     1      14.809 -12.922  18.358  1.00  0.00    -0.247 OA
HETATM    8  C3  UNL     1      15.832 -11.891  16.080  1.00  0.00     0.368 C 
ATOM      9  H1  UNL     1      17.607 -11.942  17.228  1.00  0.00     0.175 HD
HETATM   10  O2  UNL     1      14.598 -12.111  16.130  1.00  0.00    -0.238 OA
HETATM   11  C6  UNL     1      19.108 -13.179  20.468  1.00  0.00     0.190 C 
HETATM   12  F1  UNL     1      20.285 -13.802  20.130  1.00  0.00    -0.248 F 
HETATM   13  C7  UNL     1      18.147 -14.113  21.170  1.00  0.00     0.069 C 
BRANCH   8  14
HETATM   14  O1  UNL     1      16.359 -11.412  14.914  1.00  0.00    -0.304 OA
BRANCH  14  15
HETATM   15  C2  UNL     1      16.067 -11.837  13.612  1.00  0.00     0.176 C 
HETATM   16  C1  UNL     1      16.372 -13.263  13.313  1.00  0.00     0.034 C 
ENDBRANCH  14  15
ENDBRANCH   8  14
ENDBRANCH   1   2
BRANCH   1  17
HETATM   17  C10 UNL     1      15.741 -15.781  20.769  1.00  0.00    -0.012 C 
BRANCH  17  18
HETATM   18  C11 UNL     1      15.533 -16.974  21.612  1.00  0.00     0.047 C 
BRANCH  18  19
HETATM   19  C12 UNL     1      16.685 -17.615  22.283  1.00  0.00     0.128 C 
BRANCH  19  20
HETATM   20  N3  UNL     1      17.211 -16.797  23.386  1.00  0.00    -0.343 N 
HETATM   21  C13 UNL     1      18.549 -16.502  23.614  1.00  0.00     0.316 C 
HETATM   22  O4  UNL     1      19.448 -16.950  22.829  1.00  0.00    -0.247 OA
HETATM   23  N4  UNL     1      19.017 -15.715  24.683  1.00  0.00    -0.335 N 
ATOM     24  H4  UNL     1      18.304 -15.343  25.311  1.00  0.00     0.165 HD
ATOM     25  H3  UNL     1      16.531 -16.412  24.043  1.00  0.00     0.164 HD
BRANCH  23  26
HETATM   26  C14 UNL     1      20.362 -15.375  24.995  1.00  0.00     0.023 C 
HETATM   27  C15 UNL     1      21.294 -16.509  25.253  1.00  0.00     0.037 C 
HETATM   28  C16 UNL     1      20.972 -14.508  23.900  1.00  0.00     0.037 C 
HETATM   29  C17 UNL     1      20.343 -14.474  26.238  1.00  0.00     0.037 C 
ENDBRANCH  23  26
ENDBRANCH  19  20
ENDBRANCH  18  19
ENDBRANCH  17  18
ENDBRANCH   1  17
BRANCH   1  30
HETATM   30  C18 UNL     1      14.456 -13.724  21.620  1.00  0.00     0.113 A 
HETATM   31  N5  UNL     1      14.174 -12.411  21.567  1.00  0.00    -0.337 N 
HETATM   32  C19 UNL     1      12.943 -12.112  21.954  1.00  0.00     0.133 A 
ATOM     33  H5  UNL     1      14.845 -11.709  21.256  1.00  0.00     0.167 HD
HETATM   34  C21 UNL     1      12.365 -13.311  22.289  1.00  0.00     0.124 A 
HETATM   35  N6  UNL     1      13.265 -14.257  22.089  1.00  0.00    -0.350 N 
ATOM     36  H6  UNL     1      13.106 -15.249  22.258  1.00  0.00     0.166 HD
BRANCH  32  37
HETATM   37  C20 UNL     1      12.273 -10.767  22.025  1.00  0.00     0.433 C 
HETATM   38  F2  UNL     1      11.230 -10.923  22.925  1.00  0.00    -0.165 F 
HETATM   39  F3  UNL     1      13.181  -9.898  22.606  1.00  0.00    -0.165 F 
HETATM   40  F4  UNL     1      11.816 -10.370  20.809  1.00  0.00    -0.165 F 
ENDBRANCH  32  37
ENDBRANCH   1  30
TORSDOF 10
ENDMDL
MODEL 2
REMARK VINA RESULT: -8.666297764      2.954      4.837
REMARK  10 active torsions:
REMARK  status: ('A' for Active; 'I' for Inactive)
REMARK    1  A    between atoms: C2_2  and  O1_3 
REMARK    2  A    between atoms: O1_3  and  C3_4 
REMARK       I    between atoms: C3_4  and  N1_6 
REMARK       I    between atoms: N1_6  and  C4_8 
REMARK       I    between atoms: C4_8  and  N2_10 
REMARK    3  A    between atoms: C8_15  and  C9_16 
REMARK    4  A    between atoms: C9_16  and  C10_17 
REMARK    5  A    between atoms: C9_16  and  C18_30 
REMARK    6  A    between atoms: C10_17  and  C11_18 
REMARK    7  A    between atoms: C11_18  and  C12_19 
REMARK    8  A    between atoms: C12_19  and  N3_20 
REMARK       I    between atoms: N3_20  and  C13_22 
REMARK       I    between atoms: C13_22  and  N4_24 
REMARK    9  A    between atoms: N4_24  and  C14_26 
REMARK   10  A    between atoms: C19_33  and  C20_34 
ROOT
HETATM    1  C9  UNL     1      15.430 -12.388  19.817  1.00  0.00     0.005 C 
ENDROOT
BRANCH   1   2
HETATM    2  C8  UNL     1      14.826 -13.308  18.802  1.00  0.00     0.128 C 
HETATM    3  N2  UNL     1      14.481 -14.621  19.001  1.00  0.00    -0.322 N 
HETATM    4  C4  UNL     1      14.160 -15.461  20.075  1.00  0.00     0.327 C 
HETATM    5  C5  UNL     1      14.477 -15.264  17.645  1.00  0.00     0.165 C 
HETATM    6  N1  UNL     1      13.854 -16.851  19.808  1.00  0.00    -0.254 N 
HETATM    7  O3  UNL     1      14.097 -15.172  21.289  1.00  0.00    -0.247 OA
HETATM    8  C3  UNL     1      13.555 -17.782  20.844  1.00  0.00     0.368 C 
ATOM      9  H1  UNL     1      13.853 -17.176  18.841  1.00  0.00     0.175 HD
HETATM   10  O2  UNL     1      13.505 -17.357  22.023  1.00  0.00    -0.238 OA
HETATM   11  C6  UNL     1      15.023 -14.318  16.662  1.00  0.00     0.190 C 
HETATM   12  F1  UNL     1      15.912 -14.860  15.765  1.00  0.00    -0.248 F 
HETATM   13  C7  UNL     1      15.654 -13.235  17.509  1.00  0.00     0.069 C 
BRANCH   8  14
HETATM   14  O1  UNL     1      13.325 -19.110  20.622  1.00  0.00    -0.304 OA
BRANCH  14  15
HETATM   15  C2  UNL     1      12.084 -19.752  20.520  1.00  0.00     0.176 C 
HETATM   16  C1  UNL     1      11.269 -19.397  19.327  1.00  0.00     0.034 C 
ENDBRANCH  14  15
ENDBRANCH   8  14
ENDBRANCH   1   2
BRANCH   1  17
HETATM   17  C10 UNL     1      16.780 -12.732  20.238  1.00  0.00    -0.012 C 
BRANCH  17  18
HETATM   18  C11 UNL     1      17.068 -13.449  21.496  1.00  0.00     0.047 C 
BRANCH  18  19
HETATM   19  C12 UNL     1      17.776 -14.747  21.461  1.00  0.00     0.128 C 
BRANCH  19  20
HETATM   20  N3  UNL     1      19.221 -14.597  21.683  1.00  0.00    -0.343 N 
HETATM   21  C13 UNL     1      19.869 -14.680  22.909  1.00  0.00     0.316 C 
HETATM   22  O4  UNL     1      19.203 -14.906  23.972  1.00  0.00    -0.247 OA
HETATM   23  N4  UNL     1      21.257 -14.529  23.086  1.00  0.00    -0.335 N 
ATOM     24  H4  UNL     1      21.800 -14.358  22.239  1.00  0.00     0.165 HD
ATOM     25  H3  UNL     1      19.801 -14.416  20.863  1.00  0.00     0.164 HD
BRANCH  23  26
HETATM   26  C14 UNL     1      21.996 -14.586  24.299  1.00  0.00     0.023 C 
HETATM   27  C15 UNL     1      21.453 -13.808  25.448  1.00  0.00     0.037 C 
HETATM   28  C16 UNL     1      22.180 -16.029  24.756  1.00  0.00     0.037 C 
HETATM   29  C17 UNL     1      23.418 -14.088  24.008  1.00  0.00     0.037 C 
ENDBRANCH  23  26
ENDBRANCH  19  20
ENDBRANCH  18  19
ENDBRANCH  17  18
ENDBRANCH   1  17
BRANCH   1  30
HETATM   30  C18 UNL     1      14.440 -11.780  20.709  1.00  0.00     0.113 A 
HETATM   31  N5  UNL     1      13.480 -12.363  21.448  1.00  0.00    -0.337 N 
HETATM   32  C19 UNL     1      12.735 -11.507  22.131  1.00  0.00     0.133 A 
ATOM     33  H5  UNL     1      13.338 -13.372  21.479  1.00  0.00     0.167 HD
HETATM   34  C21 UNL     1      13.236 -10.265  21.826  1.00  0.00     0.124 A 
HETATM   35  N6  UNL     1      14.241 -10.436  20.986  1.00  0.00    -0.350 N 
ATOM     36  H6  UNL     1      14.798  -9.679  20.592  1.00  0.00     0.166 HD
BRANCH  32  37
HETATM   37  C20 UNL     1      11.584 -11.782  23.058  1.00  0.00     0.433 C 
HETATM   38  F2  UNL     1      10.859 -10.602  23.105  1.00  0.00    -0.165 F 
HETATM   39  F3  UNL     1      10.783 -12.723  22.433  1.00  0.00    -0.165 F 
HETATM   40  F4  UNL     1      12.012 -12.144  24.295  1.00  0.00    -0.165 F 
ENDBRANCH  32  37
ENDBRANCH   1  30
TORSDOF 10
ENDMDL
MODEL 3
REMARK VINA RESULT: -8.507030282      2.961      4.806
REMARK  10 active torsions:
REMARK  status: ('A' for Active; 'I' for Inactive)
REMARK    1  A    between atoms: C2_2  and  O1_3 
REMARK    2  A    between atoms: O1_3  and  C3_4 
REMARK       I    between atoms: C3_4  and  N1_6 
REMARK       I    between atoms: N1_6  and  C4_8 
REMARK       I    between atoms: C4_8  and  N2_10 
REMARK    3  A    between atoms: C8_15  and  C9_16 
REMARK    4  A    between atoms: C9_16  and  C10_17 
REMARK    5  A    between atoms: C9_16  and  C18_30 
REMARK    6  A    between atoms: C10_17  and  C11_18 
REMARK    7  A    between atoms: C11_18  and  C12_19 
REMARK    8  A    between atoms: C12_19  and  N3_20 
REMARK       I    between atoms: N3_20  and  C13_22 
REMARK       I    between atoms: C13_22  and  N4_24 
REMARK    9  A    between atoms: N4_24  and  C14_26 
REMARK   10  A    between atoms: C19_33  and  C20_34 
ROOT
HETATM    1  C9  UNL     1      14.970 -12.382  19.836  1.00  0.00     0.005 C 
ENDROOT
BRANCH   1   2
HETATM    2  C8  UNL     1      14.557 -13.410  18.829  1.00  0.00     0.128 C 
HETATM    3  N2  UNL     1      14.425 -14.757  19.054  1.00  0.00    -0.322 N 
HETATM    4  C4  UNL     1      14.212 -15.615  20.140  1.00  0.00     0.327 C 
HETATM    5  C5  UNL     1      14.569 -15.422  17.715  1.00  0.00     0.165 C 
HETATM    6  N1  UNL     1      14.146 -17.042  19.901  1.00  0.00    -0.254 N 
HETATM    7  O3  UNL     1      14.065 -15.315  21.344  1.00  0.00    -0.247 OA
HETATM    8  C3  UNL     1      13.970 -17.987  20.953  1.00  0.00     0.368 C 
ATOM      9  H1  UNL     1      14.229 -17.383  18.944  1.00  0.00     0.175 HD
HETATM   10  O2  UNL     1      13.814 -17.551  22.119  1.00  0.00    -0.238 OA
HETATM   11  C6  UNL     1      14.985 -14.420  16.723  1.00  0.00     0.190 C 
HETATM   12  F1  UNL     1      15.979 -14.828  15.866  1.00  0.00    -0.248 F 
HETATM   13  C7  UNL     1      15.403 -13.230  17.558  1.00  0.00     0.069 C 
BRANCH   8  14
HETATM   14  O1  UNL     1      13.967 -19.339  20.760  1.00  0.00    -0.304 OA
BRANCH  14  15
HETATM   15  C2  UNL     1      12.986 -20.103  20.115  1.00  0.00     0.176 C 
HETATM   16  C1  UNL     1      11.588 -19.614  20.258  1.00  0.00     0.034 C 
ENDBRANCH  14  15
ENDBRANCH   8  14
ENDBRANCH   1   2
BRANCH   1  17
HETATM   17  C10 UNL     1      16.364 -12.446  20.251  1.00  0.00    -0.012 C 
BRANCH  17  18
HETATM   18  C11 UNL     1      16.814 -13.218  21.427  1.00  0.00     0.047 C 
BRANCH  18  19
HETATM   19  C12 UNL     1      17.543 -14.491  21.240  1.00  0.00     0.128 C 
BRANCH  19  20
HETATM   20  N3  UNL     1      18.976 -14.359  21.545  1.00  0.00    -0.343 N 
HETATM   21  C13 UNL     1      19.560 -14.534  22.793  1.00  0.00     0.316 C 
HETATM   22  O4  UNL     1      18.843 -14.839  23.801  1.00  0.00    -0.247 OA
HETATM   23  N4  UNL     1      20.938 -14.399  23.050  1.00  0.00    -0.335 N 
ATOM     24  H4  UNL     1      21.522 -14.165  22.247  1.00  0.00     0.165 HD
ATOM     25  H3  UNL     1      19.596 -14.118  20.771  1.00  0.00     0.164 HD
BRANCH  23  26
HETATM   26  C14 UNL     1      21.615 -14.548  24.291  1.00  0.00     0.023 C 
HETATM   27  C15 UNL     1      21.114 -13.723  25.427  1.00  0.00     0.037 C 
HETATM   28  C16 UNL     1      21.618 -16.005  24.737  1.00  0.00     0.037 C 
HETATM   29  C17 UNL     1      23.094 -14.209  24.065  1.00  0.00     0.037 C 
ENDBRANCH  23  26
ENDBRANCH  19  20
ENDBRANCH  18  19
ENDBRANCH  17  18
ENDBRANCH   1  17
BRANCH   1  30
HETATM   30  C18 UNL     1      13.883 -11.978  20.731  1.00  0.00     0.113 A 
HETATM   31  N5  UNL     1      13.874 -11.048  21.702  1.00  0.00    -0.337 N 
HETATM   32  C19 UNL     1      12.719 -10.953  22.341  1.00  0.00     0.133 A 
ATOM     33  H5  UNL     1      14.683 -10.468  21.925  1.00  0.00     0.167 HD
HETATM   34  C21 UNL     1      11.900 -11.886  21.755  1.00  0.00     0.124 A 
HETATM   35  N6  UNL     1      12.596 -12.486  20.806  1.00  0.00    -0.350 N 
ATOM     36  H6  UNL     1      12.234 -13.226  20.206  1.00  0.00     0.166 HD
BRANCH  32  37
HETATM   37  C20 UNL     1      12.333 -10.035  23.469  1.00  0.00     0.433 C 
HETATM   38  F2  UNL     1      11.160  -9.421  23.058  1.00  0.00    -0.165 F 
HETATM   39  F3  UNL     1      12.011 -10.840  24.548  1.00  0.00    -0.165 F 
HETATM   40  F4  UNL     1      13.302  -9.119  23.724  1.00  0.00    -0.165 F 
ENDBRANCH  32  37
ENDBRANCH   1  30
TORSDOF 10
ENDMDL
MODEL 4
REMARK VINA RESULT: -8.445817173      4.034      7.470
REMARK  10 active torsions:
REMARK  status: ('A' for Active; 'I' for Inactive)
REMARK    1  A    between atoms: C2_2  and  O1_3 
REMARK    2  A    between atoms: O1_3  and  C3_4 
REMARK       I    between atoms: C3_4  and  N1_6 
REMARK       I    between atoms: N1_6  and  C4_8 
REMARK       I    between atoms: C4_8  and  N2_10 
REMARK    3  A    between atoms: C8_15  and  C9_16 
REMARK    4  A    between atoms: C9_16  and  C10_17 
REMARK    5  A    between atoms: C9_16  and  C18_30 
REMARK    6  A    between atoms: C10_17  and  C11_18 
REMARK    7  A    between atoms: C11_18  and  C12_19 
REMARK    8  A    between atoms: C12_19  and  N3_20 
REMARK       I    between atoms: N3_20  and  C13_22 
REMARK       I    between atoms: C13_22  and  N4_24 
REMARK    9  A    between atoms: N4_24  and  C14_26 
REMARK   10  A    between atoms: C19_33  and  C20_34 
ROOT
HETATM    1  C9  UNL     1      18.458 -14.894  21.750  1.00  0.00     0.005 C 
ENDROOT
BRANCH   1   2
HETATM    2  C8  UNL     1      18.088 -16.273  21.297  1.00  0.00     0.128 C 
HETATM    3  N2  UNL     1      16.820 -16.793  21.239  1.00  0.00    -0.322 N 
HETATM    4  C4  UNL     1      15.504 -16.322  21.150  1.00  0.00     0.327 C 
HETATM    5  C5  UNL     1      16.975 -18.285  21.299  1.00  0.00     0.165 C 
HETATM    6  N1  UNL     1      14.418 -17.280  21.122  1.00  0.00    -0.254 N 
HETATM    7  O3  UNL     1      15.111 -15.137  21.090  1.00  0.00    -0.247 OA
HETATM    8  C3  UNL     1      13.050 -16.885  21.071  1.00  0.00     0.368 C 
ATOM      9  H1  UNL     1      14.642 -18.275  21.140  1.00  0.00     0.175 HD
HETATM   10  O2  UNL     1      12.791 -15.660  20.994  1.00  0.00    -0.238 OA
HETATM   11  C6  UNL     1      18.379 -18.611  21.592  1.00  0.00     0.190 C 
HETATM   12  F1  UNL     1      18.564 -19.600  22.527  1.00  0.00    -0.248 F 
HETATM   13  C7  UNL     1      18.977 -17.292  22.028  1.00  0.00     0.069 C 
BRANCH   8  14
HETATM   14  O1  UNL     1      12.009 -17.768  21.107  1.00  0.00    -0.304 OA
BRANCH  14  15
HETATM   15  C2  UNL     1      11.550 -18.584  20.065  1.00  0.00     0.176 C 
HETATM   16  C1  UNL     1      10.767 -17.896  19.003  1.00  0.00     0.034 C 
ENDBRANCH  14  15
ENDBRANCH   8  14
ENDBRANCH   1   2
BRANCH   1  17
HETATM   17  C10 UNL     1      19.121 -14.071  20.749  1.00  0.00    -0.012 C 
BRANCH  17  18
HETATM   18  C11 UNL     1      18.598 -12.760  20.317  1.00  0.00     0.047 C 
BRANCH  18  19
HETATM   19  C12 UNL     1      17.211 -12.647  19.816  1.00  0.00     0.128 C 
BRANCH  19  20
HETATM   20  N3  UNL     1      16.289 -12.141  20.845  1.00  0.00    -0.343 N 
HETATM   21  C13 UNL     1      14.940 -11.866  20.662  1.00  0.00     0.316 C 
HETATM   22  O4  UNL     1      14.395 -12.049  19.525  1.00  0.00    -0.247 OA
HETATM   23  N4  UNL     1      14.085 -11.380  21.670  1.00  0.00    -0.335 N 
ATOM     24  H4  UNL     1      14.510 -11.239  22.587  1.00  0.00     0.165 HD
ATOM     25  H3  UNL     1      16.675 -11.978  21.775  1.00  0.00     0.164 HD
BRANCH  23  26
HETATM   26  C14 UNL     1      12.704 -11.062  21.567  1.00  0.00     0.023 C 
HETATM   27  C15 UNL     1      12.292 -10.253  20.385  1.00  0.00     0.037 C 
HETATM   28  C16 UNL     1      11.852 -12.325  21.591  1.00  0.00     0.037 C 
HETATM   29  C17 UNL     1      12.301 -10.299  22.837  1.00  0.00     0.037 C 
ENDBRANCH  23  26
ENDBRANCH  19  20
ENDBRANCH  18  19
ENDBRANCH  17  18
ENDBRANCH   1  17
BRANCH   1  30
HETATM   30  C18 UNL     1      18.756 -14.815  23.182  1.00  0.00     0.113 A 
HETATM   31  N5  UNL     1      19.836 -14.313  23.806  1.00  0.00    -0.337 N 
HETATM   32  C19 UNL     1      19.793 -14.424  25.124  1.00  0.00     0.133 A 
ATOM     33  H5  UNL     1      20.617 -13.885  23.308  1.00  0.00     0.167 HD
HETATM   34  C21 UNL     1      18.599 -15.044  25.399  1.00  0.00     0.124 A 
HETATM   35  N6  UNL     1      17.994 -15.271  24.246  1.00  0.00    -0.350 N 
ATOM     36  H6  UNL     1      17.086 -15.724  24.152  1.00  0.00     0.166 HD
BRANCH  32  37
HETATM   37  C20 UNL     1      20.803 -13.978  26.146  1.00  0.00     0.433 C 
HETATM   38  F2  UNL     1      20.997 -12.627  25.906  1.00  0.00    -0.165 F 
HETATM   39  F3  UNL     1      20.193 -14.085  27.384  1.00  0.00    -0.165 F 
HETATM   40  F4  UNL     1      21.967 -14.669  26.034  1.00  0.00    -0.165 F 
ENDBRANCH  32  37
ENDBRANCH   1  30
TORSDOF 10
ENDMDL
MODEL 5
REMARK VINA RESULT: -8.428537653      3.198      6.092
REMARK  10 active torsions:
REMARK  status: ('A' for Active; 'I' for Inactive)
REMARK    1  A    between atoms: C2_2  and  O1_3 
REMARK    2  A    between atoms: O1_3  and  C3_4 
REMARK       I    between atoms: C3_4  and  N1_6 
REMARK       I    between atoms: N1_6  and  C4_8 
REMARK       I    between atoms: C4_8  and  N2_10 
REMARK    3  A    between atoms: C8_15  and  C9_16 
REMARK    4  A    between atoms: C9_16  and  C10_17 
REMARK    5  A    between atoms: C9_16  and  C18_30 
REMARK    6  A    between atoms: C10_17  and  C11_18 
REMARK    7  A    between atoms: C11_18  and  C12_19 
REMARK    8  A    between atoms: C12_19  and  N3_20 
REMARK       I    between atoms: N3_20  and  C13_22 
REMARK       I    between atoms: C13_22  and  N4_24 
REMARK    9  A    between atoms: N4_24  and  C14_26 
REMARK   10  A    between atoms: C19_33  and  C20_34 
ROOT
HETATM    1  C9  UNL     1      16.131 -13.627  19.114  1.00  0.00     0.005 C 
ENDROOT
BRANCH   1   2
HETATM    2  C8  UNL     1      14.888 -14.180  19.739  1.00  0.00     0.128 C 
HETATM    3  N2  UNL     1      14.114 -13.561  20.688  1.00  0.00    -0.322 N 
HETATM    4  C4  UNL     1      13.858 -12.259  21.135  1.00  0.00     0.327 C 
HETATM    5  C5  UNL     1      13.374 -14.654  21.404  1.00  0.00     0.165 C 
HETATM    6  N1  UNL     1      12.925 -12.064  22.225  1.00  0.00    -0.254 N 
HETATM    7  O3  UNL     1      14.343 -11.188  20.711  1.00  0.00    -0.247 OA
HETATM    8  C3  UNL     1      12.636 -10.778  22.765  1.00  0.00     0.368 C 
ATOM      9  H1  UNL     1      12.456 -12.879  22.620  1.00  0.00     0.175 HD
HETATM   10  O2  UNL     1      13.177  -9.779  22.234  1.00  0.00    -0.238 OA
HETATM   11  C6  UNL     1      13.896 -15.956  20.963  1.00  0.00     0.190 C 
HETATM   12  F1  UNL     1      14.106 -16.868  21.969  1.00  0.00    -0.248 F 
HETATM   13  C7  UNL     1      15.171 -15.609  20.228  1.00  0.00     0.069 C 
BRANCH   8  14
HETATM   14  O1  UNL     1      11.807 -10.577  23.832  1.00  0.00    -0.304 OA
BRANCH  14  15
HETATM   15  C2  UNL     1      11.263  -9.362  24.269  1.00  0.00     0.176 C 
HETATM   16  C1  UNL     1      12.241  -8.272  24.531  1.00  0.00     0.034 C 
ENDBRANCH  14  15
ENDBRANCH   8  14
ENDBRANCH   1   2
BRANCH   1  17
HETATM   17  C10 UNL     1      17.029 -12.935  20.027  1.00  0.00    -0.012 C 
BRANCH  17  18
HETATM   18  C11 UNL     1      18.475 -12.789  19.770  1.00  0.00     0.047 C 
BRANCH  18  19
HETATM   19  C12 UNL     1      19.447 -13.593  20.543  1.00  0.00     0.128 C 
BRANCH  19  20
HETATM   20  N3  UNL     1      18.913 -14.003  21.850  1.00  0.00    -0.343 N 
HETATM   21  C13 UNL     1      19.658 -14.490  22.916  1.00  0.00     0.316 C 
HETATM   22  O4  UNL     1      20.922 -14.614  22.813  1.00  0.00    -0.247 OA
HETATM   23  N4  UNL     1      19.112 -14.876  24.156  1.00  0.00    -0.335 N 
ATOM     24  H4  UNL     1      18.102 -14.771  24.252  1.00  0.00     0.165 HD
ATOM     25  H3  UNL     1      17.905 -13.923  21.986  1.00  0.00     0.164 HD
BRANCH  23  26
HETATM   26  C14 UNL     1      19.796 -15.393  25.289  1.00  0.00     0.023 C 
HETATM   27  C15 UNL     1      20.792 -16.472  25.033  1.00  0.00     0.037 C 
HETATM   28  C16 UNL     1      20.501 -14.279  26.055  1.00  0.00     0.037 C 
HETATM   29  C17 UNL     1      18.744 -15.930  26.270  1.00  0.00     0.037 C 
ENDBRANCH  23  26
ENDBRANCH  19  20
ENDBRANCH  18  19
ENDBRANCH  17  18
ENDBRANCH   1  17
BRANCH   1  30
HETATM   30  C18 UNL     1      15.950 -13.234  17.714  1.00  0.00     0.113 A 
HETATM   31  N5  UNL     1      16.325 -12.107  17.085  1.00  0.00    -0.337 N 
HETATM   32  C19 UNL     1      15.980 -12.066  15.807  1.00  0.00     0.133 A 
ATOM     33  H5  UNL     1      16.829 -11.352  17.549  1.00  0.00     0.167 HD
HETATM   34  C21 UNL     1      15.329 -13.251  15.568  1.00  0.00     0.124 A 
HETATM   35  N6  UNL     1      15.316 -13.934  16.699  1.00  0.00    -0.350 N 
ATOM     36  H6  UNL     1      14.894 -14.855  16.812  1.00  0.00     0.166 HD
BRANCH  32  37
HETATM   37  C20 UNL     1      16.228 -10.984  14.793  1.00  0.00     0.433 C 
HETATM   38  F2  UNL     1      15.125 -10.148  14.870  1.00  0.00    -0.165 F 
HETATM   39  F3  UNL     1      17.317 -10.258  15.241  1.00  0.00    -0.165 F 
HETATM   40  F4  UNL     1      16.370 -11.493  13.541  1.00  0.00    -0.165 F 
ENDBRANCH  32  37
ENDBRANCH   1  30
TORSDOF 10
ENDMDL
