MODEL 1
REMARK VINA RESULT: -9.466858659      0.000      0.000
REMARK  4 active torsions:
REMARK  status: ('A' for Active; 'I' for Inactive)
REMARK    1  A    between atoms: O1_1  and  C1_3 
REMARK    2  A    between atoms: C1_3  and  N1_4 
REMARK    3  A    between atoms: C1_3  and  N4_27 
REMARK       I    between atoms: N2_7  and  C4_8 
REMARK    4  A    between atoms: C4_8  and  C5_10 
ROOT
HETATM    1  N1  UNL     1      22.869   5.750  20.792  1.00  0.00    -0.344 N 
HETATM    2  C2  UNL     1      23.453   5.709  22.134  1.00  0.00     0.146 C 
HETATM    3  C3  UNL     1      23.310   4.450  22.889  1.00  0.00     0.147 C 
HETATM    4  N2  UNL     1      22.750   3.355  22.096  1.00  0.00    -0.335 N 
HETATM    5  C4  UNL     1      21.910   2.408  22.667  1.00  0.00     0.254 C 
HETATM    6  O2  UNL     1      21.376   1.588  21.817  1.00  0.00    -0.267 OA
HETATM    7  C11 UNL     1      23.194   3.376  20.733  1.00  0.00     0.055 C 
HETATM    8  C12 UNL     1      23.063   2.142  19.931  1.00  0.00     0.060 C 
HETATM    9  C13 UNL     1      24.040   1.119  20.431  1.00  0.00     0.235 C 
HETATM   10  N3  UNL     1      25.369   1.513  19.932  1.00  0.00    -0.075 N 
ATOM     11  H31 UNL     1      25.627   0.972  19.106  1.00  0.00     0.277 HD
ATOM     12  H32 UNL     1      26.107   1.204  20.566  1.00  0.00     0.277 HD
HETATM   13  C14 UNL     1      25.459   2.901  19.683  1.00  0.00     0.235 C 
HETATM   14  C15 UNL     1      24.654   3.789  20.644  1.00  0.00     0.060 C 
HETATM   15  C16 UNL     1      22.407   4.576  20.119  1.00  0.00     0.157 C 
ENDROOT
BRANCH   1  16
HETATM   16  C1  UNL     1      22.824   7.046  20.224  1.00  0.00     0.222 C 
BRANCH  16  17
HETATM   17  O1  UNL     1      22.753   7.996  21.165  1.00  0.00    -0.332 OA
ATOM     18  H1  UNL     1      21.855   8.255  21.334  1.00  0.00     0.220 HD
ENDBRANCH  16  17
BRANCH  16  19
HETATM   19  N4  UNL     1      22.833   7.556  18.947  1.00  0.00    -0.285 N 
HETATM   20  C17 UNL     1      21.559   8.229  18.524  1.00  0.00     0.132 C 
HETATM   21  C18 UNL     1      21.885   9.534  17.853  1.00  0.00     0.020 C 
HETATM   22  C19 UNL     1      22.607   9.260  16.544  1.00  0.00     0.010 C 
HETATM   23  C20 UNL     1      23.101   7.859  16.579  1.00  0.00     0.104 C 
HETATM   24  C21 UNL     1      23.824   7.546  17.928  1.00  0.00     0.326 C 
HETATM   25  F1  UNL     1      24.754   8.570  18.022  1.00  0.00    -0.182 F 
HETATM   26  F2  UNL     1      24.386   6.315  17.675  1.00  0.00    -0.182 F 
ENDBRANCH  16  19
ENDBRANCH   1  16
BRANCH   5  27
HETATM   27  C5  UNL     1      21.514   2.160  24.031  1.00  0.00     0.034 A 
HETATM   28  C6  UNL     1      22.122   1.095  24.731  1.00  0.00     0.019 A 
HETATM   29  C7  UNL     1      21.902   0.788  26.025  1.00  0.00     0.026 A 
HETATM   30  C8  UNL     1      21.019   1.558  26.743  1.00  0.00     0.055 A 
HETATM   31 CL1  UNL     1      20.710   1.184  28.428  1.00  0.00    -0.083 Cl
HETATM   32  C9  UNL     1      20.407   2.603  26.100  1.00  0.00     0.056 A 
HETATM   33 CL2  UNL     1      19.289   3.549  27.077  1.00  0.00    -0.083 Cl
HETATM   34  C10 UNL     1      20.639   2.909  24.777  1.00  0.00     0.042 A 
ENDBRANCH   5  27
TORSDOF 4
ENDMDL
MODEL 2
REMARK VINA RESULT: -9.320364430      2.961      3.857
REMARK  4 active torsions:
REMARK  status: ('A' for Active; 'I' for Inactive)
REMARK    1  A    between atoms: O1_1  and  C1_3 
REMARK    2  A    between atoms: C1_3  and  N1_4 
REMARK    3  A    between atoms: C1_3  and  N4_27 
REMARK       I    between atoms: N2_7  and  C4_8 
REMARK    4  A    between atoms: C4_8  and  C5_10 
ROOT
HETATM    1  N1  UNL     1      23.606   4.647  20.342  1.00  0.00    -0.344 N 
HETATM    2  C2  UNL     1      24.248   5.385  21.430  1.00  0.00     0.146 C 
HETATM    3  C3  UNL     1      23.558   5.395  22.734  1.00  0.00     0.147 C 
HETATM    4  N2  UNL     1      22.402   4.498  22.787  1.00  0.00    -0.335 N 
HETATM    5  C4  UNL     1      21.271   4.826  23.524  1.00  0.00     0.254 C 
HETATM    6  O2  UNL     1      20.276   4.012  23.360  1.00  0.00    -0.267 OA
HETATM    7  C11 UNL     1      22.604   3.289  22.045  1.00  0.00     0.055 C 
HETATM    8  C12 UNL     1      21.732   2.132  22.332  1.00  0.00     0.060 C 
HETATM    9  C13 UNL     1      22.070   1.580  23.686  1.00  0.00     0.235 C 
HETATM   10  N3  UNL     1      23.325   0.822  23.541  1.00  0.00    -0.075 N 
ATOM     11  H31 UNL     1      23.144  -0.179  23.467  1.00  0.00     0.277 HD
ATOM     12  H32 UNL     1      23.861   0.828  24.409  1.00  0.00     0.277 HD
HETATM   13  C14 UNL     1      24.107   1.282  22.456  1.00  0.00     0.235 C 
HETATM   14  C15 UNL     1      24.034   2.793  22.194  1.00  0.00     0.060 C 
HETATM   15  C16 UNL     1      22.505   3.761  20.560  1.00  0.00     0.157 C 
ENDROOT
BRANCH   1  16
HETATM   16  C1  UNL     1      24.183   4.879  19.070  1.00  0.00     0.222 C 
BRANCH  16  17
HETATM   17  O1  UNL     1      24.790   3.783  18.596  1.00  0.00    -0.332 OA
ATOM     18  H1  UNL     1      24.442   2.992  18.990  1.00  0.00     0.220 HD
ENDBRANCH  16  17
BRANCH  16  19
HETATM   19  N4  UNL     1      24.270   5.952  18.215  1.00  0.00    -0.285 N 
HETATM   20  C17 UNL     1      25.144   5.736  17.014  1.00  0.00     0.132 C 
HETATM   21  C18 UNL     1      24.435   6.237  15.786  1.00  0.00     0.020 C 
HETATM   22  C19 UNL     1      24.293   7.748  15.869  1.00  0.00     0.010 C 
HETATM   23  C20 UNL     1      24.519   8.152  17.282  1.00  0.00     0.104 C 
HETATM   24  C21 UNL     1      23.702   7.254  18.265  1.00  0.00     0.326 C 
HETATM   25  F1  UNL     1      22.414   7.337  17.759  1.00  0.00    -0.182 F 
HETATM   26  F2  UNL     1      23.866   7.915  19.462  1.00  0.00    -0.182 F 
ENDBRANCH  16  19
ENDBRANCH   1  16
BRANCH   5  27
HETATM   27  C5  UNL     1      20.987   5.903  24.439  1.00  0.00     0.034 A 
HETATM   28  C6  UNL     1      20.756   5.595  25.797  1.00  0.00     0.019 A 
HETATM   29  C7  UNL     1      20.546   6.499  26.776  1.00  0.00     0.026 A 
HETATM   30  C8  UNL     1      20.553   7.834  26.450  1.00  0.00     0.055 A 
HETATM   31 CL1  UNL     1      20.283   9.035  27.699  1.00  0.00    -0.083 Cl
HETATM   32  C9  UNL     1      20.776   8.176  25.141  1.00  0.00     0.056 A 
HETATM   33 CL2  UNL     1      20.773   9.901  24.793  1.00  0.00    -0.083 Cl
HETATM   34  C10 UNL     1      20.990   7.244  24.148  1.00  0.00     0.042 A 
ENDBRANCH   5  27
TORSDOF 4
ENDMDL
MODEL 3
REMARK VINA RESULT: -9.300879302      2.817      3.540
REMARK  4 active torsions:
REMARK  status: ('A' for Active; 'I' for Inactive)
REMARK    1  A    between atoms: O1_1  and  C1_3 
REMARK    2  A    between atoms: C1_3  and  N1_4 
REMARK    3  A    between atoms: C1_3  and  N4_27 
REMARK       I    between atoms: N2_7  and  C4_8 
REMARK    4  A    between atoms: C4_8  and  C5_10 
ROOT
HETATM    1  N1  UNL     1      23.282   5.492  20.381  1.00  0.00    -0.344 N 
HETATM    2  C2  UNL     1      23.922   6.146  21.523  1.00  0.00     0.146 C 
HETATM    3  C3  UNL     1      23.334   5.899  22.853  1.00  0.00     0.147 C 
HETATM    4  N2  UNL     1      22.289   4.876  22.847  1.00  0.00    -0.335 N 
HETATM    5  C4  UNL     1      21.187   4.967  23.688  1.00  0.00     0.254 C 
HETATM    6  O2  UNL     1      20.276   4.072  23.470  1.00  0.00    -0.267 OA
HETATM    7  C11 UNL     1      22.562   3.810  21.929  1.00  0.00     0.055 C 
HETATM    8  C12 UNL     1      21.843   2.531  22.100  1.00  0.00     0.060 C 
HETATM    9  C13 UNL     1      22.339   1.844  23.338  1.00  0.00     0.235 C 
HETATM   10  N3  UNL     1      23.653   1.264  23.012  1.00  0.00    -0.075 N 
ATOM     11  H31 UNL     1      23.575   0.268  22.807  1.00  0.00     0.277 HD
ATOM     12  H32 UNL     1      24.249   1.214  23.839  1.00  0.00     0.277 HD
HETATM   13  C14 UNL     1      24.298   1.953  21.960  1.00  0.00     0.235 C 
HETATM   14  C15 UNL     1      24.044   3.468  21.921  1.00  0.00     0.060 C 
HETATM   15  C16 UNL     1      22.302   4.463  20.535  1.00  0.00     0.157 C 
ENDROOT
BRANCH   1  16
HETATM   16  C1  UNL     1      23.734   5.959  19.123  1.00  0.00     0.222 C 
BRANCH  16  17
HETATM   17  O1  UNL     1      24.686   5.166  18.614  1.00  0.00    -0.332 OA
ATOM     18  H1  UNL     1      24.487   4.248  18.753  1.00  0.00     0.220 HD
ENDBRANCH  16  17
BRANCH  16  19
HETATM   19  N4  UNL     1      23.433   7.025  18.308  1.00  0.00    -0.285 N 
HETATM   20  C17 UNL     1      24.309   7.164  17.097  1.00  0.00     0.132 C 
HETATM   21  C18 UNL     1      23.452   7.432  15.891  1.00  0.00     0.020 C 
HETATM   22  C19 UNL     1      22.799   8.797  16.030  1.00  0.00     0.010 C 
HETATM   23  C20 UNL     1      22.895   9.206  17.457  1.00  0.00     0.104 C 
HETATM   24  C21 UNL     1      22.453   8.049  18.408  1.00  0.00     0.326 C 
HETATM   25  F1  UNL     1      21.207   7.701  17.910  1.00  0.00    -0.182 F 
HETATM   26  F2  UNL     1      22.397   8.685  19.629  1.00  0.00    -0.182 F 
ENDBRANCH  16  19
ENDBRANCH   1  16
BRANCH   5  27
HETATM   27  C5  UNL     1      20.860   5.870  24.763  1.00  0.00     0.034 A 
HETATM   28  C6  UNL     1      20.650   5.339  26.054  1.00  0.00     0.019 A 
HETATM   29  C7  UNL     1      20.405   6.065  27.164  1.00  0.00     0.026 A 
HETATM   30  C8  UNL     1      20.349   7.434  27.056  1.00  0.00     0.055 A 
HETATM   31 CL1  UNL     1      20.030   8.406  28.480  1.00  0.00    -0.083 Cl
HETATM   32  C9  UNL     1      20.548   7.989  25.818  1.00  0.00     0.056 A 
HETATM   33 CL2  UNL     1      20.464   9.747  25.749  1.00  0.00    -0.083 Cl
HETATM   34  C10 UNL     1      20.799   7.238  24.690  1.00  0.00     0.042 A 
ENDBRANCH   5  27
TORSDOF 4
ENDMDL
MODEL 4
REMARK VINA RESULT: -9.285683765      2.712      3.307
REMARK  4 active torsions:
REMARK  status: ('A' for Active; 'I' for Inactive)
REMARK    1  A    between atoms: O1_1  and  C1_3 
REMARK    2  A    between atoms: C1_3  and  N1_4 
REMARK    3  A    between atoms: C1_3  and  N4_27 
REMARK       I    between atoms: N2_7  and  C4_8 
REMARK    4  A    between atoms: C4_8  and  C5_10 
ROOT
HETATM    1  N1  UNL     1      23.226   5.617  20.362  1.00  0.00    -0.344 N 
HETATM    2  C2  UNL     1      23.890   6.258  21.499  1.00  0.00     0.146 C 
HETATM    3  C3  UNL     1      23.334   5.989  22.838  1.00  0.00     0.147 C 
HETATM    4  N2  UNL     1      22.293   4.960  22.841  1.00  0.00    -0.335 N 
HETATM    5  C4  UNL     1      21.211   5.033  23.709  1.00  0.00     0.254 C 
HETATM    6  O2  UNL     1      20.299   4.137  23.499  1.00  0.00    -0.267 OA
HETATM    7  C11 UNL     1      22.550   3.909  21.902  1.00  0.00     0.055 C 
HETATM    8  C12 UNL     1      21.841   2.624  22.071  1.00  0.00     0.060 C 
HETATM    9  C13 UNL     1      22.369   1.922  23.287  1.00  0.00     0.235 C 
HETATM   10  N3  UNL     1      23.678   1.353  22.923  1.00  0.00    -0.075 N 
ATOM     11  H31 UNL     1      23.600   0.359  22.706  1.00  0.00     0.277 HD
ATOM     12  H32 UNL     1      24.293   1.295  23.735  1.00  0.00     0.277 HD
HETATM   13  C14 UNL     1      24.295   2.061  21.866  1.00  0.00     0.235 C 
HETATM   14  C15 UNL     1      24.033   3.574  21.855  1.00  0.00     0.060 C 
HETATM   15  C16 UNL     1      22.255   4.580  20.524  1.00  0.00     0.157 C 
ENDROOT
BRANCH   1  16
HETATM   16  C1  UNL     1      23.647   6.104  19.101  1.00  0.00     0.222 C 
BRANCH  16  17
HETATM   17  O1  UNL     1      24.663   5.385  18.607  1.00  0.00    -0.332 OA
ATOM     18  H1  UNL     1      24.644   4.489  18.923  1.00  0.00     0.220 HD
ENDBRANCH  16  17
BRANCH  16  19
HETATM   19  N4  UNL     1      23.266   7.133  18.272  1.00  0.00    -0.285 N 
HETATM   20  C17 UNL     1      21.903   7.698  18.550  1.00  0.00     0.132 C 
HETATM   21  C18 UNL     1      21.976   9.200  18.539  1.00  0.00     0.020 C 
HETATM   22  C19 UNL     1      22.292   9.679  17.132  1.00  0.00     0.010 C 
HETATM   23  C20 UNL     1      22.820   8.521  16.363  1.00  0.00     0.104 C 
HETATM   24  C21 UNL     1      23.915   7.756  17.172  1.00  0.00     0.326 C 
HETATM   25  F1  UNL     1      24.798   8.765  17.524  1.00  0.00    -0.182 F 
HETATM   26  F2  UNL     1      24.419   6.890  16.227  1.00  0.00    -0.182 F 
ENDBRANCH  16  19
ENDBRANCH   1  16
BRANCH   5  27
HETATM   27  C5  UNL     1      20.904   5.919  24.804  1.00  0.00     0.034 A 
HETATM   28  C6  UNL     1      20.794   5.378  26.104  1.00  0.00     0.019 A 
HETATM   29  C7  UNL     1      20.579   6.091  27.229  1.00  0.00     0.026 A 
HETATM   30  C8  UNL     1      20.454   7.456  27.129  1.00  0.00     0.055 A 
HETATM   31 CL1  UNL     1      20.173   8.411  28.571  1.00  0.00    -0.083 Cl
HETATM   32  C9  UNL     1      20.555   8.021  25.883  1.00  0.00     0.056 A 
HETATM   33 CL2  UNL     1      20.386   9.772  25.826  1.00  0.00    -0.083 Cl
HETATM   34  C10 UNL     1      20.776   7.284  24.740  1.00  0.00     0.042 A 
ENDBRANCH   5  27
TORSDOF 4
ENDMDL
MODEL 5
REMARK VINA RESULT: -9.248460302      1.037      1.456
REMARK  4 active torsions:
REMARK  status: ('A' for Active; 'I' for Inactive)
REMARK    1  A    between atoms: O1_1  and  C1_3 
REMARK    2  A    between atoms: C1_3  and  N1_4 
REMARK    3  A    between atoms: C1_3  and  N4_27 
REMARK       I    between atoms: N2_7  and  C4_8 
REMARK    4  A    between atoms: C4_8  and  C5_10 
ROOT
HETATM    1  N1  UNL     1      22.879   5.971  20.892  1.00  0.00    -0.344 N 
HETATM    2  C2  UNL     1      23.465   5.864  22.229  1.00  0.00     0.146 C 
HETATM    3  C3  UNL     1      23.337   4.565  22.915  1.00  0.00     0.147 C 
HETATM    4  N2  UNL     1      22.789   3.508  22.064  1.00  0.00    -0.335 N 
HETATM    5  C4  UNL     1      21.961   2.522  22.583  1.00  0.00     0.254 C 
HETATM    6  O2  UNL     1      21.436   1.743  21.690  1.00  0.00    -0.267 OA
HETATM    7  C11 UNL     1      23.231   3.608  20.704  1.00  0.00     0.055 C 
HETATM    8  C12 UNL     1      23.114   2.418  19.836  1.00  0.00     0.060 C 
HETATM    9  C13 UNL     1      24.103   1.381  20.279  1.00  0.00     0.235 C 
HETATM   10  N3  UNL     1      25.427   1.816  19.802  1.00  0.00    -0.075 N 
ATOM     11  H31 UNL     1      25.690   1.324  18.948  1.00  0.00     0.277 HD
ATOM     12  H32 UNL     1      26.169   1.482  20.418  1.00  0.00     0.277 HD
HETATM   13  C14 UNL     1      25.500   3.217  19.629  1.00  0.00     0.235 C 
HETATM   14  C15 UNL     1      24.687   4.042  20.637  1.00  0.00     0.060 C 
HETATM   15  C16 UNL     1      22.430   4.831  20.156  1.00  0.00     0.157 C 
ENDROOT
BRANCH   1  16
HETATM   16  C1  UNL     1      22.819   7.296  20.395  1.00  0.00     0.222 C 
BRANCH  16  17
HETATM   17  O1  UNL     1      22.764   8.194  21.387  1.00  0.00    -0.332 OA
ATOM     18  H1  UNL     1      22.175   8.909  21.179  1.00  0.00     0.220 HD
ENDBRANCH  16  17
BRANCH  16  19
HETATM   19  N4  UNL     1      22.800   7.873  19.147  1.00  0.00    -0.285 N 
HETATM   20  C17 UNL     1      24.059   7.696  18.348  1.00  0.00     0.132 C 
HETATM   21  C18 UNL     1      23.705   7.292  16.944  1.00  0.00     0.020 C 
HETATM   22  C19 UNL     1      22.991   8.443  16.254  1.00  0.00     0.010 C 
HETATM   23  C20 UNL     1      22.529   9.389  17.304  1.00  0.00     0.104 C 
HETATM   24  C21 UNL     1      21.811   8.636  18.468  1.00  0.00     0.326 C 
HETATM   25  F1  UNL     1      20.858   7.879  17.805  1.00  0.00    -0.182 F 
HETATM   26  F2  UNL     1      21.277   9.675  19.197  1.00  0.00    -0.182 F 
ENDBRANCH  16  19
ENDBRANCH   1  16
BRANCH   5  27
HETATM   27  C5  UNL     1      21.569   2.195  23.931  1.00  0.00     0.034 A 
HETATM   28  C6  UNL     1      22.152   1.070  24.554  1.00  0.00     0.019 A 
HETATM   29  C7  UNL     1      21.934   0.684  25.828  1.00  0.00     0.026 A 
HETATM   30  C8  UNL     1      21.079   1.429  26.603  1.00  0.00     0.055 A 
HETATM   31 CL1  UNL     1      20.773   0.954  28.263  1.00  0.00    -0.083 Cl
HETATM   32  C9  UNL     1      20.492   2.532  26.036  1.00  0.00     0.056 A 
HETATM   33 CL2  UNL     1      19.410   3.442  27.085  1.00  0.00    -0.083 Cl
HETATM   34  C10 UNL     1      20.722   2.918  24.734  1.00  0.00     0.042 A 
ENDBRANCH   5  27
TORSDOF 4
ENDMDL
