MODEL 1
REMARK VINA RESULT: -10.239181710      0.000      0.000
REMARK  5 active torsions:
REMARK  status: ('A' for Active; 'I' for Inactive)
REMARK    1  A    between atoms: N1_5  and  C5_6 
REMARK    2  A    between atoms: N3_18  and  C16_19 
REMARK    3  A    between atoms: C16_19  and  N4_21 
REMARK    4  A    between atoms: N4_21  and  C17_23 
REMARK    5  A    between atoms: C21_28  and  C22_29 
ROOT
HETATM    1  C1  UNL     1      21.963   4.948  20.094  1.00  0.00     0.040 C 
HETATM    2  C2  UNL     1      22.978   3.833  20.351  1.00  0.00     0.054 C 
HETATM    3  C3  UNL     1      24.106   4.489  21.177  1.00  0.00     0.040 C 
HETATM    4  C4  UNL     1      22.428   2.771  21.208  1.00  0.00     0.303 C 
HETATM    5  N1  UNL     1      21.896   1.599  20.580  1.00  0.00     0.098 N 
HETATM    6  C14 UNL     1      22.797   1.024  19.618  1.00  0.00     0.293 C 
HETATM    7  C15 UNL     1      23.477   1.998  18.745  1.00  0.00     0.156 C 
HETATM    8  N3  UNL     1      23.558   3.351  19.151  1.00  0.00    -0.346 N 
ENDROOT
BRANCH   8   9
HETATM    9  C16 UNL     1      24.255   4.260  18.270  1.00  0.00     0.175 C 
HETATM   10  S1  UNL     1      25.253   3.613  17.167  1.00  0.00    -0.041 SA
BRANCH   9  11
HETATM   11  N4  UNL     1      24.079   5.635  18.431  1.00  0.00    -0.333 N 
ATOM     12  H4  UNL     1      24.363   6.015  19.334  1.00  0.00     0.168 HD
BRANCH  11  13
HETATM   13  C17 UNL     1      23.558   6.572  17.505  1.00  0.00     0.035 A 
HETATM   14  C18 UNL     1      23.970   6.501  16.159  1.00  0.00     0.032 A 
HETATM   15  C19 UNL     1      23.522   7.397  15.228  1.00  0.00     0.045 A 
HETATM   16  C20 UNL     1      22.648   8.410  15.576  1.00  0.00     0.131 A 
HETATM   17  F1  UNL     1      22.214   9.292  14.635  1.00  0.00    -0.205 F 
HETATM   18  C21 UNL     1      22.228   8.509  16.880  1.00  0.00     0.088 A 
HETATM   19  C23 UNL     1      22.697   7.587  17.801  1.00  0.00     0.048 A 
BRANCH  18  20
HETATM   20  C22 UNL     1      21.279   9.598  17.278  1.00  0.00     0.420 C 
HETATM   21  F2  UNL     1      21.196   9.566  18.668  1.00  0.00    -0.166 F 
HETATM   22  F3  UNL     1      21.807  10.822  16.913  1.00  0.00    -0.166 F 
HETATM   23  F4  UNL     1      20.061   9.422  16.681  1.00  0.00    -0.166 F 
ENDBRANCH  18  20
ENDBRANCH  11  13
ENDBRANCH   9  11
ENDBRANCH   8   9
BRANCH   5  24
HETATM   24  C5  UNL     1      21.786   0.617  21.680  1.00  0.00     0.251 C 
HETATM   25  C6  UNL     1      22.976  -0.275  21.534  1.00  0.00     0.045 C 
HETATM   26  C7  UNL     1      23.476  -0.886  22.791  1.00  0.00     0.027 C 
HETATM   27  C8  UNL     1      24.530   0.071  23.364  1.00  0.00     0.037 C 
HETATM   28  C11 UNL     1      22.438  -0.818  23.879  1.00  0.00     0.156 C 
HETATM   29  C9  UNL     1      23.699   1.038  24.165  1.00  0.00     0.274 C 
HETATM   30  N2  UNL     1      22.317   0.600  24.084  1.00  0.00     0.100 N 
HETATM   31  C10 UNL     1      21.693   1.296  23.010  1.00  0.00     0.309 C 
HETATM   32  C12 UNL     1      23.038  -1.458  25.112  1.00  0.00     0.049 C 
HETATM   33  C13 UNL     1      21.161  -1.518  23.567  1.00  0.00     0.049 C 
ENDBRANCH   5  24
TORSDOF 5
ENDMDL
MODEL 2
REMARK VINA RESULT: -9.928854373      3.495      6.305
REMARK  5 active torsions:
REMARK  status: ('A' for Active; 'I' for Inactive)
REMARK    1  A    between atoms: N1_5  and  C5_6 
REMARK    2  A    between atoms: N3_18  and  C16_19 
REMARK    3  A    between atoms: C16_19  and  N4_21 
REMARK    4  A    between atoms: N4_21  and  C17_23 
REMARK    5  A    between atoms: C21_28  and  C22_29 
ROOT
HETATM    1  C1  UNL     1      19.671   1.830  21.957  1.00  0.00     0.040 C 
HETATM    2  C2  UNL     1      21.186   1.682  22.109  1.00  0.00     0.054 C 
HETATM    3  C3  UNL     1      21.387   0.452  23.020  1.00  0.00     0.040 C 
HETATM    4  C4  UNL     1      21.838   1.342  20.835  1.00  0.00     0.303 C 
HETATM    5  N1  UNL     1      22.419   2.401  20.066  1.00  0.00     0.098 N 
HETATM    6  C14 UNL     1      23.287   3.245  20.843  1.00  0.00     0.293 C 
HETATM    7  C15 UNL     1      22.777   3.595  22.181  1.00  0.00     0.156 C 
HETATM    8  N3  UNL     1      21.768   2.794  22.767  1.00  0.00    -0.346 N 
ENDROOT
BRANCH   8   9
HETATM    9  C16 UNL     1      21.321   3.168  24.089  1.00  0.00     0.175 C 
HETATM   10  S1  UNL     1      22.029   2.439  25.352  1.00  0.00    -0.041 SA
BRANCH   9  11
HETATM   11  N4  UNL     1      20.283   4.092  24.221  1.00  0.00    -0.333 N 
ATOM     12  H4  UNL     1      19.376   3.705  24.483  1.00  0.00     0.168 HD
BRANCH  11  13
HETATM   13  C17 UNL     1      20.323   5.496  24.040  1.00  0.00     0.035 A 
HETATM   14  C18 UNL     1      19.941   6.332  25.108  1.00  0.00     0.032 A 
HETATM   15  C19 UNL     1      19.933   7.694  24.979  1.00  0.00     0.045 A 
HETATM   16  C20 UNL     1      20.299   8.301  23.792  1.00  0.00     0.131 A 
HETATM   17  F1  UNL     1      20.284   9.657  23.685  1.00  0.00    -0.205 F 
HETATM   18  C21 UNL     1      20.676   7.515  22.731  1.00  0.00     0.088 A 
HETATM   19  C23 UNL     1      20.675   6.139  22.889  1.00  0.00     0.048 A 
BRANCH  18  20
HETATM   20  C22 UNL     1      21.078   8.152  21.436  1.00  0.00     0.420 C 
HETATM   21  F2  UNL     1      22.235   8.884  21.695  1.00  0.00    -0.166 F 
HETATM   22  F3  UNL     1      21.395   7.169  20.519  1.00  0.00    -0.166 F 
HETATM   23  F4  UNL     1      20.068   8.935  20.947  1.00  0.00    -0.166 F 
ENDBRANCH  18  20
ENDBRANCH  11  13
ENDBRANCH   9  11
ENDBRANCH   8   9
BRANCH   5  24
HETATM   24  C5  UNL     1      23.285   1.707  19.089  1.00  0.00     0.251 C 
HETATM   25  C6  UNL     1      23.189   2.510  17.833  1.00  0.00     0.045 C 
HETATM   26  C7  UNL     1      24.382   2.463  16.951  1.00  0.00     0.027 C 
HETATM   27  C8  UNL     1      25.295   3.622  17.371  1.00  0.00     0.037 C 
HETATM   28  C11 UNL     1      25.266   1.294  17.293  1.00  0.00     0.156 C 
HETATM   29  C9  UNL     1      26.101   3.021  18.492  1.00  0.00     0.274 C 
HETATM   30  N2  UNL     1      25.701   1.631  18.621  1.00  0.00     0.100 N 
HETATM   31  C10 UNL     1      24.679   1.553  19.610  1.00  0.00     0.309 C 
HETATM   32  C12 UNL     1      26.447   1.332  16.349  1.00  0.00     0.049 C 
HETATM   33  C13 UNL     1      24.614  -0.039  17.167  1.00  0.00     0.049 C 
ENDBRANCH   5  24
TORSDOF 5
ENDMDL
MODEL 3
REMARK VINA RESULT: -9.926909580      1.247      1.748
REMARK  5 active torsions:
REMARK  status: ('A' for Active; 'I' for Inactive)
REMARK    1  A    between atoms: N1_5  and  C5_6 
REMARK    2  A    between atoms: N3_18  and  C16_19 
REMARK    3  A    between atoms: C16_19  and  N4_21 
REMARK    4  A    between atoms: N4_21  and  C17_23 
REMARK    5  A    between atoms: C21_28  and  C22_29 
ROOT
HETATM    1  C1  UNL     1      21.738   4.704  20.393  1.00  0.00     0.040 C 
HETATM    2  C2  UNL     1      23.037   3.909  20.243  1.00  0.00     0.054 C 
HETATM    3  C3  UNL     1      24.088   4.685  21.065  1.00  0.00     0.040 C 
HETATM    4  C4  UNL     1      22.947   2.581  20.868  1.00  0.00     0.303 C 
HETATM    5  N1  UNL     1      22.630   1.459  20.037  1.00  0.00     0.098 N 
HETATM    6  C14 UNL     1      23.457   1.384  18.862  1.00  0.00     0.293 C 
HETATM    7  C15 UNL     1      23.689   2.672  18.184  1.00  0.00     0.156 C 
HETATM    8  N3  UNL     1      23.491   3.876  18.901  1.00  0.00    -0.346 N 
ENDROOT
BRANCH   8   9
HETATM    9  C16 UNL     1      23.754   5.110  18.196  1.00  0.00     0.175 C 
HETATM   10  S1  UNL     1      24.504   5.006  16.763  1.00  0.00    -0.041 SA
BRANCH   9  11
HETATM   11  N4  UNL     1      23.399   6.322  18.789  1.00  0.00    -0.333 N 
ATOM     12  H4  UNL     1      23.618   6.411  19.781  1.00  0.00     0.168 HD
BRANCH  11  13
HETATM   13  C17 UNL     1      22.776   7.447  18.194  1.00  0.00     0.035 A 
HETATM   14  C18 UNL     1      23.376   8.041  17.066  1.00  0.00     0.032 A 
HETATM   15  C19 UNL     1      22.834   9.145  16.469  1.00  0.00     0.045 A 
HETATM   16  C20 UNL     1      21.674   9.721  16.953  1.00  0.00     0.131 A 
HETATM   17  F1  UNL     1      21.150  10.820  16.344  1.00  0.00    -0.205 F 
HETATM   18  C21 UNL     1      21.063   9.167  18.052  1.00  0.00     0.088 A 
HETATM   19  C23 UNL     1      21.634   8.049  18.636  1.00  0.00     0.048 A 
BRANCH  18  20
HETATM   20  C22 UNL     1      19.805   9.774  18.591  1.00  0.00     0.420 C 
HETATM   21  F2  UNL     1      18.792   9.462  17.686  1.00  0.00    -0.166 F 
HETATM   22  F3  UNL     1      19.491   9.183  19.800  1.00  0.00    -0.166 F 
HETATM   23  F4  UNL     1      19.951  11.124  18.759  1.00  0.00    -0.166 F 
ENDBRANCH  18  20
ENDBRANCH  11  13
ENDBRANCH   9  11
ENDBRANCH   8   9
BRANCH   5  24
HETATM   24  C5  UNL     1      22.983   0.284  20.864  1.00  0.00     0.251 C 
HETATM   25  C6  UNL     1      24.309   0.612  21.471  1.00  0.00     0.045 C 
HETATM   26  C7  UNL     1      24.585  -0.023  22.784  1.00  0.00     0.027 C 
HETATM   27  C8  UNL     1      24.089   0.949  23.863  1.00  0.00     0.037 C 
HETATM   28  C11 UNL     1      23.661  -1.185  23.031  1.00  0.00     0.156 C 
HETATM   29  C9  UNL     1      22.634   0.586  23.994  1.00  0.00     0.274 C 
HETATM   30  N2  UNL     1      22.381  -0.535  23.106  1.00  0.00     0.100 N 
HETATM   31  C10 UNL     1      21.913  -0.020  21.864  1.00  0.00     0.309 C 
HETATM   32  C12 UNL     1      24.016  -1.760  24.385  1.00  0.00     0.049 C 
HETATM   33  C13 UNL     1      23.752  -2.279  22.025  1.00  0.00     0.049 C 
ENDBRANCH   5  24
TORSDOF 5
ENDMDL
MODEL 4
REMARK VINA RESULT: -9.883214303      1.192      1.889
REMARK  5 active torsions:
REMARK  status: ('A' for Active; 'I' for Inactive)
REMARK    1  A    between atoms: N1_5  and  C5_6 
REMARK    2  A    between atoms: N3_18  and  C16_19 
REMARK    3  A    between atoms: C16_19  and  N4_21 
REMARK    4  A    between atoms: N4_21  and  C17_23 
REMARK    5  A    between atoms: C21_28  and  C22_29 
ROOT
HETATM    1  C1  UNL     1      21.595   3.919  20.109  1.00  0.00     0.040 C 
HETATM    2  C2  UNL     1      23.011   3.794  20.674  1.00  0.00     0.054 C 
HETATM    3  C3  UNL     1      23.462   5.240  20.969  1.00  0.00     0.040 C 
HETATM    4  C4  UNL     1      23.028   3.102  21.972  1.00  0.00     0.303 C 
HETATM    5  N1  UNL     1      23.325   1.700  21.990  1.00  0.00     0.098 N 
HETATM    6  C14 UNL     1      24.514   1.372  21.252  1.00  0.00     0.293 C 
HETATM    7  C15 UNL     1      24.653   2.066  19.959  1.00  0.00     0.156 C 
HETATM    8  N3  UNL     1      23.917   3.252  19.729  1.00  0.00    -0.346 N 
ENDROOT
BRANCH   8   9
HETATM    9  C16 UNL     1      24.108   3.905  18.453  1.00  0.00     0.175 C 
HETATM   10  S1  UNL     1      24.095   2.973  17.127  1.00  0.00    -0.041 SA
BRANCH   9  11
HETATM   11  N4  UNL     1      24.337   5.281  18.420  1.00  0.00    -0.333 N 
ATOM     12  H4  UNL     1      24.973   5.642  19.130  1.00  0.00     0.168 HD
BRANCH  11  13
HETATM   13  C17 UNL     1      23.801   6.243  17.528  1.00  0.00     0.035 A 
HETATM   14  C18 UNL     1      24.196   6.214  16.176  1.00  0.00     0.032 A 
HETATM   15  C19 UNL     1      23.734   7.136  15.278  1.00  0.00     0.045 A 
HETATM   16  C20 UNL     1      22.860   8.134  15.666  1.00  0.00     0.131 A 
HETATM   17  F1  UNL     1      22.411   9.042  14.757  1.00  0.00    -0.205 F 
HETATM   18  C21 UNL     1      22.456   8.193  16.978  1.00  0.00     0.088 A 
HETATM   19  C23 UNL     1      22.940   7.246  17.865  1.00  0.00     0.048 A 
BRANCH  18  20
HETATM   20  C22 UNL     1      21.509   9.266  17.419  1.00  0.00     0.420 C 
HETATM   21  F2  UNL     1      21.529   9.268  18.812  1.00  0.00    -0.166 F 
HETATM   22  F3  UNL     1      21.972  10.494  16.986  1.00  0.00    -0.166 F 
HETATM   23  F4  UNL     1      20.255   9.041  16.919  1.00  0.00    -0.166 F 
ENDBRANCH  18  20
ENDBRANCH  11  13
ENDBRANCH   9  11
ENDBRANCH   8   9
BRANCH   5  24
HETATM   24  C5  UNL     1      23.628   1.413  23.409  1.00  0.00     0.251 C 
HETATM   25  C6  UNL     1      22.299   1.300  24.083  1.00  0.00     0.045 C 
HETATM   26  C7  UNL     1      22.258   0.410  25.271  1.00  0.00     0.027 C 
HETATM   27  C8  UNL     1      21.885  -0.990  24.768  1.00  0.00     0.037 C 
HETATM   28  C11 UNL     1      23.642   0.142  25.796  1.00  0.00     0.156 C 
HETATM   29  C9  UNL     1      23.220  -1.571  24.380  1.00  0.00     0.274 C 
HETATM   30  N2  UNL     1      24.236  -0.587  24.709  1.00  0.00     0.100 N 
HETATM   31  C10 UNL     1      24.488   0.197  23.547  1.00  0.00     0.309 C 
HETATM   32  C12 UNL     1      23.498  -0.769  26.996  1.00  0.00     0.049 C 
HETATM   33  C13 UNL     1      24.394   1.355  26.223  1.00  0.00     0.049 C 
ENDBRANCH   5  24
TORSDOF 5
ENDMDL
MODEL 5
REMARK VINA RESULT: -9.873445079      3.541      5.281
REMARK  5 active torsions:
REMARK  status: ('A' for Active; 'I' for Inactive)
REMARK    1  A    between atoms: N1_5  and  C5_6 
REMARK    2  A    between atoms: N3_18  and  C16_19 
REMARK    3  A    between atoms: C16_19  and  N4_21 
REMARK    4  A    between atoms: N4_21  and  C17_23 
REMARK    5  A    between atoms: C21_28  and  C22_29 
ROOT
HETATM    1  C1  UNL     1      26.313   3.348  19.305  1.00  0.00     0.040 C 
HETATM    2  C2  UNL     1      25.395   3.114  18.104  1.00  0.00     0.054 C 
HETATM    3  C3  UNL     1      25.780   4.202  17.079  1.00  0.00     0.040 C 
HETATM    4  C4  UNL     1      25.669   1.831  17.441  1.00  0.00     0.303 C 
HETATM    5  N1  UNL     1      24.853   0.703  17.780  1.00  0.00     0.098 N 
HETATM    6  C14 UNL     1      23.446   0.992  17.710  1.00  0.00     0.293 C 
HETATM    7  C15 UNL     1      23.051   2.295  18.275  1.00  0.00     0.156 C 
HETATM    8  N3  UNL     1      24.030   3.306  18.431  1.00  0.00    -0.346 N 
ENDROOT
BRANCH   8   9
HETATM    9  C16 UNL     1      23.585   4.571  18.968  1.00  0.00     0.175 C 
HETATM   10  S1  UNL     1      22.425   4.536  20.100  1.00  0.00    -0.041 SA
BRANCH   9  11
HETATM   11  N4  UNL     1      24.130   5.754  18.466  1.00  0.00    -0.333 N 
ATOM     12  H4  UNL     1      25.085   5.962  18.760  1.00  0.00     0.168 HD
BRANCH  11  13
HETATM   13  C17 UNL     1      23.532   6.705  17.603  1.00  0.00     0.035 A 
HETATM   14  C18 UNL     1      23.909   6.724  16.245  1.00  0.00     0.032 A 
HETATM   15  C19 UNL     1      23.386   7.639  15.373  1.00  0.00     0.045 A 
HETATM   16  C20 UNL     1      22.466   8.581  15.794  1.00  0.00     0.131 A 
HETATM   17  F1  UNL     1      21.957   9.482  14.910  1.00  0.00    -0.205 F 
HETATM   18  C21 UNL     1      22.077   8.590  17.111  1.00  0.00     0.088 A 
HETATM   19  C23 UNL     1      22.623   7.652  17.972  1.00  0.00     0.048 A 
BRANCH  18  20
HETATM   20  C22 UNL     1      21.080   9.601  17.587  1.00  0.00     0.420 C 
HETATM   21  F2  UNL     1      21.479  10.830  17.066  1.00  0.00    -0.166 F 
HETATM   22  F3  UNL     1      19.837   9.302  17.063  1.00  0.00    -0.166 F 
HETATM   23  F4  UNL     1      21.016   9.614  18.954  1.00  0.00    -0.166 F 
ENDBRANCH  18  20
ENDBRANCH  11  13
ENDBRANCH   9  11
ENDBRANCH   8   9
BRANCH   5  24
HETATM   24  C5  UNL     1      25.126  -0.277  16.707  1.00  0.00     0.251 C 
HETATM   25  C6  UNL     1      26.296   0.274  15.956  1.00  0.00     0.045 C 
HETATM   26  C7  UNL     1      27.167  -0.735  15.301  1.00  0.00     0.027 C 
HETATM   27  C8  UNL     1      28.260  -1.104  16.312  1.00  0.00     0.037 C 
HETATM   28  C11 UNL     1      26.465  -2.060  15.175  1.00  0.00     0.156 C 
HETATM   29  C9  UNL     1      27.609  -2.194  17.122  1.00  0.00     0.274 C 
HETATM   30  N2  UNL     1      26.296  -2.438  16.551  1.00  0.00     0.100 N 
HETATM   31  C10 UNL     1      25.349  -1.647  17.264  1.00  0.00     0.309 C 
HETATM   32  C12 UNL     1      27.427  -3.015  14.503  1.00  0.00     0.049 C 
HETATM   33  C13 UNL     1      25.210  -2.027  14.374  1.00  0.00     0.049 C 
ENDBRANCH   5  24
TORSDOF 5
ENDMDL
