MODEL 1
REMARK VINA RESULT: -7.709592237      0.000      0.000
REMARK  5 active torsions:
REMARK  status: ('A' for Active; 'I' for Inactive)
REMARK    1  A    between atoms: C7_8  and  C8_9 
REMARK    2  A    between atoms: C8_9  and  O1_10 
REMARK    3  A    between atoms: C8_9  and  N1_12 
REMARK       I    between atoms: N2_17  and  C13_18 
REMARK       I    between atoms: C13_18  and  N3_20 
REMARK    4  A    between atoms: N3_20  and  C14_22 
REMARK    5  A    between atoms: C19_27  and  C20_28 
ROOT
HETATM    1  N1  UNL     1      24.759   1.984  19.508  1.00  0.00    -0.352 N 
HETATM    2  C9  UNL     1      24.757   1.577  20.938  1.00  0.00     0.136 C 
HETATM    3  C10 UNL     1      23.344   1.271  21.355  1.00  0.00    -0.009 C 
HETATM    4  C11 UNL     1      22.573   2.596  21.209  1.00  0.00     0.032 C 
HETATM    5  C12 UNL     1      21.322   2.584  22.081  1.00  0.00     0.128 C 
HETATM    6  N2  UNL     1      21.785   2.621  23.454  1.00  0.00    -0.334 N 
HETATM    7  C13 UNL     1      20.956   3.182  24.451  1.00  0.00     0.318 C 
HETATM    8  O2  UNL     1      19.825   3.633  24.096  1.00  0.00    -0.247 OA
HETATM    9  N3  UNL     1      21.357   3.250  25.827  1.00  0.00    -0.335 N 
ATOM     10  H3  UNL     1      22.270   2.884  26.094  1.00  0.00     0.165 HD
HETATM   11  C18 UNL     1      23.100   2.061  23.685  1.00  0.00     0.142 C 
HETATM   12  C19 UNL     1      23.212   0.841  22.757  1.00  0.00     0.121 C 
HETATM   13  C21 UNL     1      22.646   0.306  20.426  1.00  0.00     0.014 C 
HETATM   14  C22 UNL     1      22.771   0.671  18.982  1.00  0.00     0.031 C 
HETATM   15  C23 UNL     1      24.227   1.020  18.624  1.00  0.00     0.027 C 
HETATM   16  C24 UNL     1      24.253   1.230  17.161  1.00  0.00     0.038 C 
HETATM   17  C25 UNL     1      25.045  -0.273  18.866  1.00  0.00     0.038 C 
ENDROOT
BRANCH  12  18
HETATM   18  C20 UNL     1      24.256  -0.034  23.333  1.00  0.00     0.393 C 
HETATM   19  F2  UNL     1      24.717  -1.023  22.498  1.00  0.00    -0.171 F 
HETATM   20  F3  UNL     1      25.278   0.680  23.945  1.00  0.00    -0.171 F 
HETATM   21  F4  UNL     1      23.644  -0.725  24.397  1.00  0.00    -0.171 F 
ENDBRANCH  12  18
BRANCH   1  22
HETATM   22  C8  UNL     1      25.271   3.229  19.228  1.00  0.00     0.152 C 
BRANCH  22  23
HETATM   23  C7  UNL     1      24.777   4.327  18.402  1.00  0.00     0.059 A 
HETATM   24  C2  UNL     1      23.884   5.238  18.901  1.00  0.00    -0.044 A 
HETATM   25  C1  UNL     1      23.395   5.172  20.317  1.00  0.00     0.049 C 
HETATM   26  C3  UNL     1      23.403   6.242  18.105  1.00  0.00     0.008 A 
HETATM   27  C4  UNL     1      23.776   6.397  16.791  1.00  0.00     0.004 A 
HETATM   28  C5  UNL     1      24.681   5.458  16.320  1.00  0.00     0.043 A 
HETATM   29  C6  UNL     1      25.176   4.447  17.091  1.00  0.00     0.131 A 
HETATM   30  F1  UNL     1      26.063   3.537  16.605  1.00  0.00    -0.205 F 
ENDBRANCH  22  23
BRANCH  22  31
HETATM   31  O1  UNL     1      26.426   3.564  19.773  1.00  0.00    -0.345 OA
ATOM     32  H1  UNL     1      26.868   2.787  20.092  1.00  0.00     0.219 HD
ENDBRANCH  22  31
ENDBRANCH   1  22
BRANCH   9  33
HETATM   33  C14 UNL     1      20.512   3.819  26.840  1.00  0.00     0.023 C 
HETATM   34  C15 UNL     1      21.299   4.811  27.657  1.00  0.00     0.037 C 
HETATM   35  C16 UNL     1      19.308   4.536  26.279  1.00  0.00     0.037 C 
HETATM   36  C17 UNL     1      19.987   2.753  27.794  1.00  0.00     0.037 C 
ENDBRANCH   9  33
TORSDOF 5
ENDMDL
MODEL 2
REMARK VINA RESULT: -7.704009830      3.241      8.628
REMARK  5 active torsions:
REMARK  status: ('A' for Active; 'I' for Inactive)
REMARK    1  A    between atoms: C7_8  and  C8_9 
REMARK    2  A    between atoms: C8_9  and  O1_10 
REMARK    3  A    between atoms: C8_9  and  N1_12 
REMARK       I    between atoms: N2_17  and  C13_18 
REMARK       I    between atoms: C13_18  and  N3_20 
REMARK    4  A    between atoms: N3_20  and  C14_22 
REMARK    5  A    between atoms: C19_27  and  C20_28 
ROOT
HETATM    1  N1  UNL     1      23.438   0.931  23.717  1.00  0.00    -0.352 N 
HETATM    2  C9  UNL     1      23.726   1.622  22.432  1.00  0.00     0.136 C 
HETATM    3  C10 UNL     1      23.178   0.794  21.302  1.00  0.00    -0.009 C 
HETATM    4  C11 UNL     1      23.958  -0.532  21.344  1.00  0.00     0.032 C 
HETATM    5  C12 UNL     1      23.909  -1.223  19.985  1.00  0.00     0.128 C 
HETATM    6  N2  UNL     1      24.699  -0.405  19.086  1.00  0.00    -0.334 N 
HETATM    7  C13 UNL     1      25.324  -1.005  17.970  1.00  0.00     0.318 C 
HETATM    8  O2  UNL     1      25.163  -2.251  17.800  1.00  0.00    -0.247 OA
HETATM    9  N3  UNL     1      26.120  -0.251  17.045  1.00  0.00    -0.335 N 
ATOM     10  H3  UNL     1      26.240   0.750  17.198  1.00  0.00     0.165 HD
HETATM   11  C18 UNL     1      24.776   1.000  19.427  1.00  0.00     0.142 C 
HETATM   12  C19 UNL     1      23.391   1.384  19.969  1.00  0.00     0.121 C 
HETATM   13  C21 UNL     1      21.732   0.407  21.496  1.00  0.00     0.014 C 
HETATM   14  C22 UNL     1      21.444  -0.170  22.844  1.00  0.00     0.031 C 
HETATM   15  C23 UNL     1      22.068   0.690  23.958  1.00  0.00     0.027 C 
HETATM   16  C24 UNL     1      21.610   0.105  25.236  1.00  0.00     0.038 C 
HETATM   17  C25 UNL     1      21.373   2.071  23.867  1.00  0.00     0.038 C 
ENDROOT
BRANCH  12  18
HETATM   18  C20 UNL     1      23.267   2.850  19.813  1.00  0.00     0.393 C 
HETATM   19  F2  UNL     1      22.140   3.405  20.369  1.00  0.00    -0.171 F 
HETATM   20  F3  UNL     1      24.431   3.527  20.154  1.00  0.00    -0.171 F 
HETATM   21  F4  UNL     1      23.133   3.085  18.431  1.00  0.00    -0.171 F 
ENDBRANCH  12  18
BRANCH   1  22
HETATM   22  C8  UNL     1      24.524   0.618  24.500  1.00  0.00     0.152 C 
BRANCH  22  23
HETATM   23  C7  UNL     1      24.633   0.077  25.852  1.00  0.00     0.059 A 
HETATM   24  C2  UNL     1      24.577   0.898  26.947  1.00  0.00    -0.044 A 
HETATM   25  C1  UNL     1      24.374   2.378  26.816  1.00  0.00     0.049 C 
HETATM   26  C3  UNL     1      24.715   0.381  28.206  1.00  0.00     0.008 A 
HETATM   27  C4  UNL     1      24.912  -0.958  28.446  1.00  0.00     0.004 A 
HETATM   28  C5  UNL     1      24.963  -1.759  27.316  1.00  0.00     0.043 A 
HETATM   29  C6  UNL     1      24.828  -1.271  26.049  1.00  0.00     0.131 A 
HETATM   30  F1  UNL     1      24.882  -2.077  24.955  1.00  0.00    -0.205 F 
ENDBRANCH  22  23
BRANCH  22  31
HETATM   31  O1  UNL     1      25.730   0.818  24.001  1.00  0.00    -0.345 OA
ATOM     32  H1  UNL     1      25.817   1.723  23.724  1.00  0.00     0.219 HD
ENDBRANCH  22  31
ENDBRANCH   1  22
BRANCH   9  33
HETATM   33  C14 UNL     1      26.755  -0.862  15.911  1.00  0.00     0.023 C 
HETATM   34  C15 UNL     1      27.456   0.192  15.093  1.00  0.00     0.037 C 
HETATM   35  C16 UNL     1      27.776  -1.906  16.289  1.00  0.00     0.037 C 
HETATM   36  C17 UNL     1      25.738  -1.545  15.003  1.00  0.00     0.037 C 
ENDBRANCH   9  33
TORSDOF 5
ENDMDL
MODEL 3
REMARK VINA RESULT: -7.671016528      3.226      8.651
REMARK  5 active torsions:
REMARK  status: ('A' for Active; 'I' for Inactive)
REMARK    1  A    between atoms: C7_8  and  C8_9 
REMARK    2  A    between atoms: C8_9  and  O1_10 
REMARK    3  A    between atoms: C8_9  and  N1_12 
REMARK       I    between atoms: N2_17  and  C13_18 
REMARK       I    between atoms: C13_18  and  N3_20 
REMARK    4  A    between atoms: N3_20  and  C14_22 
REMARK    5  A    between atoms: C19_27  and  C20_28 
ROOT
HETATM    1  N1  UNL     1      23.416   1.103  23.688  1.00  0.00    -0.352 N 
HETATM    2  C9  UNL     1      23.730   1.771  22.397  1.00  0.00     0.136 C 
HETATM    3  C10 UNL     1      23.168   0.944  21.272  1.00  0.00    -0.009 C 
HETATM    4  C11 UNL     1      23.913  -0.401  21.335  1.00  0.00     0.032 C 
HETATM    5  C12 UNL     1      23.855  -1.107  19.985  1.00  0.00     0.128 C 
HETATM    6  N2  UNL     1      24.671  -0.320  19.082  1.00  0.00    -0.334 N 
HETATM    7  C13 UNL     1      25.288  -0.949  17.977  1.00  0.00     0.318 C 
HETATM    8  O2  UNL     1      25.096  -2.193  17.820  1.00  0.00    -0.247 OA
HETATM    9  N3  UNL     1      26.109  -0.227  17.048  1.00  0.00    -0.335 N 
ATOM     10  H3  UNL     1      26.254   0.773  17.190  1.00  0.00     0.165 HD
HETATM   11  C18 UNL     1      24.783   1.087  19.406  1.00  0.00     0.142 C 
HETATM   12  C19 UNL     1      23.405   1.512  19.935  1.00  0.00     0.121 C 
HETATM   13  C21 UNL     1      21.711   0.596  21.462  1.00  0.00     0.014 C 
HETATM   14  C22 UNL     1      21.399   0.043  22.815  1.00  0.00     0.031 C 
HETATM   15  C23 UNL     1      22.039   0.901  23.922  1.00  0.00     0.027 C 
HETATM   16  C24 UNL     1      21.557   0.343  25.204  1.00  0.00     0.038 C 
HETATM   17  C25 UNL     1      21.380   2.298  23.811  1.00  0.00     0.038 C 
ENDROOT
BRANCH  12  18
HETATM   18  C20 UNL     1      23.319   2.979  19.760  1.00  0.00     0.393 C 
HETATM   19  F2  UNL     1      22.201   3.569  20.299  1.00  0.00    -0.171 F 
HETATM   20  F3  UNL     1      24.497   3.630  20.105  1.00  0.00    -0.171 F 
HETATM   21  F4  UNL     1      23.205   3.201  18.374  1.00  0.00    -0.171 F 
ENDBRANCH  12  18
BRANCH   1  22
HETATM   22  C8  UNL     1      24.489   0.772  24.482  1.00  0.00     0.152 C 
BRANCH  22  23
HETATM   23  C7  UNL     1      24.581   0.353  25.878  1.00  0.00     0.059 A 
HETATM   24  C2  UNL     1      24.593  -0.974  26.217  1.00  0.00    -0.044 A 
HETATM   25  C1  UNL     1      24.541  -2.056  25.180  1.00  0.00     0.049 C 
HETATM   26  C3  UNL     1      24.645  -1.351  27.531  1.00  0.00     0.008 A 
HETATM   27  C4  UNL     1      24.689  -0.447  28.566  1.00  0.00     0.004 A 
HETATM   28  C5  UNL     1      24.676   0.886  28.186  1.00  0.00     0.043 A 
HETATM   29  C6  UNL     1      24.625   1.290  26.884  1.00  0.00     0.131 A 
HETATM   30  F1  UNL     1      24.613   2.605  26.536  1.00  0.00    -0.205 F 
ENDBRANCH  22  23
BRANCH  22  31
HETATM   31  O1  UNL     1      25.696   0.818  23.948  1.00  0.00    -0.345 OA
ATOM     32  H1  UNL     1      25.939   1.721  23.781  1.00  0.00     0.219 HD
ENDBRANCH  22  31
ENDBRANCH   1  22
BRANCH   9  33
HETATM   33  C14 UNL     1      26.735  -0.867  15.925  1.00  0.00     0.023 C 
HETATM   34  C15 UNL     1      27.461   0.159  15.095  1.00  0.00     0.037 C 
HETATM   35  C16 UNL     1      27.732  -1.928  16.323  1.00  0.00     0.037 C 
HETATM   36  C17 UNL     1      25.708  -1.543  15.023  1.00  0.00     0.037 C 
ENDBRANCH   9  33
TORSDOF 5
ENDMDL
MODEL 4
REMARK VINA RESULT: -7.614523066      1.014      1.517
REMARK  5 active torsions:
REMARK  status: ('A' for Active; 'I' for Inactive)
REMARK    1  A    between atoms: C7_8  and  C8_9 
REMARK    2  A    between atoms: C8_9  and  O1_10 
REMARK    3  A    between atoms: C8_9  and  N1_12 
REMARK       I    between atoms: N2_17  and  C13_18 
REMARK       I    between atoms: C13_18  and  N3_20 
REMARK    4  A    between atoms: N3_20  and  C14_22 
REMARK    5  A    between atoms: C19_27  and  C20_28 
ROOT
HETATM    1  N1  UNL     1      24.593   1.980  19.865  1.00  0.00    -0.352 N 
HETATM    2  C9  UNL     1      24.574   1.686  21.323  1.00  0.00     0.136 C 
HETATM    3  C10 UNL     1      23.151   1.452  21.753  1.00  0.00    -0.009 C 
HETATM    4  C11 UNL     1      22.418   2.782  21.500  1.00  0.00     0.032 C 
HETATM    5  C12 UNL     1      21.164   2.873  22.362  1.00  0.00     0.128 C 
HETATM    6  N2  UNL     1      21.622   3.004  23.731  1.00  0.00    -0.334 N 
HETATM    7  C13 UNL     1      20.804   3.663  24.676  1.00  0.00     0.318 C 
HETATM    8  O2  UNL     1      19.688   4.116  24.280  1.00  0.00    -0.247 OA
HETATM    9  N3  UNL     1      21.201   3.828  26.045  1.00  0.00    -0.335 N 
ATOM     10  H3  UNL     1      22.103   3.458  26.346  1.00  0.00     0.165 HD
HETATM   11  C18 UNL     1      22.920   2.427  24.013  1.00  0.00     0.142 C 
HETATM   12  C19 UNL     1      23.001   1.137  23.183  1.00  0.00     0.121 C 
HETATM   13  C21 UNL     1      22.431   0.437  20.897  1.00  0.00     0.014 C 
HETATM   14  C22 UNL     1      22.571   0.685  19.430  1.00  0.00     0.031 C 
HETATM   15  C23 UNL     1      24.039   0.965  19.056  1.00  0.00     0.027 C 
HETATM   16  C24 UNL     1      24.076   1.060  17.581  1.00  0.00     0.038 C 
HETATM   17  C25 UNL     1      24.819  -0.327  19.402  1.00  0.00     0.038 C 
ENDROOT
BRANCH  12  18
HETATM   18  C20 UNL     1      24.018   0.280  23.832  1.00  0.00     0.393 C 
HETATM   19  F2  UNL     1      24.430  -0.802  23.093  1.00  0.00    -0.171 F 
HETATM   20  F3  UNL     1      25.075   1.009  24.363  1.00  0.00    -0.171 F 
HETATM   21  F4  UNL     1      23.393  -0.280  24.963  1.00  0.00    -0.171 F 
ENDBRANCH  12  18
BRANCH   1  22
HETATM   22  C8  UNL     1      25.141   3.184  19.492  1.00  0.00     0.152 C 
BRANCH  22  23
HETATM   23  C7  UNL     1      24.673   4.236  18.593  1.00  0.00     0.059 A 
HETATM   24  C2  UNL     1      25.148   4.331  17.311  1.00  0.00    -0.044 A 
HETATM   25  C1  UNL     1      26.141   3.351  16.761  1.00  0.00     0.049 C 
HETATM   26  C3  UNL     1      24.727   5.342  16.491  1.00  0.00     0.008 A 
HETATM   27  C4  UNL     1      23.825   6.300  16.890  1.00  0.00     0.004 A 
HETATM   28  C5  UNL     1      23.365   6.173  18.192  1.00  0.00     0.043 A 
HETATM   29  C6  UNL     1      23.768   5.175  19.031  1.00  0.00     0.131 A 
HETATM   30  F1  UNL     1      23.303   5.071  20.305  1.00  0.00    -0.205 F 
ENDBRANCH  22  23
BRANCH  22  31
HETATM   31  O1  UNL     1      26.311   3.521  20.003  1.00  0.00    -0.345 OA
ATOM     32  H1  UNL     1      27.009   3.120  19.499  1.00  0.00     0.219 HD
ENDBRANCH  22  31
ENDBRANCH   1  22
BRANCH   9  33
HETATM   33  C14 UNL     1      20.369   4.497  27.005  1.00  0.00     0.023 C 
HETATM   34  C15 UNL     1      21.230   5.147  28.057  1.00  0.00     0.037 C 
HETATM   35  C16 UNL     1      19.498   5.569  26.395  1.00  0.00     0.037 C 
HETATM   36  C17 UNL     1      19.437   3.521  27.714  1.00  0.00     0.037 C 
ENDBRANCH   9  33
TORSDOF 5
ENDMDL
MODEL 5
REMARK VINA RESULT: -7.584302674      3.274      5.122
REMARK  5 active torsions:
REMARK  status: ('A' for Active; 'I' for Inactive)
REMARK    1  A    between atoms: C7_8  and  C8_9 
REMARK    2  A    between atoms: C8_9  and  O1_10 
REMARK    3  A    between atoms: C8_9  and  N1_12 
REMARK       I    between atoms: N2_17  and  C13_18 
REMARK       I    between atoms: C13_18  and  N3_20 
REMARK    4  A    between atoms: N3_20  and  C14_22 
REMARK    5  A    between atoms: C19_27  and  C20_28 
ROOT
HETATM    1  N1  UNL     1      24.081   0.736  18.483  1.00  0.00    -0.352 N 
HETATM    2  C9  UNL     1      22.972   0.997  19.439  1.00  0.00     0.136 C 
HETATM    3  C10 UNL     1      23.545   1.589  20.698  1.00  0.00    -0.009 C 
HETATM    4  C11 UNL     1      24.467   0.505  21.284  1.00  0.00     0.032 C 
HETATM    5  C12 UNL     1      24.676   0.731  22.777  1.00  0.00     0.128 C 
HETATM    6  N2  UNL     1      23.402   0.458  23.411  1.00  0.00    -0.334 N 
HETATM    7  C13 UNL     1      23.375   0.020  24.754  1.00  0.00     0.318 C 
HETATM    8  O2  UNL     1      24.482  -0.116  25.355  1.00  0.00    -0.247 OA
HETATM    9  N3  UNL     1      22.146  -0.270  25.437  1.00  0.00    -0.335 N 
ATOM     10  H3  UNL     1      21.265  -0.156  24.937  1.00  0.00     0.165 HD
HETATM   11  C18 UNL     1      22.234   0.667  22.580  1.00  0.00     0.142 C 
HETATM   12  C19 UNL     1      22.537   1.906  21.724  1.00  0.00     0.121 C 
HETATM   13  C21 UNL     1      24.445   2.774  20.441  1.00  0.00     0.014 C 
HETATM   14  C22 UNL     1      25.473   2.526  19.384  1.00  0.00     0.031 C 
HETATM   15  C23 UNL     1      24.839   1.877  18.140  1.00  0.00     0.027 C 
HETATM   16  C24 UNL     1      25.910   1.803  17.124  1.00  0.00     0.038 C 
HETATM   17  C25 UNL     1      23.825   2.911  17.592  1.00  0.00     0.038 C 
ENDROOT
BRANCH  12  18
HETATM   18  C20 UNL     1      21.231   2.452  21.292  1.00  0.00     0.393 C 
HETATM   19  F2  UNL     1      21.276   3.285  20.201  1.00  0.00    -0.171 F 
HETATM   20  F3  UNL     1      20.248   1.475  21.190  1.00  0.00    -0.171 F 
HETATM   21  F4  UNL     1      20.783   3.271  22.347  1.00  0.00    -0.171 F 
ENDBRANCH  12  18
BRANCH   1  22
HETATM   22  C8  UNL     1      24.227  -0.563  18.057  1.00  0.00     0.152 C 
BRANCH  22  23
HETATM   23  C7  UNL     1      25.252  -1.218  17.249  1.00  0.00     0.059 A 
HETATM   24  C2  UNL     1      26.284  -1.900  17.837  1.00  0.00    -0.044 A 
HETATM   25  C1  UNL     1      26.397  -2.033  19.326  1.00  0.00     0.049 C 
HETATM   26  C3  UNL     1      27.256  -2.480  17.068  1.00  0.00     0.008 A 
HETATM   27  C4  UNL     1      27.258  -2.417  15.694  1.00  0.00     0.004 A 
HETATM   28  C5  UNL     1      26.199  -1.720  15.134  1.00  0.00     0.043 A 
HETATM   29  C6  UNL     1      25.217  -1.132  15.877  1.00  0.00     0.131 A 
HETATM   30  F1  UNL     1      24.188  -0.453  15.303  1.00  0.00    -0.205 F 
ENDBRANCH  22  23
BRANCH  22  31
HETATM   31  O1  UNL     1      23.305  -1.441  18.406  1.00  0.00    -0.345 OA
ATOM     32  H1  UNL     1      22.589  -0.996  18.845  1.00  0.00     0.219 HD
ENDBRANCH  22  31
ENDBRANCH   1  22
BRANCH   9  33
HETATM   33  C14 UNL     1      22.120  -0.714  26.802  1.00  0.00     0.023 C 
HETATM   34  C15 UNL     1      20.718  -1.124  27.175  1.00  0.00     0.037 C 
HETATM   35  C16 UNL     1      23.029  -1.890  27.064  1.00  0.00     0.037 C 
HETATM   36  C17 UNL     1      22.544   0.394  27.760  1.00  0.00     0.037 C 
ENDBRANCH   9  33
TORSDOF 5
ENDMDL
