MODEL 1
REMARK VINA RESULT: -7.064951529      0.000      0.000
REMARK  10 active torsions:
REMARK  status: ('A' for Active; 'I' for Inactive)
REMARK    1  A    between atoms: C2_2  and  C3_3 
REMARK    2  A    between atoms: C3_3  and  C4_4 
REMARK    3  A    between atoms: C4_4  and  C5_5 
REMARK    4  A    between atoms: C5_5  and  C6_6 
REMARK    5  A    between atoms: C7_7  and  O1_8 
REMARK    6  A    between atoms: C9_13  and  O2_14 
REMARK    7  A    between atoms: N2_16  and  C10_17 
REMARK    8  A    between atoms: C10_17  and  C11_18 
REMARK    9  A    between atoms: C13_20  and  N3_21 
REMARK   10  A    between atoms: C14_24  and  C15_25 
REMARK       I    between atoms: C15_25  and  N4_27 
ROOT
HETATM    1  C6  UNL     1      11.418  23.126  14.130  1.00  0.00     0.044 A 
HETATM    2  C7  UNL     1      10.250  23.753  14.574  1.00  0.00     0.150 A 
HETATM    3  N1  UNL     1      10.377  24.619  15.588  1.00  0.00    -0.332 N 
ATOM      4  H1  UNL     1       9.544  25.094  15.937  1.00  0.00     0.168 HD
HETATM    5  C8  UNL     1      11.558  24.884  16.160  1.00  0.00     0.101 A 
HETATM    6  C9  UNL     1      11.613  25.784  17.202  1.00  0.00     0.172 A 
HETATM    7  N2  UNL     1      12.777  26.077  17.809  1.00  0.00    -0.311 N 
HETATM    8  C13 UNL     1      13.896  25.485  17.391  1.00  0.00     0.120 A 
HETATM    9  C14 UNL     1      13.911  24.567  16.343  1.00  0.00     0.092 A 
HETATM   10  C20 UNL     1      12.727  24.269  15.729  1.00  0.00     0.065 A 
HETATM   11  C21 UNL     1      12.647  23.368  14.686  1.00  0.00     0.196 A 
HETATM   12  O4  UNL     1      13.701  22.830  14.313  1.00  0.00    -0.287 OA
ENDROOT
BRANCH   9  13
HETATM   13  C15 UNL     1      15.170  23.955  15.936  1.00  0.00     0.258 C 
HETATM   14  O3  UNL     1      15.813  24.507  15.011  1.00  0.00    -0.267 OA
HETATM   15  N4  UNL     1      15.710  22.779  16.517  1.00  0.00    -0.348 N 
HETATM   16  C16 UNL     1      16.953  22.137  16.150  1.00  0.00     0.126 C 
HETATM   17  C19 UNL     1      15.090  21.995  17.597  1.00  0.00     0.126 C 
HETATM   18  C17 UNL     1      16.964  20.813  16.858  1.00  0.00     0.021 C 
HETATM   19  C18 UNL     1      16.229  21.171  18.156  1.00  0.00     0.021 C 
ENDBRANCH   9  13
BRANCH   8  20
HETATM   20  N3  UNL     1      15.046  25.761  17.974  1.00  0.00    -0.384 N 
ATOM     21  H32 UNL     1      15.024  26.370  18.793  1.00  0.00     0.157 HD
ATOM     22  H31 UNL     1      15.913  25.370  17.606  1.00  0.00     0.157 HD
ENDBRANCH   8  20
BRANCH   7  23
HETATM   23  C10 UNL     1      12.838  27.012  18.892  1.00  0.00     0.132 C 
BRANCH  23  24
HETATM   24  C11 UNL     1      13.177  28.415  18.441  1.00  0.00     0.016 C 
HETATM   25  C12 UNL     1      11.971  29.313  18.608  1.00  0.00     0.006 C 
ENDBRANCH  23  24
ENDBRANCH   7  23
BRANCH   6  26
HETATM   26  O2  UNL     1      10.409  26.371  17.595  1.00  0.00    -0.344 OA
ATOM     27  H2  UNL     1       9.667  25.791  17.717  1.00  0.00     0.219 HD
ENDBRANCH   6  26
BRANCH   1  28
HETATM   28  C5  UNL     1      11.255  22.197  12.999  1.00  0.00     0.047 C 
BRANCH  28  29
HETATM   29  C4  UNL     1      10.977  20.783  13.407  1.00  0.00     0.009 C 
BRANCH  29  30
HETATM   30  C3  UNL     1       9.922  20.052  12.658  1.00  0.00     0.026 C 
BRANCH  30  31
HETATM   31  C2  UNL     1       9.080  20.961  11.862  1.00  0.00    -0.037 C 
HETATM   32  C1  UNL     1       8.044  20.489  11.191  1.00  0.00     0.007 C 
ENDBRANCH  30  31
ENDBRANCH  29  30
ENDBRANCH  28  29
ENDBRANCH   1  28
BRANCH   2  33
HETATM   33  O1  UNL     1       9.028  23.478  13.979  1.00  0.00    -0.346 OA
ATOM     34  H1  UNL     1       8.223  23.837  14.334  1.00  0.00     0.219 HD
ENDBRANCH   2  33
TORSDOF 10
ENDMDL
MODEL 2
REMARK VINA RESULT: -6.939470948      2.399      3.021
REMARK  10 active torsions:
REMARK  status: ('A' for Active; 'I' for Inactive)
REMARK    1  A    between atoms: C2_2  and  C3_3 
REMARK    2  A    between atoms: C3_3  and  C4_4 
REMARK    3  A    between atoms: C4_4  and  C5_5 
REMARK    4  A    between atoms: C5_5  and  C6_6 
REMARK    5  A    between atoms: C7_7  and  O1_8 
REMARK    6  A    between atoms: C9_13  and  O2_14 
REMARK    7  A    between atoms: N2_16  and  C10_17 
REMARK    8  A    between atoms: C10_17  and  C11_18 
REMARK    9  A    between atoms: C13_20  and  N3_21 
REMARK   10  A    between atoms: C14_24  and  C15_25 
REMARK       I    between atoms: C15_25  and  N4_27 
ROOT
HETATM    1  C6  UNL     1      11.598  23.864  14.562  1.00  0.00     0.044 A 
HETATM    2  C7  UNL     1      10.276  24.305  14.662  1.00  0.00     0.150 A 
HETATM    3  N1  UNL     1       9.828  24.597  15.890  1.00  0.00    -0.332 N 
ATOM      4  H1  UNL     1       8.866  24.921  15.999  1.00  0.00     0.168 HD
HETATM    5  C8  UNL     1      10.596  24.478  16.980  1.00  0.00     0.101 A 
HETATM    6  C9  UNL     1      10.067  24.793  18.213  1.00  0.00     0.172 A 
HETATM    7  N2  UNL     1      10.801  24.685  19.334  1.00  0.00    -0.311 N 
HETATM    8  C13 UNL     1      12.064  24.266  19.248  1.00  0.00     0.120 A 
HETATM    9  C14 UNL     1      12.661  23.933  18.034  1.00  0.00     0.092 A 
HETATM   10  C20 UNL     1      11.913  24.042  16.895  1.00  0.00     0.065 A 
HETATM   11  C21 UNL     1      12.420  23.729  15.650  1.00  0.00     0.196 A 
HETATM   12  O4  UNL     1      13.598  23.344  15.593  1.00  0.00    -0.287 OA
ENDROOT
BRANCH   9  13
HETATM   13  C15 UNL     1      14.047  23.481  18.010  1.00  0.00     0.258 C 
HETATM   14  O3  UNL     1      14.262  22.255  18.163  1.00  0.00    -0.267 OA
HETATM   15  N4  UNL     1      15.161  24.339  17.828  1.00  0.00    -0.348 N 
HETATM   16  C16 UNL     1      16.551  23.940  17.795  1.00  0.00     0.126 C 
HETATM   17  C19 UNL     1      15.099  25.798  17.649  1.00  0.00     0.126 C 
HETATM   18  C17 UNL     1      17.352  25.210  17.834  1.00  0.00     0.021 C 
HETATM   19  C18 UNL     1      16.438  26.154  17.042  1.00  0.00     0.021 C 
ENDBRANCH   9  13
BRANCH   8  20
HETATM   20  N3  UNL     1      12.798  24.154  20.338  1.00  0.00    -0.384 N 
ATOM     21  H32 UNL     1      13.534  24.845  20.482  1.00  0.00     0.157 HD
ATOM     22  H31 UNL     1      12.619  23.398  20.999  1.00  0.00     0.157 HD
ENDBRANCH   8  20
BRANCH   7  23
HETATM   23  C10 UNL     1      10.254  25.010  20.617  1.00  0.00     0.132 C 
BRANCH  23  24
HETATM   24  C11 UNL     1       9.430  23.888  21.209  1.00  0.00     0.016 C 
HETATM   25  C12 UNL     1       8.094  24.424  21.674  1.00  0.00     0.006 C 
ENDBRANCH  23  24
ENDBRANCH   7  23
BRANCH   6  26
HETATM   26  O2  UNL     1       8.740  25.224  18.239  1.00  0.00    -0.344 OA
ATOM     27  H2  UNL     1       8.119  24.679  18.708  1.00  0.00     0.219 HD
ENDBRANCH   6  26
BRANCH   1  28
HETATM   28  C5  UNL     1      12.075  23.574  13.198  1.00  0.00     0.047 C 
BRANCH  28  29
HETATM   29  C4  UNL     1      11.960  22.133  12.808  1.00  0.00     0.009 C 
BRANCH  29  30
HETATM   30  C3  UNL     1      10.877  21.338  13.445  1.00  0.00     0.026 C 
BRANCH  30  31
HETATM   31  C2  UNL     1       9.971  20.742  12.449  1.00  0.00    -0.037 C 
HETATM   32  C1  UNL     1       9.095  21.499  11.812  1.00  0.00     0.007 C 
ENDBRANCH  30  31
ENDBRANCH  29  30
ENDBRANCH  28  29
ENDBRANCH   1  28
BRANCH   2  33
HETATM   33  O1  UNL     1       9.482  24.429  13.531  1.00  0.00    -0.346 OA
ATOM     34  H1  UNL     1       8.597  24.768  13.594  1.00  0.00     0.219 HD
ENDBRANCH   2  33
TORSDOF 10
ENDMDL
MODEL 3
REMARK VINA RESULT: -6.921392507      2.863      6.397
REMARK  10 active torsions:
REMARK  status: ('A' for Active; 'I' for Inactive)
REMARK    1  A    between atoms: C2_2  and  C3_3 
REMARK    2  A    between atoms: C3_3  and  C4_4 
REMARK    3  A    between atoms: C4_4  and  C5_5 
REMARK    4  A    between atoms: C5_5  and  C6_6 
REMARK    5  A    between atoms: C7_7  and  O1_8 
REMARK    6  A    between atoms: C9_13  and  O2_14 
REMARK    7  A    between atoms: N2_16  and  C10_17 
REMARK    8  A    between atoms: C10_17  and  C11_18 
REMARK    9  A    between atoms: C13_20  and  N3_21 
REMARK   10  A    between atoms: C14_24  and  C15_25 
REMARK       I    between atoms: C15_25  and  N4_27 
ROOT
HETATM    1  C6  UNL     1      11.067  24.110  18.244  1.00  0.00     0.044 A 
HETATM    2  C7  UNL     1      12.259  24.060  18.973  1.00  0.00     0.150 A 
HETATM    3  N1  UNL     1      13.399  24.092  18.270  1.00  0.00    -0.332 N 
ATOM      4  H1  UNL     1      14.287  24.057  18.771  1.00  0.00     0.168 HD
HETATM    5  C8  UNL     1      13.414  24.169  16.934  1.00  0.00     0.101 A 
HETATM    6  C9  UNL     1      14.625  24.194  16.277  1.00  0.00     0.172 A 
HETATM    7  N2  UNL     1      14.689  24.266  14.935  1.00  0.00    -0.311 N 
HETATM    8  C13 UNL     1      13.557  24.316  14.232  1.00  0.00     0.120 A 
HETATM    9  C14 UNL     1      12.301  24.295  14.833  1.00  0.00     0.092 A 
HETATM   10  C20 UNL     1      12.238  24.220  16.196  1.00  0.00     0.065 A 
HETATM   11  C21 UNL     1      11.037  24.190  16.876  1.00  0.00     0.196 A 
HETATM   12  O4  UNL     1       9.997  24.239  16.202  1.00  0.00    -0.287 OA
ENDROOT
BRANCH   9  13
HETATM   13  C15 UNL     1      11.102  24.352  14.005  1.00  0.00     0.258 C 
HETATM   14  O3  UNL     1      10.617  25.482  13.759  1.00  0.00    -0.267 OA
HETATM   15  N4  UNL     1      10.452  23.214  13.464  1.00  0.00    -0.348 N 
HETATM   16  C16 UNL     1       9.265  23.219  12.637  1.00  0.00     0.126 C 
HETATM   17  C19 UNL     1      10.870  21.816  13.658  1.00  0.00     0.126 C 
HETATM   18  C17 UNL     1       8.825  21.787  12.529  1.00  0.00     0.021 C 
HETATM   19  C18 UNL     1      10.178  21.065  12.541  1.00  0.00     0.021 C 
ENDBRANCH   9  13
BRANCH   8  20
HETATM   20  N3  UNL     1      13.601  24.387  12.916  1.00  0.00    -0.384 N 
ATOM     21  H32 UNL     1      14.508  24.564  12.484  1.00  0.00     0.157 HD
ATOM     22  H31 UNL     1      12.748  24.267  12.369  1.00  0.00     0.157 HD
ENDBRANCH   8  20
BRANCH   7  23
HETATM   23  C10 UNL     1      15.945  24.292  14.249  1.00  0.00     0.132 C 
BRANCH  23  24
HETATM   24  C11 UNL     1      16.585  25.663  14.242  1.00  0.00     0.016 C 
HETATM   25  C12 UNL     1      17.762  25.674  13.291  1.00  0.00     0.006 C 
ENDBRANCH  23  24
ENDBRANCH   7  23
BRANCH   6  26
HETATM   26  O2  UNL     1      15.775  24.139  17.066  1.00  0.00    -0.344 OA
ATOM     27  H2  UNL     1      16.555  24.558  16.722  1.00  0.00     0.219 HD
ENDBRANCH   6  26
BRANCH   1  28
HETATM   28  C5  UNL     1       9.829  24.099  19.041  1.00  0.00     0.047 C 
BRANCH  28  29
HETATM   29  C4  UNL     1       9.252  25.459  19.289  1.00  0.00     0.009 C 
BRANCH  29  30
HETATM   30  C3  UNL     1       8.329  25.607  20.445  1.00  0.00     0.026 C 
BRANCH  30  31
HETATM   31  C2  UNL     1       8.449  24.488  21.394  1.00  0.00    -0.037 C 
HETATM   32  C1  UNL     1       7.579  24.357  22.380  1.00  0.00     0.007 C 
ENDBRANCH  30  31
ENDBRANCH  29  30
ENDBRANCH  28  29
ENDBRANCH   1  28
BRANCH   2  33
HETATM   33  O1  UNL     1      12.240  23.983  20.358  1.00  0.00    -0.346 OA
ATOM     34  H1  UNL     1      12.572  23.213  20.805  1.00  0.00     0.219 HD
ENDBRANCH   2  33
TORSDOF 10
ENDMDL
MODEL 4
REMARK VINA RESULT: -6.803198374      1.414      2.017
REMARK  10 active torsions:
REMARK  status: ('A' for Active; 'I' for Inactive)
REMARK    1  A    between atoms: C2_2  and  C3_3 
REMARK    2  A    between atoms: C3_3  and  C4_4 
REMARK    3  A    between atoms: C4_4  and  C5_5 
REMARK    4  A    between atoms: C5_5  and  C6_6 
REMARK    5  A    between atoms: C7_7  and  O1_8 
REMARK    6  A    between atoms: C9_13  and  O2_14 
REMARK    7  A    between atoms: N2_16  and  C10_17 
REMARK    8  A    between atoms: C10_17  and  C11_18 
REMARK    9  A    between atoms: C13_20  and  N3_21 
REMARK   10  A    between atoms: C14_24  and  C15_25 
REMARK       I    between atoms: C15_25  and  N4_27 
ROOT
HETATM    1  C6  UNL     1      11.701  23.722  14.074  1.00  0.00     0.044 A 
HETATM    2  C7  UNL     1      10.597  24.491  14.453  1.00  0.00     0.150 A 
HETATM    3  N1  UNL     1      10.766  25.320  15.493  1.00  0.00    -0.332 N 
ATOM      4  H1  UNL     1       9.980  25.895  15.797  1.00  0.00     0.168 HD
HETATM    5  C8  UNL     1      11.930  25.420  16.146  1.00  0.00     0.101 A 
HETATM    6  C9  UNL     1      12.031  26.292  17.209  1.00  0.00     0.172 A 
HETATM    7  N2  UNL     1      13.179  26.422  17.897  1.00  0.00    -0.311 N 
HETATM    8  C13 UNL     1      14.237  25.694  17.541  1.00  0.00     0.120 A 
HETATM    9  C14 UNL     1      14.204  24.795  16.477  1.00  0.00     0.092 A 
HETATM   10  C20 UNL     1      13.036  24.663  15.779  1.00  0.00     0.065 A 
HETATM   11  C21 UNL     1      12.911  23.794  14.714  1.00  0.00     0.196 A 
HETATM   12  O4  UNL     1      13.909  23.128  14.399  1.00  0.00    -0.287 OA
ENDROOT
BRANCH   9  13
HETATM   13  C15 UNL     1      15.398  24.029  16.140  1.00  0.00     0.258 C 
HETATM   14  O3  UNL     1      15.566  22.929  16.718  1.00  0.00    -0.267 OA
HETATM   15  N4  UNL     1      16.378  24.451  15.206  1.00  0.00    -0.348 N 
HETATM   16  C16 UNL     1      17.576  23.727  14.837  1.00  0.00     0.126 C 
HETATM   17  C19 UNL     1      16.353  25.712  14.448  1.00  0.00     0.126 C 
HETATM   18  C17 UNL     1      18.404  24.678  14.022  1.00  0.00     0.021 C 
HETATM   19  C18 UNL     1      17.308  25.473  13.299  1.00  0.00     0.021 C 
ENDBRANCH   9  13
BRANCH   8  20
HETATM   20  N3  UNL     1      15.371  25.809  18.204  1.00  0.00    -0.384 N 
ATOM     21  H32 UNL     1      16.172  26.195  17.704  1.00  0.00     0.157 HD
ATOM     22  H31 UNL     1      15.423  25.518  19.180  1.00  0.00     0.157 HD
ENDBRANCH   8  20
BRANCH   7  23
HETATM   23  C10 UNL     1      13.287  27.327  19.002  1.00  0.00     0.132 C 
BRANCH  23  24
HETATM   24  C11 UNL     1      13.676  28.727  18.581  1.00  0.00     0.016 C 
HETATM   25  C12 UNL     1      12.573  29.696  18.944  1.00  0.00     0.006 C 
ENDBRANCH  23  24
ENDBRANCH   7  23
BRANCH   6  26
HETATM   26  O2  UNL     1      10.889  27.026  17.534  1.00  0.00    -0.344 OA
ATOM     27  H2  UNL     1      10.914  27.525  18.342  1.00  0.00     0.219 HD
ENDBRANCH   6  26
BRANCH   1  28
HETATM   28  C5  UNL     1      11.496  22.838  12.914  1.00  0.00     0.047 C 
BRANCH  28  29
HETATM   29  C4  UNL     1      11.366  21.388  13.270  1.00  0.00     0.009 C 
BRANCH  29  30
HETATM   30  C3  UNL     1      10.095  20.708  12.903  1.00  0.00     0.026 C 
BRANCH  30  31
HETATM   31  C2  UNL     1       9.336  21.465  11.894  1.00  0.00    -0.037 C 
HETATM   32  C1  UNL     1       8.195  20.989  11.428  1.00  0.00     0.007 C 
ENDBRANCH  30  31
ENDBRANCH  29  30
ENDBRANCH  28  29
ENDBRANCH   1  28
BRANCH   2  33
HETATM   33  O1  UNL     1       9.393  24.386  13.774  1.00  0.00    -0.346 OA
ATOM     34  H1  UNL     1       9.247  23.686  13.148  1.00  0.00     0.219 HD
ENDBRANCH   2  33
TORSDOF 10
ENDMDL
MODEL 5
REMARK VINA RESULT: -6.787889920      2.647      5.366
REMARK  10 active torsions:
REMARK  status: ('A' for Active; 'I' for Inactive)
REMARK    1  A    between atoms: C2_2  and  C3_3 
REMARK    2  A    between atoms: C3_3  and  C4_4 
REMARK    3  A    between atoms: C4_4  and  C5_5 
REMARK    4  A    between atoms: C5_5  and  C6_6 
REMARK    5  A    between atoms: C7_7  and  O1_8 
REMARK    6  A    between atoms: C9_13  and  O2_14 
REMARK    7  A    between atoms: N2_16  and  C10_17 
REMARK    8  A    between atoms: C10_17  and  C11_18 
REMARK    9  A    between atoms: C13_20  and  N3_21 
REMARK   10  A    between atoms: C14_24  and  C15_25 
REMARK       I    between atoms: C15_25  and  N4_27 
ROOT
HETATM    1  C6  UNL     1      14.697  23.957  13.337  1.00  0.00     0.044 A 
HETATM    2  C7  UNL     1      15.619  23.905  14.386  1.00  0.00     0.150 A 
HETATM    3  N1  UNL     1      15.121  23.921  15.630  1.00  0.00    -0.332 N 
ATOM      4  H1  UNL     1      15.766  23.885  16.419  1.00  0.00     0.168 HD
HETATM    5  C8  UNL     1      13.806  23.983  15.874  1.00  0.00     0.101 A 
HETATM    6  C9  UNL     1      13.366  23.999  17.179  1.00  0.00     0.172 A 
HETATM    7  N2  UNL     1      12.054  24.065  17.472  1.00  0.00    -0.311 N 
HETATM    8  C13 UNL     1      11.168  24.114  16.477  1.00  0.00     0.120 A 
HETATM    9  C14 UNL     1      11.545  24.100  15.136  1.00  0.00     0.092 A 
HETATM   10  C20 UNL     1      12.878  24.034  14.841  1.00  0.00     0.065 A 
HETATM   11  C21 UNL     1      13.343  24.020  13.542  1.00  0.00     0.196 A 
HETATM   12  O4  UNL     1      12.500  24.064  12.632  1.00  0.00    -0.287 OA
ENDROOT
BRANCH   9  13
HETATM   13  C15 UNL     1      10.524  24.155  14.097  1.00  0.00     0.258 C 
HETATM   14  O3  UNL     1      10.067  25.282  13.790  1.00  0.00    -0.267 OA
HETATM   15  N4  UNL     1      10.015  23.019  13.418  1.00  0.00    -0.348 N 
HETATM   16  C16 UNL     1       9.006  23.023  12.381  1.00  0.00     0.126 C 
HETATM   17  C19 UNL     1      10.422  21.626  13.656  1.00  0.00     0.126 C 
HETATM   18  C17 UNL     1       8.629  21.587  12.160  1.00  0.00     0.021 C 
HETATM   19  C18 UNL     1       9.973  20.891  12.412  1.00  0.00     0.021 C 
ENDBRANCH   9  13
BRANCH   8  20
HETATM   20  N3  UNL     1       9.878  24.178  16.745  1.00  0.00    -0.384 N 
ATOM     21  H32 UNL     1       9.576  23.884  17.674  1.00  0.00     0.157 HD
ATOM     22  H31 UNL     1       9.225  24.512  16.037  1.00  0.00     0.157 HD
ENDBRANCH   8  20
BRANCH   7  23
HETATM   23  C10 UNL     1      11.593  24.082  18.827  1.00  0.00     0.132 C 
BRANCH  23  24
HETATM   24  C11 UNL     1      11.642  25.460  19.449  1.00  0.00     0.016 C 
HETATM   25  C12 UNL     1      10.259  25.866  19.906  1.00  0.00     0.006 C 
ENDBRANCH  23  24
ENDBRANCH   7  23
BRANCH   6  26
HETATM   26  O2  UNL     1      14.341  23.947  18.177  1.00  0.00    -0.344 OA
ATOM     27  H2  UNL     1      14.734  23.099  18.350  1.00  0.00     0.219 HD
ENDBRANCH   6  26
BRANCH   1  28
HETATM   28  C5  UNL     1      15.268  23.914  11.980  1.00  0.00     0.047 C 
BRANCH  28  29
HETATM   29  C4  UNL     1      14.668  22.860  11.101  1.00  0.00     0.009 C 
BRANCH  29  30
HETATM   30  C3  UNL     1      14.627  23.134   9.640  1.00  0.00     0.026 C 
BRANCH  30  31
HETATM   31  C2  UNL     1      14.973  21.943   8.846  1.00  0.00    -0.037 C 
HETATM   32  C1  UNL     1      15.708  20.982   9.378  1.00  0.00     0.007 C 
ENDBRANCH  30  31
ENDBRANCH  29  30
ENDBRANCH  28  29
ENDBRANCH   1  28
BRANCH   2  33
HETATM   33  O1  UNL     1      16.981  23.839  14.131  1.00  0.00    -0.346 OA
ATOM     34  H1  UNL     1      17.521  23.176  14.545  1.00  0.00     0.219 HD
ENDBRANCH   2  33
TORSDOF 10
ENDMDL
