MODEL 1
REMARK VINA RESULT: -7.650667337      0.000      0.000
REMARK  10 active torsions:
REMARK  status: ('A' for Active; 'I' for Inactive)
REMARK    1  A    between atoms: C2_2  and  O1_4 
REMARK    2  A    between atoms: C2_2  and  C4_6 
REMARK    3  A    between atoms: C4_6  and  C5_8 
REMARK    4  A    between atoms: C5_8  and  C6_9 
REMARK    5  A    between atoms: C6_9  and  C7_10 
REMARK    6  A    between atoms: C11_14  and  O3_15 
REMARK    7  A    between atoms: C11_14  and  C12_17 
REMARK    8  A    between atoms: C12_17  and  N1_18 
REMARK    9  A    between atoms: N1_18  and  C13_21 
REMARK   10  A    between atoms: C21_30  and  O5_32 
ROOT
HETATM    1  C7  UNL     1      13.273  27.000  16.641  1.00  0.00     0.024 C 
HETATM    2  C8  UNL     1      12.378  26.199  15.800  1.00  0.00    -0.001 C 
HETATM    3  C9  UNL     1      11.362  25.352  16.495  1.00  0.00     0.009 C 
HETATM    4  C10 UNL     1      11.326  23.998  15.777  1.00  0.00     0.040 C 
HETATM    5  C11 UNL     1      11.924  24.349  14.461  1.00  0.00     0.086 C 
HETATM    6  C18 UNL     1      13.086  25.231  14.870  1.00  0.00     0.026 C 
HETATM    7  C19 UNL     1      14.169  24.439  15.495  1.00  0.00     0.011 C 
HETATM    8  C20 UNL     1      14.711  24.980  16.774  1.00  0.00     0.038 C 
HETATM    9  C21 UNL     1      14.715  26.473  16.712  1.00  0.00     0.058 C 
HETATM   10  C22 UNL     1      15.552  26.978  15.579  1.00  0.00     0.046 C 
ENDROOT
BRANCH   5  11
HETATM   11  O3  UNL     1      11.026  25.120  13.735  1.00  0.00    -0.388 OA
ATOM     12  H3  UNL     1      11.194  26.041  13.897  1.00  0.00     0.210 HD
ENDBRANCH   5  11
BRANCH   5  13
HETATM   13  C12 UNL     1      12.334  23.188  13.617  1.00  0.00     0.273 C 
BRANCH  13  14
HETATM   14  N1  UNL     1      11.484  22.066  13.959  1.00  0.00    -0.046 N 
ATOM     15  H12 UNL     1      12.023  21.333  14.420  1.00  0.00     0.280 HD
ATOM     16  H11 UNL     1      10.848  22.313  14.717  1.00  0.00     0.280 HD
BRANCH  14  17
HETATM   17  C13 UNL     1      10.762  21.536  12.847  1.00  0.00     0.320 C 
HETATM   18  C14 UNL     1       9.329  22.065  12.831  1.00  0.00     0.061 C 
HETATM   19  C15 UNL     1       8.776  21.660  11.456  1.00  0.00     0.006 C 
HETATM   20  C16 UNL     1       8.730  20.142  11.476  1.00  0.00     0.026 C 
HETATM   21  C17 UNL     1       9.582  19.562  12.566  1.00  0.00     0.170 C 
HETATM   22  O4  UNL     1      10.808  20.168  12.715  1.00  0.00    -0.359 OA
ENDBRANCH  14  17
ENDBRANCH  13  14
ENDBRANCH   5  13
BRANCH   1  23
HETATM   23  C6  UNL     1      12.867  27.280  18.039  1.00  0.00     0.015 C 
BRANCH  23  24
HETATM   24  C5  UNL     1      12.105  28.535  18.288  1.00  0.00     0.082 C 
BRANCH  24  25
HETATM   25  C4  UNL     1      12.886  29.599  18.929  1.00  0.00     0.160 C 
HETATM   26  O2  UNL     1      14.099  29.536  18.958  1.00  0.00    -0.295 OA
BRANCH  25  27
HETATM   27  C2  UNL     1      12.246  30.781  19.562  1.00  0.00     0.111 C 
HETATM   28  C1  UNL     1      11.156  30.340  20.517  1.00  0.00     0.053 C 
HETATM   29  C3  UNL     1      13.250  31.587  20.366  1.00  0.00     0.053 C 
BRANCH  27  30
HETATM   30  O1  UNL     1      11.673  31.549  18.551  1.00  0.00    -0.383 OA
ATOM     31  H1  UNL     1      11.167  30.980  17.984  1.00  0.00     0.211 HD
ENDBRANCH  27  30
ENDBRANCH  25  27
ENDBRANCH  24  25
ENDBRANCH  23  24
ENDBRANCH   1  23
BRANCH   9  32
HETATM   32  O5  UNL     1      15.332  26.914  17.908  1.00  0.00    -0.390 OA
ATOM     33  H5  UNL     1      16.253  26.683  17.901  1.00  0.00     0.210 HD
ENDBRANCH   9  32
TORSDOF 10
ENDMDL
MODEL 2
REMARK VINA RESULT: -7.647378898      0.946      1.122
REMARK  10 active torsions:
REMARK  status: ('A' for Active; 'I' for Inactive)
REMARK    1  A    between atoms: C2_2  and  O1_4 
REMARK    2  A    between atoms: C2_2  and  C4_6 
REMARK    3  A    between atoms: C4_6  and  C5_8 
REMARK    4  A    between atoms: C5_8  and  C6_9 
REMARK    5  A    between atoms: C6_9  and  C7_10 
REMARK    6  A    between atoms: C11_14  and  O3_15 
REMARK    7  A    between atoms: C11_14  and  C12_17 
REMARK    8  A    between atoms: C12_17  and  N1_18 
REMARK    9  A    between atoms: N1_18  and  C13_21 
REMARK   10  A    between atoms: C21_30  and  O5_32 
ROOT
HETATM    1  C7  UNL     1      12.710  26.862  17.044  1.00  0.00     0.024 C 
HETATM    2  C8  UNL     1      11.646  26.003  16.514  1.00  0.00    -0.001 C 
HETATM    3  C9  UNL     1      10.758  25.324  17.505  1.00  0.00     0.009 C 
HETATM    4  C10 UNL     1      10.544  23.886  17.018  1.00  0.00     0.040 C 
HETATM    5  C11 UNL     1      10.888  24.012  15.576  1.00  0.00     0.086 C 
HETATM    6  C18 UNL     1      12.132  24.874  15.624  1.00  0.00     0.026 C 
HETATM    7  C19 UNL     1      13.292  24.117  16.149  1.00  0.00     0.011 C 
HETATM    8  C20 UNL     1      14.085  24.801  17.209  1.00  0.00     0.038 C 
HETATM    9  C21 UNL     1      14.123  26.268  16.924  1.00  0.00     0.058 C 
HETATM   10  C22 UNL     1      14.740  26.557  15.592  1.00  0.00     0.046 C 
ENDROOT
BRANCH   5  11
HETATM   11  O3  UNL     1       9.890  24.723  14.922  1.00  0.00    -0.388 OA
ATOM     12  H3  UNL     1      10.004  24.639  13.983  1.00  0.00     0.210 HD
ENDBRANCH   5  11
BRANCH   5  13
HETATM   13  C12 UNL     1      11.092  22.721  14.854  1.00  0.00     0.273 C 
BRANCH  13  14
HETATM   14  N1  UNL     1      11.280  23.020  13.450  1.00  0.00    -0.046 N 
ATOM     15  H12 UNL     1      10.964  23.966  13.237  1.00  0.00     0.280 HD
ATOM     16  H11 UNL     1      12.272  23.120  13.232  1.00  0.00     0.280 HD
BRANCH  14  17
HETATM   17  C13 UNL     1      10.665  22.073  12.576  1.00  0.00     0.320 C 
HETATM   18  C14 UNL     1       9.144  22.197  12.628  1.00  0.00     0.061 C 
HETATM   19  C15 UNL     1       8.640  21.348  11.451  1.00  0.00     0.006 C 
HETATM   20  C16 UNL     1       9.020  19.919  11.799  1.00  0.00     0.026 C 
HETATM   21  C17 UNL     1      10.067  19.855  12.871  1.00  0.00     0.170 C 
HETATM   22  O4  UNL     1      11.083  20.772  12.732  1.00  0.00    -0.359 OA
ENDBRANCH  14  17
ENDBRANCH  13  14
ENDBRANCH   5  13
BRANCH   1  23
HETATM   23  C6  UNL     1      12.590  27.361  18.434  1.00  0.00     0.015 C 
BRANCH  23  24
HETATM   24  C5  UNL     1      11.892  28.661  18.633  1.00  0.00     0.082 C 
BRANCH  24  25
HETATM   25  C4  UNL     1      12.758  29.742  19.120  1.00  0.00     0.160 C 
HETATM   26  O2  UNL     1      13.966  29.625  19.079  1.00  0.00    -0.295 OA
BRANCH  25  27
HETATM   27  C2  UNL     1      12.210  31.006  19.677  1.00  0.00     0.111 C 
HETATM   28  C1  UNL     1      13.061  31.482  20.837  1.00  0.00     0.053 C 
HETATM   29  C3  UNL     1      12.207  32.111  18.637  1.00  0.00     0.053 C 
BRANCH  27  30
HETATM   30  O1  UNL     1      10.922  30.745  20.142  1.00  0.00    -0.383 OA
ATOM     31  H1  UNL     1      10.296  31.130  19.540  1.00  0.00     0.211 HD
ENDBRANCH  27  30
ENDBRANCH  25  27
ENDBRANCH  24  25
ENDBRANCH  23  24
ENDBRANCH   1  23
BRANCH   9  32
HETATM   32  O5  UNL     1      14.970  26.836  17.904  1.00  0.00    -0.390 OA
ATOM     33  H5  UNL     1      14.888  26.359  18.720  1.00  0.00     0.210 HD
ENDBRANCH   9  32
TORSDOF 10
ENDMDL
MODEL 3
REMARK VINA RESULT: -7.598465552      3.450      3.983
REMARK  10 active torsions:
REMARK  status: ('A' for Active; 'I' for Inactive)
REMARK    1  A    between atoms: C2_2  and  O1_4 
REMARK    2  A    between atoms: C2_2  and  C4_6 
REMARK    3  A    between atoms: C4_6  and  C5_8 
REMARK    4  A    between atoms: C5_8  and  C6_9 
REMARK    5  A    between atoms: C6_9  and  C7_10 
REMARK    6  A    between atoms: C11_14  and  O3_15 
REMARK    7  A    between atoms: C11_14  and  C12_17 
REMARK    8  A    between atoms: C12_17  and  N1_18 
REMARK    9  A    between atoms: N1_18  and  C13_21 
REMARK   10  A    between atoms: C21_30  and  O5_32 
ROOT
HETATM    1  C7  UNL     1      11.347  26.234  18.634  1.00  0.00     0.024 C 
HETATM    2  C8  UNL     1      10.782  25.475  17.514  1.00  0.00    -0.001 C 
HETATM    3  C9  UNL     1      10.194  24.136  17.822  1.00  0.00     0.009 C 
HETATM    4  C10 UNL     1      10.637  23.175  16.714  1.00  0.00     0.040 C 
HETATM    5  C11 UNL     1      10.997  24.126  15.629  1.00  0.00     0.086 C 
HETATM    6  C18 UNL     1      11.758  25.193  16.387  1.00  0.00     0.026 C 
HETATM    7  C19 UNL     1      13.088  24.704  16.816  1.00  0.00     0.011 C 
HETATM    8  C20 UNL     1      13.445  24.964  18.239  1.00  0.00     0.038 C 
HETATM    9  C21 UNL     1      12.884  26.287  18.652  1.00  0.00     0.058 C 
HETATM   10  C22 UNL     1      13.415  27.401  17.807  1.00  0.00     0.046 C 
ENDROOT
BRANCH   5  11
HETATM   11  O3  UNL     1       9.842  24.699  15.112  1.00  0.00    -0.388 OA
ATOM     12  H3  UNL     1       9.940  25.643  15.088  1.00  0.00     0.210 HD
ENDBRANCH   5  11
BRANCH   5  13
HETATM   13  C12 UNL     1      11.774  23.538  14.497  1.00  0.00     0.273 C 
BRANCH  13  14
HETATM   14  N1  UNL     1      11.019  23.749  13.280  1.00  0.00    -0.046 N 
ATOM     15  H12 UNL     1      10.196  24.323  13.461  1.00  0.00     0.280 HD
ATOM     16  H11 UNL     1      11.522  24.368  12.645  1.00  0.00     0.280 HD
BRANCH  14  17
HETATM   17  C13 UNL     1      10.652  22.538  12.618  1.00  0.00     0.320 C 
HETATM   18  C14 UNL     1       9.144  22.310  12.702  1.00  0.00     0.061 C 
HETATM   19  C15 UNL     1       8.866  21.162  11.720  1.00  0.00     0.006 C 
HETATM   20  C16 UNL     1       9.570  19.953  12.309  1.00  0.00     0.026 C 
HETATM   21  C17 UNL     1      10.593  20.336  13.336  1.00  0.00     0.170 C 
HETATM   22  O4  UNL     1      11.364  21.424  12.995  1.00  0.00    -0.359 OA
ENDBRANCH  14  17
ENDBRANCH  13  14
ENDBRANCH   5  13
BRANCH   1  23
HETATM   23  C6  UNL     1      10.932  25.877  20.011  1.00  0.00     0.015 C 
BRANCH  23  24
HETATM   24  C5  UNL     1       9.729  26.564  20.557  1.00  0.00     0.082 C 
BRANCH  24  25
HETATM   25  C4  UNL     1       8.564  25.689  20.738  1.00  0.00     0.160 C 
HETATM   26  O2  UNL     1       7.750  25.560  19.846  1.00  0.00    -0.295 OA
BRANCH  25  27
HETATM   27  C2  UNL     1       8.327  24.934  21.995  1.00  0.00     0.111 C 
HETATM   28  C1  UNL     1       8.989  23.573  21.924  1.00  0.00     0.053 C 
HETATM   29  C3  UNL     1       8.914  25.658  23.193  1.00  0.00     0.053 C 
BRANCH  27  30
HETATM   30  O1  UNL     1       6.952  24.756  22.135  1.00  0.00    -0.383 OA
ATOM     31  H1  UNL     1       6.505  25.449  21.663  1.00  0.00     0.211 HD
ENDBRANCH  27  30
ENDBRANCH  25  27
ENDBRANCH  24  25
ENDBRANCH  23  24
ENDBRANCH   1  23
BRANCH   9  32
HETATM   32  O5  UNL     1      13.343  26.514  19.971  1.00  0.00    -0.390 OA
ATOM     33  H5  UNL     1      12.864  27.235  20.361  1.00  0.00     0.210 HD
ENDBRANCH   9  32
TORSDOF 10
ENDMDL
MODEL 4
REMARK VINA RESULT: -7.574735007      2.946      3.463
REMARK  10 active torsions:
REMARK  status: ('A' for Active; 'I' for Inactive)
REMARK    1  A    between atoms: C2_2  and  O1_4 
REMARK    2  A    between atoms: C2_2  and  C4_6 
REMARK    3  A    between atoms: C4_6  and  C5_8 
REMARK    4  A    between atoms: C5_8  and  C6_9 
REMARK    5  A    between atoms: C6_9  and  C7_10 
REMARK    6  A    between atoms: C11_14  and  O3_15 
REMARK    7  A    between atoms: C11_14  and  C12_17 
REMARK    8  A    between atoms: C12_17  and  N1_18 
REMARK    9  A    between atoms: N1_18  and  C13_21 
REMARK   10  A    between atoms: C21_30  and  O5_32 
ROOT
HETATM    1  C7  UNL     1      11.922  26.190  18.133  1.00  0.00     0.024 C 
HETATM    2  C8  UNL     1      11.166  25.534  17.061  1.00  0.00    -0.001 C 
HETATM    3  C9  UNL     1      10.438  24.276  17.408  1.00  0.00     0.009 C 
HETATM    4  C10 UNL     1      10.654  23.289  16.256  1.00  0.00     0.040 C 
HETATM    5  C11 UNL     1      11.038  24.209  15.151  1.00  0.00     0.086 C 
HETATM    6  C18 UNL     1      11.995  25.153  15.848  1.00  0.00     0.026 C 
HETATM    7  C19 UNL     1      13.282  24.488  16.152  1.00  0.00     0.011 C 
HETATM    8  C20 UNL     1      13.793  24.669  17.539  1.00  0.00     0.038 C 
HETATM    9  C21 UNL     1      13.447  26.044  18.013  1.00  0.00     0.058 C 
HETATM   10  C22 UNL     1      14.043  27.099  17.134  1.00  0.00     0.046 C 
ENDROOT
BRANCH   5  11
HETATM   11  O3  UNL     1       9.926  24.936  14.746  1.00  0.00    -0.388 OA
ATOM     12  H3  UNL     1      10.203  25.661  14.198  1.00  0.00     0.210 HD
ENDBRANCH   5  11
BRANCH   5  13
HETATM   13  C12 UNL     1      11.629  23.549  13.949  1.00  0.00     0.273 C 
BRANCH  13  14
HETATM   14  N1  UNL     1      11.375  22.127  14.050  1.00  0.00    -0.046 N 
ATOM     15  H12 UNL     1      12.238  21.620  14.245  1.00  0.00     0.280 HD
ATOM     16  H11 UNL     1      10.855  21.913  14.901  1.00  0.00     0.280 HD
BRANCH  14  17
HETATM   17  C13 UNL     1      10.717  21.582  12.906  1.00  0.00     0.320 C 
HETATM   18  C14 UNL     1       9.263  22.045  12.845  1.00  0.00     0.061 C 
HETATM   19  C15 UNL     1       8.779  21.635  11.446  1.00  0.00     0.006 C 
HETATM   20  C16 UNL     1       8.802  20.117  11.445  1.00  0.00     0.026 C 
HETATM   21  C17 UNL     1       9.640  19.560  12.557  1.00  0.00     0.170 C 
HETATM   22  O4  UNL     1      10.831  20.219  12.758  1.00  0.00    -0.359 OA
ENDBRANCH  14  17
ENDBRANCH  13  14
ENDBRANCH   5  13
BRANCH   1  23
HETATM   23  C6  UNL     1      11.586  25.862  19.538  1.00  0.00     0.015 C 
BRANCH  23  24
HETATM   24  C5  UNL     1      10.546  26.696  20.202  1.00  0.00     0.082 C 
BRANCH  24  25
HETATM   25  C4  UNL     1       9.983  26.102  21.421  1.00  0.00     0.160 C 
HETATM   26  O2  UNL     1      10.497  26.317  22.501  1.00  0.00    -0.295 OA
BRANCH  25  27
HETATM   27  C2  UNL     1       8.783  25.227  21.395  1.00  0.00     0.111 C 
HETATM   28  C1  UNL     1       8.061  25.363  20.070  1.00  0.00     0.053 C 
HETATM   29  C3  UNL     1       9.162  23.766  21.553  1.00  0.00     0.053 C 
BRANCH  27  30
HETATM   30  O1  UNL     1       7.929  25.642  22.415  1.00  0.00    -0.383 OA
ATOM     31  H1  UNL     1       7.880  26.590  22.406  1.00  0.00     0.211 HD
ENDBRANCH  27  30
ENDBRANCH  25  27
ENDBRANCH  24  25
ENDBRANCH  23  24
ENDBRANCH   1  23
BRANCH   9  32
HETATM   32  O5  UNL     1      14.047  26.183  19.288  1.00  0.00    -0.390 OA
ATOM     33  H5  UNL     1      14.711  25.515  19.407  1.00  0.00     0.210 HD
ENDBRANCH   9  32
TORSDOF 10
ENDMDL
MODEL 5
REMARK VINA RESULT: -7.563552700      3.025      8.728
REMARK  10 active torsions:
REMARK  status: ('A' for Active; 'I' for Inactive)
REMARK    1  A    between atoms: C2_2  and  O1_4 
REMARK    2  A    between atoms: C2_2  and  C4_6 
REMARK    3  A    between atoms: C4_6  and  C5_8 
REMARK    4  A    between atoms: C5_8  and  C6_9 
REMARK    5  A    between atoms: C6_9  and  C7_10 
REMARK    6  A    between atoms: C11_14  and  O3_15 
REMARK    7  A    between atoms: C11_14  and  C12_17 
REMARK    8  A    between atoms: C12_17  and  N1_18 
REMARK    9  A    between atoms: N1_18  and  C13_21 
REMARK   10  A    between atoms: C21_30  and  O5_32 
ROOT
HETATM    1  C7  UNL     1      11.332  25.494  16.850  1.00  0.00     0.024 C 
HETATM    2  C8  UNL     1      11.659  26.845  17.318  1.00  0.00    -0.001 C 
HETATM    3  C9  UNL     1      13.103  27.230  17.338  1.00  0.00     0.009 C 
HETATM    4  C10 UNL     1      13.356  27.990  18.645  1.00  0.00     0.040 C 
HETATM    5  C11 UNL     1      11.977  28.413  19.009  1.00  0.00     0.086 C 
HETATM    6  C18 UNL     1      11.178  27.159  18.723  1.00  0.00     0.026 C 
HETATM    7  C19 UNL     1      11.450  26.106  19.728  1.00  0.00     0.011 C 
HETATM    8  C20 UNL     1      11.738  24.749  19.184  1.00  0.00     0.038 C 
HETATM    9  C21 UNL     1      10.905  24.524  17.963  1.00  0.00     0.058 C 
HETATM   10  C22 UNL     1       9.442  24.626  18.265  1.00  0.00     0.046 C 
ENDROOT
BRANCH   5  11
HETATM   11  O3  UNL     1      11.552  29.408  18.138  1.00  0.00    -0.388 OA
ATOM     12  H3  UNL     1      10.852  29.906  18.543  1.00  0.00     0.210 HD
ENDBRANCH   5  11
BRANCH   5  13
HETATM   13  C12 UNL     1      11.812  28.912  20.406  1.00  0.00     0.273 C 
BRANCH  13  14
HETATM   14  N1  UNL     1      10.833  29.979  20.386  1.00  0.00    -0.046 N 
ATOM     15  H12 UNL     1      11.290  30.886  20.291  1.00  0.00     0.280 HD
ATOM     16  H11 UNL     1      10.302  29.965  19.516  1.00  0.00     0.280 HD
BRANCH  14  17
HETATM   17  C13 UNL     1       9.957  29.972  21.513  1.00  0.00     0.320 C 
HETATM   18  C14 UNL     1       9.523  28.548  21.854  1.00  0.00     0.061 C 
HETATM   19  C15 UNL     1       8.843  28.662  23.226  1.00  0.00     0.006 C 
HETATM   20  C16 UNL     1       7.600  29.500  22.987  1.00  0.00     0.026 C 
HETATM   21  C17 UNL     1       7.664  30.255  21.693  1.00  0.00     0.170 C 
HETATM   22  O4  UNL     1       8.886  30.831  21.428  1.00  0.00    -0.359 OA
ENDBRANCH  14  17
ENDBRANCH  13  14
ENDBRANCH   5  13
BRANCH   1  23
HETATM   23  C6  UNL     1      12.331  24.768  16.031  1.00  0.00     0.015 C 
BRANCH  23  24
HETATM   24  C5  UNL     1      12.184  24.844  14.552  1.00  0.00     0.082 C 
BRANCH  24  25
HETATM   25  C4  UNL     1      10.825  24.575  14.066  1.00  0.00     0.160 C 
HETATM   26  O2  UNL     1      10.081  25.494  13.788  1.00  0.00    -0.295 OA
BRANCH  25  27
HETATM   27  C2  UNL     1      10.303  23.195  13.894  1.00  0.00     0.111 C 
HETATM   28  C1  UNL     1       9.166  23.183  12.892  1.00  0.00     0.053 C 
HETATM   29  C3  UNL     1      11.376  22.260  13.368  1.00  0.00     0.053 C 
BRANCH  27  30
HETATM   30  O1  UNL     1       9.817  22.765  15.128  1.00  0.00    -0.383 OA
ATOM     31  H1  UNL     1      10.434  22.147  15.501  1.00  0.00     0.211 HD
ENDBRANCH  27  30
ENDBRANCH  25  27
ENDBRANCH  24  25
ENDBRANCH  23  24
ENDBRANCH   1  23
BRANCH   9  32
HETATM   32  O5  UNL     1      11.150  23.190  17.561  1.00  0.00    -0.390 OA
ATOM     33  H5  UNL     1      10.329  22.752  17.371  1.00  0.00     0.210 HD
ENDBRANCH   9  32
TORSDOF 10
ENDMDL
