MODEL 1
REMARK VINA RESULT: -9.430265466      0.000      0.000
REMARK  8 active torsions:
REMARK  status: ('A' for Active; 'I' for Inactive)
REMARK    1  A    between atoms: C2_2  and  C3_3 
REMARK    2  A    between atoms: C3_3  and  C4_4 
REMARK    3  A    between atoms: C4_4  and  C5_5 
REMARK    4  A    between atoms: C5_5  and  N1_6 
REMARK    5  A    between atoms: N1_6  and  C6_8 
REMARK    6  A    between atoms: N5_19  and  C10_20 
REMARK    7  A    between atoms: N6_23  and  C13_24 
REMARK    8  A    between atoms: C13_24  and  C14_25 
ROOT
HETATM    1  C6  UNL     1      -2.531  26.456  10.364  1.00  0.00     0.681 A 
HETATM    2  N2  UNL     1      -3.732  26.673  10.862  1.00  0.00    -0.175 N 
ATOM      3  H2  UNL     1      -3.859  27.527  11.405  1.00  0.00     0.186 HD
HETATM    4  C7  UNL     1      -4.801  25.878  10.723  1.00  0.00     0.145 A 
HETATM    5  N3  UNL     1      -5.920  26.114  11.150  1.00  0.00    -0.383 N 
ATOM      6  H31 UNL     1      -6.733  25.508  11.044  1.00  0.00     0.157 HD
ATOM      7  H32 UNL     1      -6.081  26.958  11.699  1.00  0.00     0.157 HD
HETATM    8  C8  UNL     1      -4.582  24.732   9.977  1.00  0.00     0.123 A 
HETATM    9  N4  UNL     1      -5.376  23.679   9.691  1.00  0.00    -0.346 N 
ATOM     10  H4  UNL     1      -6.353  23.576   9.966  1.00  0.00     0.167 HD
HETATM   11  C9  UNL     1      -4.656  22.787   8.977  1.00  0.00     0.185 A 
HETATM   12  N5  UNL     1      -3.404  23.284   8.811  1.00  0.00    -0.322 N 
HETATM   13  C20 UNL     1      -3.340  24.490   9.437  1.00  0.00     0.155 A 
HETATM   14  N9  UNL     1      -2.312  25.311   9.599  1.00  0.00    -0.174 N 
ATOM     15  H9  UNL     1      -1.402  25.115   9.183  1.00  0.00     0.186 HD
ENDROOT
BRANCH  12  16
HETATM   16  C10 UNL     1      -2.504  22.594   7.973  1.00  0.00     0.094 C 
HETATM   17  C11 UNL     1      -1.150  22.256   8.434  1.00  0.00     0.041 C 
HETATM   18  C12 UNL     1      -0.239  22.010   7.247  1.00  0.00     0.097 C 
HETATM   19  N6  UNL     1      -1.013  21.799   6.032  1.00  0.00    -0.290 NA
HETATM   20  C18 UNL     1      -1.760  22.950   5.654  1.00  0.00     0.097 C 
HETATM   21  C19 UNL     1      -2.219  23.680   6.857  1.00  0.00     0.041 C 
BRANCH  19  22
HETATM   22  C13 UNL     1      -0.299  21.145   5.037  1.00  0.00     0.091 C 
BRANCH  22  23
HETATM   23  C14 UNL     1      -0.736  21.221   3.654  1.00  0.00     0.066 A 
HETATM   24  N7  UNL     1      -1.293  22.141   2.894  1.00  0.00    -0.350 N 
HETATM   25  C15 UNL     1      -1.763  21.620   1.725  1.00  0.00     0.181 A 
ATOM     26  H7  UNL     1      -1.364  23.126   3.150  1.00  0.00     0.166 HD
HETATM   27  N8  UNL     1      -1.482  20.283   1.744  1.00  0.00    -0.354 N 
HETATM   28  C16 UNL     1      -0.873  20.026   2.881  1.00  0.00     0.034 A 
ATOM     29  H8  UNL     1      -1.705  19.608   1.012  1.00  0.00     0.166 HD
HETATM   30  C17 UNL     1      -0.174  18.805   3.401  1.00  0.00     0.070 C 
ENDBRANCH  22  23
ENDBRANCH  19  22
ENDBRANCH  12  16
BRANCH   1  31
HETATM   31  N1  UNL     1      -1.388  26.912  10.911  1.00  0.00    -0.226 N 
ATOM     32  H1  UNL     1      -0.535  26.356  10.976  1.00  0.00     0.177 HD
BRANCH  31  33
HETATM   33  C5  UNL     1      -1.500  28.352  11.426  1.00  0.00     0.138 C 
BRANCH  33  34
HETATM   34  C4  UNL     1      -0.286  28.998  10.771  1.00  0.00     0.020 C 
BRANCH  34  35
HETATM   35  C3  UNL     1       0.095  30.337  11.152  1.00  0.00     0.001 C 
BRANCH  35  36
HETATM   36  C2  UNL     1      -0.301  31.478  10.240  1.00  0.00    -0.004 C 
HETATM   37  C1  UNL     1       0.911  32.399  10.045  1.00  0.00     0.005 C 
ENDBRANCH  35  36
ENDBRANCH  34  35
ENDBRANCH  33  34
ENDBRANCH  31  33
ENDBRANCH   1  31
TORSDOF 8
ENDMDL
MODEL 2
REMARK VINA RESULT: -9.380174601      2.758      9.288
REMARK  8 active torsions:
REMARK  status: ('A' for Active; 'I' for Inactive)
REMARK    1  A    between atoms: C2_2  and  C3_3 
REMARK    2  A    between atoms: C3_3  and  C4_4 
REMARK    3  A    between atoms: C4_4  and  C5_5 
REMARK    4  A    between atoms: C5_5  and  N1_6 
REMARK    5  A    between atoms: N1_6  and  C6_8 
REMARK    6  A    between atoms: N5_19  and  C10_20 
REMARK    7  A    between atoms: N6_23  and  C13_24 
REMARK    8  A    between atoms: C13_24  and  C14_25 
ROOT
HETATM    1  C6  UNL     1      -2.141  24.761   9.633  1.00  0.00     0.681 A 
HETATM    2  N2  UNL     1      -3.411  24.435   9.765  1.00  0.00    -0.175 N 
ATOM      3  H2  UNL     1      -3.641  23.442   9.714  1.00  0.00     0.186 HD
HETATM    4  C7  UNL     1      -4.428  25.285   9.958  1.00  0.00     0.145 A 
HETATM    5  N3  UNL     1      -5.595  24.966  10.125  1.00  0.00    -0.383 N 
ATOM      6  H31 UNL     1      -6.370  25.613  10.271  1.00  0.00     0.157 HD
ATOM      7  H32 UNL     1      -5.860  23.982  10.078  1.00  0.00     0.157 HD
HETATM    8  C8  UNL     1      -4.069  26.620  10.022  1.00  0.00     0.123 A 
HETATM    9  N4  UNL     1      -4.805  27.746  10.127  1.00  0.00    -0.346 N 
ATOM     10  H4  UNL     1      -5.819  27.790  10.226  1.00  0.00     0.167 HD
HETATM   11  C9  UNL     1      -3.969  28.806  10.078  1.00  0.00     0.185 A 
HETATM   12  N5  UNL     1      -2.700  28.342   9.946  1.00  0.00    -0.322 N 
HETATM   13  C20 UNL     1      -2.748  26.984   9.900  1.00  0.00     0.155 A 
HETATM   14  N9  UNL     1      -1.774  26.103   9.714  1.00  0.00    -0.174 N 
ATOM     15  H9  UNL     1      -0.800  26.395   9.633  1.00  0.00     0.186 HD
ENDROOT
BRANCH  12  16
HETATM   16  C10 UNL     1      -1.630  29.257  10.017  1.00  0.00     0.094 C 
HETATM   17  C11 UNL     1      -0.433  28.960  10.815  1.00  0.00     0.041 C 
HETATM   18  C12 UNL     1       0.303  30.243  11.154  1.00  0.00     0.097 C 
HETATM   19  N6  UNL     1      -0.141  31.337  10.301  1.00  0.00    -0.290 NA
HETATM   20  C18 UNL     1      -1.511  31.667  10.505  1.00  0.00     0.097 C 
HETATM   21  C19 UNL     1      -2.288  30.448  10.825  1.00  0.00     0.041 C 
BRANCH  19  22
HETATM   22  C13 UNL     1       0.766  32.386  10.242  1.00  0.00     0.091 C 
BRANCH  22  23
HETATM   23  C14 UNL     1       0.762  33.294   9.110  1.00  0.00     0.066 A 
HETATM   24  N7  UNL     1      -0.095  33.605   8.159  1.00  0.00    -0.350 N 
HETATM   25  C15 UNL     1       0.492  34.326   7.160  1.00  0.00     0.181 A 
ATOM     26  H7  UNL     1      -1.079  33.339   8.168  1.00  0.00     0.166 HD
HETATM   27  N8  UNL     1       1.806  34.484   7.503  1.00  0.00    -0.354 N 
HETATM   28  C16 UNL     1       1.986  33.879   8.657  1.00  0.00     0.034 A 
ATOM     29  H8  UNL     1       2.515  34.980   6.964  1.00  0.00     0.166 HD
HETATM   30  C17 UNL     1       3.140  33.850   9.615  1.00  0.00     0.070 C 
ENDBRANCH  22  23
ENDBRANCH  19  22
ENDBRANCH  12  16
BRANCH   1  31
HETATM   31  N1  UNL     1      -1.241  24.042   8.935  1.00  0.00    -0.226 N 
ATOM     32  H1  UNL     1      -0.242  24.038   9.142  1.00  0.00     0.177 HD
BRANCH  31  33
HETATM   33  C5  UNL     1      -1.871  23.231   7.797  1.00  0.00     0.138 C 
BRANCH  33  34
HETATM   34  C4  UNL     1      -1.125  21.909   7.924  1.00  0.00     0.020 C 
BRANCH  34  35
HETATM   35  C3  UNL     1      -0.202  21.514   6.888  1.00  0.00     0.001 C 
BRANCH  35  36
HETATM   36  C2  UNL     1      -0.657  21.619   5.449  1.00  0.00    -0.004 C 
HETATM   37  C1  UNL     1       0.168  20.643   4.597  1.00  0.00     0.005 C 
ENDBRANCH  35  36
ENDBRANCH  34  35
ENDBRANCH  33  34
ENDBRANCH  31  33
ENDBRANCH   1  31
TORSDOF 8
ENDMDL
MODEL 3
REMARK VINA RESULT: -9.252627309      1.161      1.840
REMARK  8 active torsions:
REMARK  status: ('A' for Active; 'I' for Inactive)
REMARK    1  A    between atoms: C2_2  and  C3_3 
REMARK    2  A    between atoms: C3_3  and  C4_4 
REMARK    3  A    between atoms: C4_4  and  C5_5 
REMARK    4  A    between atoms: C5_5  and  N1_6 
REMARK    5  A    between atoms: N1_6  and  C6_8 
REMARK    6  A    between atoms: N5_19  and  C10_20 
REMARK    7  A    between atoms: N6_23  and  C13_24 
REMARK    8  A    between atoms: C13_24  and  C14_25 
ROOT
HETATM    1  C6  UNL     1      -2.913  26.179  10.276  1.00  0.00     0.681 A 
HETATM    2  N2  UNL     1      -4.126  26.291  10.779  1.00  0.00    -0.175 N 
ATOM      3  H2  UNL     1      -4.316  27.117  11.346  1.00  0.00     0.186 HD
HETATM    4  C7  UNL     1      -5.132  25.421  10.615  1.00  0.00     0.145 A 
HETATM    5  N3  UNL     1      -6.265  25.560  11.048  1.00  0.00    -0.383 N 
ATOM      6  H31 UNL     1      -7.030  24.898  10.923  1.00  0.00     0.157 HD
ATOM      7  H32 UNL     1      -6.489  26.373  11.621  1.00  0.00     0.157 HD
HETATM    8  C8  UNL     1      -4.828  24.317   9.837  1.00  0.00     0.123 A 
HETATM    9  N4  UNL     1      -5.540  23.217   9.519  1.00  0.00    -0.346 N 
ATOM     10  H4  UNL     1      -6.506  23.032   9.790  1.00  0.00     0.167 HD
HETATM   11  C9  UNL     1      -4.756  22.402   8.781  1.00  0.00     0.185 A 
HETATM   12  N5  UNL     1      -3.545  22.997   8.631  1.00  0.00    -0.322 N 
HETATM   13  C20 UNL     1      -3.572  24.185   9.291  1.00  0.00     0.155 A 
HETATM   14  N9  UNL     1      -2.609  25.077   9.478  1.00  0.00    -0.174 N 
ATOM     15  H9  UNL     1      -1.687  24.962   9.058  1.00  0.00     0.186 HD
ENDROOT
BRANCH  12  16
HETATM   16  C10 UNL     1      -2.596  22.402   7.774  1.00  0.00     0.094 C 
HETATM   17  C11 UNL     1      -1.255  22.050   8.260  1.00  0.00     0.041 C 
HETATM   18  C12 UNL     1      -0.291  21.927   7.096  1.00  0.00     0.097 C 
HETATM   19  N6  UNL     1      -1.010  21.810   5.836  1.00  0.00    -0.290 NA
HETATM   20  C18 UNL     1      -1.767  22.976   5.529  1.00  0.00     0.097 C 
HETATM   21  C19 UNL     1      -2.291  23.588   6.771  1.00  0.00     0.041 C 
BRANCH  19  22
HETATM   22  C13 UNL     1      -0.242  21.261   4.818  1.00  0.00     0.091 C 
BRANCH  22  23
HETATM   23  C14 UNL     1      -0.733  21.259   3.451  1.00  0.00     0.066 A 
HETATM   24  N7  UNL     1      -1.342  22.127   2.671  1.00  0.00    -0.350 N 
HETATM   25  C15 UNL     1      -1.843  21.538   1.547  1.00  0.00     0.181 A 
ATOM     26  H7  UNL     1      -1.428  23.121   2.881  1.00  0.00     0.166 HD
HETATM   27  N8  UNL     1      -1.528  20.210   1.620  1.00  0.00    -0.354 N 
HETATM   28  C16 UNL     1      -0.869  20.024   2.743  1.00  0.00     0.034 A 
ATOM     29  H8  UNL     1      -1.761  19.496   0.930  1.00  0.00     0.166 HD
HETATM   30  C17 UNL     1      -0.120  18.847   3.293  1.00  0.00     0.070 C 
ENDBRANCH  22  23
ENDBRANCH  19  22
ENDBRANCH  12  16
BRANCH   1  31
HETATM   31  N1  UNL     1      -1.807  26.704  10.837  1.00  0.00    -0.226 N 
ATOM     32  H1  UNL     1      -1.266  26.232  11.562  1.00  0.00     0.177 HD
BRANCH  31  33
HETATM   33  C5  UNL     1      -1.444  28.084  10.276  1.00  0.00     0.138 C 
BRANCH  33  34
HETATM   34  C4  UNL     1      -1.412  28.924  11.546  1.00  0.00     0.020 C 
BRANCH  34  35
HETATM   35  C3  UNL     1      -2.654  29.320  12.165  1.00  0.00     0.001 C 
BRANCH  35  36
HETATM   36  C2  UNL     1      -2.892  28.924  13.606  1.00  0.00    -0.004 C 
HETATM   37  C1  UNL     1      -4.264  28.243  13.712  1.00  0.00     0.005 C 
ENDBRANCH  35  36
ENDBRANCH  34  35
ENDBRANCH  33  34
ENDBRANCH  31  33
ENDBRANCH   1  31
TORSDOF 8
ENDMDL
MODEL 4
REMARK VINA RESULT: -9.242846782      3.299      6.822
REMARK  8 active torsions:
REMARK  status: ('A' for Active; 'I' for Inactive)
REMARK    1  A    between atoms: C2_2  and  C3_3 
REMARK    2  A    between atoms: C3_3  and  C4_4 
REMARK    3  A    between atoms: C4_4  and  C5_5 
REMARK    4  A    between atoms: C5_5  and  N1_6 
REMARK    5  A    between atoms: N1_6  and  C6_8 
REMARK    6  A    between atoms: N5_19  and  C10_20 
REMARK    7  A    between atoms: N6_23  and  C13_24 
REMARK    8  A    between atoms: C13_24  and  C14_25 
ROOT
HETATM    1  C6  UNL     1      -6.779  21.291   9.398  1.00  0.00     0.681 A 
HETATM    2  N2  UNL     1      -7.189  22.186  10.274  1.00  0.00    -0.175 N 
ATOM      3  H2  UNL     1      -8.102  22.029  10.700  1.00  0.00     0.186 HD
HETATM    4  C7  UNL     1      -6.519  23.281  10.656  1.00  0.00     0.145 A 
HETATM    5  N3  UNL     1      -6.890  24.077  11.504  1.00  0.00    -0.383 N 
ATOM      6  H31 UNL     1      -6.380  24.912  11.795  1.00  0.00     0.157 HD
ATOM      7  H32 UNL     1      -7.799  23.953  11.948  1.00  0.00     0.157 HD
HETATM    8  C8  UNL     1      -5.284  23.451  10.053  1.00  0.00     0.123 A 
HETATM    9  N4  UNL     1      -4.377  24.446  10.125  1.00  0.00    -0.346 N 
ATOM     10  H4  UNL     1      -4.446  25.276  10.714  1.00  0.00     0.167 HD
HETATM   11  C9  UNL     1      -3.362  24.156   9.282  1.00  0.00     0.185 A 
HETATM   12  N5  UNL     1      -3.632  22.969   8.682  1.00  0.00    -0.322 N 
HETATM   13  C20 UNL     1      -4.830  22.523   9.145  1.00  0.00     0.155 A 
HETATM   14  N9  UNL     1      -5.529  21.450   8.801  1.00  0.00    -0.174 N 
ATOM     15  H9  UNL     1      -5.169  20.771   8.130  1.00  0.00     0.186 HD
ENDROOT
BRANCH  12  16
HETATM   16  C10 UNL     1      -2.646  22.382   7.861  1.00  0.00     0.094 C 
HETATM   17  C11 UNL     1      -1.315  22.058   8.393  1.00  0.00     0.041 C 
HETATM   18  C12 UNL     1      -0.313  21.941   7.261  1.00  0.00     0.097 C 
HETATM   19  N6  UNL     1      -0.990  21.801   5.979  1.00  0.00    -0.290 NA
HETATM   20  C18 UNL     1      -1.757  22.950   5.638  1.00  0.00     0.097 C 
HETATM   21  C19 UNL     1      -2.329  23.564   6.857  1.00  0.00     0.041 C 
BRANCH  19  22
HETATM   22  C13 UNL     1      -0.181  21.255   4.992  1.00  0.00     0.091 C 
BRANCH  22  23
HETATM   23  C14 UNL     1      -0.610  21.271   3.604  1.00  0.00     0.066 A 
HETATM   24  N7  UNL     1      -1.107  22.175   2.786  1.00  0.00    -0.350 N 
HETATM   25  C15 UNL     1      -1.607  21.612   1.648  1.00  0.00     0.181 A 
ATOM     26  H7  UNL     1      -1.117  23.176   2.979  1.00  0.00     0.166 HD
HETATM   27  N8  UNL     1      -1.410  20.263   1.753  1.00  0.00    -0.354 N 
HETATM   28  C16 UNL     1      -0.820  20.041   2.907  1.00  0.00     0.034 A 
ATOM     29  H8  UNL     1      -1.673  19.559   1.063  1.00  0.00     0.166 HD
HETATM   30  C17 UNL     1      -0.199  18.814   3.506  1.00  0.00     0.070 C 
ENDBRANCH  22  23
ENDBRANCH  19  22
ENDBRANCH  12  16
BRANCH   1  31
HETATM   31  N1  UNL     1      -7.600  20.542   8.636  1.00  0.00    -0.226 N 
ATOM     32  H1  UNL     1      -7.794  20.743   7.654  1.00  0.00     0.177 HD
BRANCH  31  33
HETATM   33  C5  UNL     1      -8.212  19.359   9.394  1.00  0.00     0.138 C 
BRANCH  33  34
HETATM   34  C4  UNL     1      -7.161  18.280   9.163  1.00  0.00     0.020 C 
BRANCH  34  35
HETATM   35  C3  UNL     1      -6.706  18.011   7.820  1.00  0.00     0.001 C 
BRANCH  35  36
HETATM   36  C2  UNL     1      -7.150  16.724   7.160  1.00  0.00    -0.004 C 
HETATM   37  C1  UNL     1      -7.823  15.834   8.215  1.00  0.00     0.005 C 
ENDBRANCH  35  36
ENDBRANCH  34  35
ENDBRANCH  33  34
ENDBRANCH  31  33
ENDBRANCH   1  31
TORSDOF 8
ENDMDL
MODEL 5
REMARK VINA RESULT: -9.160063227      3.360      6.486
REMARK  8 active torsions:
REMARK  status: ('A' for Active; 'I' for Inactive)
REMARK    1  A    between atoms: C2_2  and  C3_3 
REMARK    2  A    between atoms: C3_3  and  C4_4 
REMARK    3  A    between atoms: C4_4  and  C5_5 
REMARK    4  A    between atoms: C5_5  and  N1_6 
REMARK    5  A    between atoms: N1_6  and  C6_8 
REMARK    6  A    between atoms: N5_19  and  C10_20 
REMARK    7  A    between atoms: N6_23  and  C13_24 
REMARK    8  A    between atoms: C13_24  and  C14_25 
ROOT
HETATM    1  C6  UNL     1      -7.060  21.636   8.904  1.00  0.00     0.681 A 
HETATM    2  N2  UNL     1      -7.431  22.400   9.912  1.00  0.00    -0.175 N 
ATOM      3  H2  UNL     1      -8.393  22.301  10.236  1.00  0.00     0.186 HD
HETATM    4  C7  UNL     1      -6.663  23.293  10.550  1.00  0.00     0.145 A 
HETATM    5  N3  UNL     1      -7.006  23.961  11.514  1.00  0.00    -0.383 N 
ATOM      6  H31 UNL     1      -6.421  24.641  11.999  1.00  0.00     0.157 HD
ATOM      7  H32 UNL     1      -7.961  23.889  11.862  1.00  0.00     0.157 HD
HETATM    8  C8  UNL     1      -5.365  23.391  10.078  1.00  0.00     0.123 A 
HETATM    9  N4  UNL     1      -4.347  24.211  10.408  1.00  0.00    -0.346 N 
ATOM     10  H4  UNL     1      -4.362  24.915  11.146  1.00  0.00     0.167 HD
HETATM   11  C9  UNL     1      -3.303  23.940   9.595  1.00  0.00     0.185 A 
HETATM   12  N5  UNL     1      -3.667  22.940   8.753  1.00  0.00    -0.322 N 
HETATM   13  C20 UNL     1      -4.952  22.595   9.035  1.00  0.00     0.155 A 
HETATM   14  N9  UNL     1      -5.749  21.720   8.437  1.00  0.00    -0.174 N 
ATOM     15  H9  UNL     1      -5.419  21.135   7.670  1.00  0.00     0.186 HD
ENDROOT
BRANCH  12  16
HETATM   16  C10 UNL     1      -2.694  22.381   7.899  1.00  0.00     0.094 C 
HETATM   17  C11 UNL     1      -1.360  22.027   8.405  1.00  0.00     0.041 C 
HETATM   18  C12 UNL     1      -0.369  21.951   7.259  1.00  0.00     0.097 C 
HETATM   19  N6  UNL     1      -1.059  21.866   5.979  1.00  0.00    -0.290 NA
HETATM   20  C18 UNL     1      -1.821  23.033   5.692  1.00  0.00     0.097 C 
HETATM   21  C19 UNL     1      -2.379  23.600   6.941  1.00  0.00     0.041 C 
BRANCH  19  22
HETATM   22  C13 UNL     1      -0.263  21.356   4.963  1.00  0.00     0.091 C 
BRANCH  22  23
HETATM   23  C14 UNL     1      -0.746  21.343   3.593  1.00  0.00     0.066 A 
HETATM   24  N7  UNL     1      -1.367  22.199   2.809  1.00  0.00    -0.350 N 
HETATM   25  C15 UNL     1      -1.850  21.600   1.682  1.00  0.00     0.181 A 
ATOM     26  H7  UNL     1      -1.474  23.191   3.018  1.00  0.00     0.166 HD
HETATM   27  N8  UNL     1      -1.509  20.278   1.758  1.00  0.00    -0.354 N 
HETATM   28  C16 UNL     1      -0.853  20.106   2.885  1.00  0.00     0.034 A 
ATOM     29  H8  UNL     1      -1.723  19.559   1.067  1.00  0.00     0.166 HD
HETATM   30  C17 UNL     1      -0.084  18.944   3.440  1.00  0.00     0.070 C 
ENDBRANCH  22  23
ENDBRANCH  19  22
ENDBRANCH  12  16
BRANCH   1  31
HETATM   31  N1  UNL     1      -7.895  21.173   7.955  1.00  0.00    -0.226 N 
ATOM     32  H1  UNL     1      -8.767  21.638   7.698  1.00  0.00     0.177 HD
BRANCH  31  33
HETATM   33  C5  UNL     1      -7.404  19.878   7.299  1.00  0.00     0.138 C 
BRANCH  33  34
HETATM   34  C4  UNL     1      -8.343  18.853   7.921  1.00  0.00     0.020 C 
BRANCH  34  35
HETATM   35  C3  UNL     1      -7.829  17.923   8.898  1.00  0.00     0.001 C 
BRANCH  35  36
HETATM   36  C2  UNL     1      -8.012  18.254  10.363  1.00  0.00    -0.004 C 
HETATM   37  C1  UNL     1      -6.675  18.756  10.927  1.00  0.00     0.005 C 
ENDBRANCH  35  36
ENDBRANCH  34  35
ENDBRANCH  33  34
ENDBRANCH  31  33
ENDBRANCH   1  31
TORSDOF 8
ENDMDL
