MODEL 1
REMARK VINA RESULT: -6.636928726      0.000      0.000
REMARK  6 active torsions:
REMARK  status: ('A' for Active; 'I' for Inactive)
REMARK    1  A    between atoms: O1_1  and  C1_3 
REMARK    2  A    between atoms: C2_7  and  C3_8 
REMARK    3  A    between atoms: C3_8  and  O4_9 
REMARK    4  A    between atoms: C3_8  and  C4_11 
REMARK    5  A    between atoms: C8_16  and  O6_17 
REMARK    6  A    between atoms: C9_19  and  O7_20 
ROOT
HETATM    1  C1  UNL     1       0.367  11.111  21.817  1.00  0.00     0.304 C 
HETATM    2  O2  UNL     1       0.448   9.742  22.046  1.00  0.00    -0.261 OA
HETATM    3  S1  UNL     1       2.096   9.344  22.287  1.00  0.00     0.162 SA
HETATM    4  O3  UNL     1       2.719  10.404  23.485  1.00  0.00    -0.286 OA
HETATM    5  C2  UNL     1       1.719  10.705  24.375  1.00  0.00     0.202 C 
HETATM    6  C8  UNL     1       1.030  11.993  24.070  1.00  0.00     0.184 C 
HETATM    7  C9  UNL     1      -0.079  11.855  23.057  1.00  0.00     0.205 C 
ENDROOT
BRANCH   5   8
HETATM    8  C3  UNL     1       2.230  10.764  25.803  1.00  0.00     0.180 C 
BRANCH   8   9
HETATM    9  O4  UNL     1       2.968  11.925  26.006  1.00  0.00    -0.390 OA
ATOM     10  H4  UNL     1       3.884  11.715  26.146  1.00  0.00     0.210 HD
ENDBRANCH   8   9
BRANCH   8  11
HETATM   11  C4  UNL     1       3.115   9.598  26.136  1.00  0.00     0.152 C 
HETATM   12  C5  UNL     1       4.392  10.173  26.759  1.00  0.00     0.036 C 
HETATM   13  C6  UNL     1       4.948   8.921  27.428  1.00  0.00     0.029 C 
HETATM   14  C7  UNL     1       3.681   8.180  27.771  1.00  0.00     0.168 C 
HETATM   15  O5  UNL     1       2.634   8.816  27.156  1.00  0.00    -0.383 OA
ENDBRANCH   8  11
ENDBRANCH   5   8
BRANCH   6  16
HETATM   16  O6  UNL     1       1.884  13.015  23.691  1.00  0.00    -0.390 OA
ATOM     17  H6  UNL     1       1.712  13.844  24.121  1.00  0.00     0.210 HD
ENDBRANCH   6  16
BRANCH   7  18
HETATM   18  O7  UNL     1      -0.447  13.144  22.672  1.00  0.00    -0.388 OA
ATOM     19  H7  UNL     1       0.192  13.453  22.041  1.00  0.00     0.210 HD
ENDBRANCH   7  18
BRANCH   1  20
HETATM   20  O1  UNL     1      -0.569  11.392  20.820  1.00  0.00    -0.368 OA
ATOM     21  H1  UNL     1      -1.428  11.546  21.197  1.00  0.00     0.212 HD
ENDBRANCH   1  20
TORSDOF 6
ENDMDL
MODEL 2
REMARK VINA RESULT: -6.567515890      1.981      2.781
REMARK  6 active torsions:
REMARK  status: ('A' for Active; 'I' for Inactive)
REMARK    1  A    between atoms: O1_1  and  C1_3 
REMARK    2  A    between atoms: C2_7  and  C3_8 
REMARK    3  A    between atoms: C3_8  and  O4_9 
REMARK    4  A    between atoms: C3_8  and  C4_11 
REMARK    5  A    between atoms: C8_16  and  O6_17 
REMARK    6  A    between atoms: C9_19  and  O7_20 
ROOT
HETATM    1  C1  UNL     1      -0.002  13.399  22.442  1.00  0.00     0.304 C 
HETATM    2  O2  UNL     1       0.329  14.215  23.519  1.00  0.00    -0.261 OA
HETATM    3  S1  UNL     1      -0.214  13.447  24.950  1.00  0.00     0.162 SA
HETATM    4  O3  UNL     1       0.384  11.838  24.938  1.00  0.00    -0.286 OA
HETATM    5  C2  UNL     1       1.602  11.822  24.307  1.00  0.00     0.202 C 
HETATM    6  C8  UNL     1       1.512  11.444  22.867  1.00  0.00     0.184 C 
HETATM    7  C9  UNL     1       1.193  12.606  21.960  1.00  0.00     0.205 C 
ENDROOT
BRANCH   5   8
HETATM    8  C3  UNL     1       2.580  10.881  24.986  1.00  0.00     0.180 C 
BRANCH   8   9
HETATM    9  O4  UNL     1       2.786   9.749  24.205  1.00  0.00    -0.390 OA
ATOM     10  H4  UNL     1       3.716   9.591  24.090  1.00  0.00     0.210 HD
ENDBRANCH   8   9
BRANCH   8  11
HETATM   11  C4  UNL     1       2.086  10.424  26.329  1.00  0.00     0.152 C 
HETATM   12  C5  UNL     1       2.876   9.159  26.685  1.00  0.00     0.036 C 
HETATM   13  C6  UNL     1       2.608   9.093  28.185  1.00  0.00     0.029 C 
HETATM   14  C7  UNL     1       2.476  10.555  28.528  1.00  0.00     0.168 C 
HETATM   15  O5  UNL     1       2.429  11.266  27.357  1.00  0.00    -0.383 OA
ENDBRANCH   8  11
ENDBRANCH   5   8
BRANCH   6  16
HETATM   16  O6  UNL     1       0.640  10.399  22.611  1.00  0.00    -0.390 OA
ATOM     17  H6  UNL     1       1.067   9.561  22.477  1.00  0.00     0.210 HD
ENDBRANCH   6  16
BRANCH   7  18
HETATM   18  O7  UNL     1       0.877  12.077  20.709  1.00  0.00    -0.388 OA
ATOM     19  H7  UNL     1       0.156  11.470  20.823  1.00  0.00     0.210 HD
ENDBRANCH   7  18
BRANCH   1  20
HETATM   20  O1  UNL     1      -0.443  14.161  21.360  1.00  0.00    -0.368 OA
ATOM     21  H1  UNL     1       0.148  14.073  20.621  1.00  0.00     0.212 HD
ENDBRANCH   1  20
TORSDOF 6
ENDMDL
MODEL 3
REMARK VINA RESULT: -6.528723416      2.117      2.597
REMARK  6 active torsions:
REMARK  status: ('A' for Active; 'I' for Inactive)
REMARK    1  A    between atoms: O1_1  and  C1_3 
REMARK    2  A    between atoms: C2_7  and  C3_8 
REMARK    3  A    between atoms: C3_8  and  O4_9 
REMARK    4  A    between atoms: C3_8  and  C4_11 
REMARK    5  A    between atoms: C8_16  and  O6_17 
REMARK    6  A    between atoms: C9_19  and  O7_20 
ROOT
HETATM    1  C1  UNL     1       0.857  11.549  21.694  1.00  0.00     0.304 C 
HETATM    2  O2  UNL     1       0.805  10.316  22.335  1.00  0.00    -0.261 OA
HETATM    3  S1  UNL     1       2.048  10.280  23.513  1.00  0.00     0.162 SA
HETATM    4  O3  UNL     1       1.902  11.698  24.469  1.00  0.00    -0.286 OA
HETATM    5  C2  UNL     1       0.575  12.036  24.561  1.00  0.00     0.202 C 
HETATM    6  C8  UNL     1       0.162  13.068  23.566  1.00  0.00     0.184 C 
HETATM    7  C9  UNL     1      -0.203  12.492  22.220  1.00  0.00     0.205 C 
ENDROOT
BRANCH   5   8
HETATM    8  C3  UNL     1       0.213  12.539  25.946  1.00  0.00     0.180 C 
BRANCH   8   9
HETATM    9  O4  UNL     1      -0.039  13.907  25.915  1.00  0.00    -0.390 OA
ATOM     10  H4  UNL     1       0.442  14.347  26.606  1.00  0.00     0.210 HD
ENDBRANCH   8   9
BRANCH   8  11
HETATM   11  C4  UNL     1       1.313  12.301  26.940  1.00  0.00     0.152 C 
HETATM   12  C5  UNL     1       0.906  13.017  28.233  1.00  0.00     0.036 C 
HETATM   13  C6  UNL     1       1.843  12.331  29.222  1.00  0.00     0.029 C 
HETATM   14  C7  UNL     1       1.973  10.961  28.606  1.00  0.00     0.168 C 
HETATM   15  O5  UNL     1       1.403  10.997  27.359  1.00  0.00    -0.383 OA
ENDBRANCH   8  11
ENDBRANCH   5   8
BRANCH   6  16
HETATM   16  O6  UNL     1       1.079  14.093  23.401  1.00  0.00    -0.390 OA
ATOM     17  H6  UNL     1       1.178  14.650  24.164  1.00  0.00     0.210 HD
ENDBRANCH   6  16
BRANCH   7  18
HETATM   18  O7  UNL     1      -0.304  13.560  21.329  1.00  0.00    -0.388 OA
ATOM     19  H7  UNL     1      -0.725  14.280  21.784  1.00  0.00     0.210 HD
ENDBRANCH   7  18
BRANCH   1  20
HETATM   20  O1  UNL     1       0.624  11.405  20.325  1.00  0.00    -0.368 OA
ATOM     21  H1  UNL     1       1.291  10.857  19.926  1.00  0.00     0.212 HD
ENDBRANCH   1  20
TORSDOF 6
ENDMDL
MODEL 4
REMARK VINA RESULT: -6.440620925      3.174      4.606
REMARK  6 active torsions:
REMARK  status: ('A' for Active; 'I' for Inactive)
REMARK    1  A    between atoms: O1_1  and  C1_3 
REMARK    2  A    between atoms: C2_7  and  C3_8 
REMARK    3  A    between atoms: C3_8  and  O4_9 
REMARK    4  A    between atoms: C3_8  and  C4_11 
REMARK    5  A    between atoms: C8_16  and  O6_17 
REMARK    6  A    between atoms: C9_19  and  O7_20 
ROOT
HETATM    1  C1  UNL     1       1.734  10.422  22.410  1.00  0.00     0.304 C 
HETATM    2  O2  UNL     1       1.593   9.888  23.686  1.00  0.00    -0.261 OA
HETATM    3  S1  UNL     1       2.180  11.039  24.809  1.00  0.00     0.162 SA
HETATM    4  O3  UNL     1       1.416  12.538  24.468  1.00  0.00    -0.286 OA
HETATM    5  C2  UNL     1       0.150  12.294  23.998  1.00  0.00     0.202 C 
HETATM    6  C8  UNL     1       0.066  12.294  22.509  1.00  0.00     0.184 C 
HETATM    7  C9  UNL     1       0.422  10.967  21.887  1.00  0.00     0.205 C 
ENDROOT
BRANCH   5   8
HETATM    8  C3  UNL     1      -0.856  13.297  24.532  1.00  0.00     0.180 C 
BRANCH   8   9
HETATM    9  O4  UNL     1      -0.206  14.437  24.994  1.00  0.00    -0.390 OA
ATOM     10  H4  UNL     1      -0.792  14.957  25.532  1.00  0.00     0.210 HD
ENDBRANCH   8   9
BRANCH   8  11
HETATM   11  C4  UNL     1      -1.662  12.740  25.669  1.00  0.00     0.152 C 
HETATM   12  C5  UNL     1      -0.998  13.223  26.963  1.00  0.00     0.036 C 
HETATM   13  C6  UNL     1      -2.134  12.978  27.952  1.00  0.00     0.029 C 
HETATM   14  C7  UNL     1      -3.341  13.195  27.076  1.00  0.00     0.168 C 
HETATM   15  O5  UNL     1      -2.915  13.289  25.776  1.00  0.00    -0.383 OA
ENDBRANCH   8  11
ENDBRANCH   5   8
BRANCH   6  16
HETATM   16  O6  UNL     1       0.796  13.303  21.902  1.00  0.00    -0.390 OA
ATOM     17  H6  UNL     1       1.722  13.292  22.114  1.00  0.00     0.210 HD
ENDBRANCH   6  16
BRANCH   7  18
HETATM   18  O7  UNL     1       0.564  11.179  20.516  1.00  0.00    -0.388 OA
ATOM     19  H7  UNL     1      -0.079  10.639  20.071  1.00  0.00     0.210 HD
ENDBRANCH   7  18
BRANCH   1  20
HETATM   20  O1  UNL     1       2.153   9.444  21.506  1.00  0.00    -0.368 OA
ATOM     21  H1  UNL     1       3.046   9.605  21.225  1.00  0.00     0.212 HD
ENDBRANCH   1  20
TORSDOF 6
ENDMDL
MODEL 5
REMARK VINA RESULT: -6.392967967      3.289      4.756
REMARK  6 active torsions:
REMARK  status: ('A' for Active; 'I' for Inactive)
REMARK    1  A    between atoms: O1_1  and  C1_3 
REMARK    2  A    between atoms: C2_7  and  C3_8 
REMARK    3  A    between atoms: C3_8  and  O4_9 
REMARK    4  A    between atoms: C3_8  and  C4_11 
REMARK    5  A    between atoms: C8_16  and  O6_17 
REMARK    6  A    between atoms: C9_19  and  O7_20 
ROOT
HETATM    1  C1  UNL     1       0.834  11.677  21.714  1.00  0.00     0.304 C 
HETATM    2  O2  UNL     1       0.686  10.511  22.458  1.00  0.00    -0.261 OA
HETATM    3  S1  UNL     1       1.810  10.561  23.749  1.00  0.00     0.162 SA
HETATM    4  O3  UNL     1       1.615  12.066  24.552  1.00  0.00    -0.286 OA
HETATM    5  C2  UNL     1       0.296  12.438  24.483  1.00  0.00     0.202 C 
HETATM    6  C8  UNL     1       0.009  13.380  23.362  1.00  0.00     0.184 C 
HETATM    7  C9  UNL     1      -0.243  12.687  22.046  1.00  0.00     0.205 C 
ENDROOT
BRANCH   5   8
HETATM    8  C3  UNL     1      -0.181  13.077  25.775  1.00  0.00     0.180 C 
BRANCH   8   9
HETATM    9  O4  UNL     1       0.139  12.271  26.862  1.00  0.00    -0.390 OA
ATOM     10  H4  UNL     1      -0.651  11.953  27.283  1.00  0.00     0.210 HD
ENDBRANCH   8   9
BRANCH   8  11
HETATM   11  C4  UNL     1      -1.668  13.286  25.786  1.00  0.00     0.152 C 
HETATM   12  C5  UNL     1      -2.127  13.129  27.240  1.00  0.00     0.036 C 
HETATM   13  C6  UNL     1      -3.499  13.792  27.159  1.00  0.00     0.029 C 
HETATM   14  C7  UNL     1      -3.265  14.824  26.085  1.00  0.00     0.168 C 
HETATM   15  O5  UNL     1      -2.044  14.577  25.512  1.00  0.00    -0.383 OA
ENDBRANCH   8  11
ENDBRANCH   5   8
BRANCH   6  16
HETATM   16  O6  UNL     1       0.967  14.366  23.194  1.00  0.00    -0.390 OA
ATOM     17  H6  UNL     1       1.694  14.307  23.803  1.00  0.00     0.210 HD
ENDBRANCH   6  16
BRANCH   7  18
HETATM   18  O7  UNL     1      -0.227  13.668  21.055  1.00  0.00    -0.388 OA
ATOM     19  H7  UNL     1       0.520  13.502  20.493  1.00  0.00     0.210 HD
ENDBRANCH   7  18
BRANCH   1  20
HETATM   20  O1  UNL     1       0.729  11.410  20.348  1.00  0.00    -0.368 OA
ATOM     21  H1  UNL     1       1.473  11.767  19.877  1.00  0.00     0.212 HD
ENDBRANCH   1  20
TORSDOF 6
ENDMDL
