MODEL 1
REMARK VINA RESULT: -6.869642102      0.000      0.000
REMARK  5 active torsions:
REMARK  status: ('A' for Active; 'I' for Inactive)
REMARK    1  A    between atoms: S1_2  and  C2_3 
REMARK    2  A    between atoms: C4_11  and  N4_12 
REMARK    3  A    between atoms: N4_12  and  N5_14 
REMARK    4  A    between atoms: C5_19  and  N7_20 
REMARK    5  A    between atoms: N7_20  and  O1_22 
ROOT
HETATM    1  C2  UNL     1      11.160  -0.133   5.317  1.00  0.00     0.106 A 
HETATM    2  N1  UNL     1      10.065   0.630   5.308  1.00  0.00    -0.291 N 
ATOM      3  H1  UNL     1       9.449   0.628   6.121  1.00  0.00     0.187 HD
HETATM    4  N2  UNL     1       9.763   1.386   4.272  1.00  0.00    -0.283 N 
ATOM      5  H2  UNL     1       8.913   1.948   4.315  1.00  0.00     0.188 HD
HETATM    6  C3  UNL     1      10.504   1.453   3.178  1.00  0.00     0.151 A 
HETATM    7  N3  UNL     1      10.150   2.240   2.151  1.00  0.00    -0.173 N 
ATOM      8  H3  UNL     1       9.301   2.801   2.200  1.00  0.00     0.186 HD
HETATM    9  C4  UNL     1      10.930   2.279   1.060  1.00  0.00     0.699 A 
HETATM   10  N6  UNL     1      12.048   1.546   0.982  1.00  0.00    -0.172 N 
ATOM     11  H6  UNL     1      12.615   1.600   0.136  1.00  0.00     0.186 HD
HETATM   12  C5  UNL     1      12.453   0.731   1.996  1.00  0.00     0.156 A 
HETATM   13  C6  UNL     1      11.668   0.680   3.116  1.00  0.00     0.080 A 
HETATM   14  C7  UNL     1      11.992  -0.113   4.192  1.00  0.00     0.097 A 
HETATM   15  C8  UNL     1      13.185  -0.927   4.171  1.00  0.00     0.103 C 
HETATM   16  N8  UNL     1      14.156  -1.607   4.191  1.00  0.00    -0.191 NA
ENDROOT
BRANCH   1  17
HETATM   17  S1  UNL     1      11.659  -1.188   6.662  1.00  0.00    -0.114 SA
HETATM   18  C1  UNL     1      10.959  -2.831   6.565  1.00  0.00     0.097 C 
ENDBRANCH   1  17
BRANCH  12  19
HETATM   19  N7  UNL     1      13.523   0.066   1.854  1.00  0.00    -0.252 N 
ATOM     20  H7  UNL     1      13.832  -0.483   2.655  1.00  0.00     0.196 HD
BRANCH  19  21
HETATM   21  O1  UNL     1      14.294   0.015   0.745  1.00  0.00    -0.288 OA
ATOM     22  H1  UNL     1      14.651  -0.768   0.342  1.00  0.00     0.244 HD
ENDBRANCH  19  21
ENDBRANCH  12  19
BRANCH   9  23
HETATM   23  N4  UNL     1      10.622   3.019   0.064  1.00  0.00    -0.138 N 
ATOM     24  H4  UNL     1      11.127   2.866  -0.810  1.00  0.00     0.205 HD
BRANCH  23  25
HETATM   25  N5  UNL     1       9.656   4.012   0.081  1.00  0.00    -0.331 N 
ATOM     26  H52 UNL     1       9.762   4.736   0.791  1.00  0.00     0.177 HD
ATOM     27  H51 UNL     1       8.862   4.065  -0.557  1.00  0.00     0.177 HD
ENDBRANCH  23  25
ENDBRANCH   9  23
TORSDOF 5
ENDMDL
MODEL 2
REMARK VINA RESULT: -6.837042027      2.558      5.217
REMARK  5 active torsions:
REMARK  status: ('A' for Active; 'I' for Inactive)
REMARK    1  A    between atoms: S1_2  and  C2_3 
REMARK    2  A    between atoms: C4_11  and  N4_12 
REMARK    3  A    between atoms: N4_12  and  N5_14 
REMARK    4  A    between atoms: C5_19  and  N7_20 
REMARK    5  A    between atoms: N7_20  and  O1_22 
ROOT
HETATM    1  C2  UNL     1      10.279   1.405   2.622  1.00  0.00     0.106 A 
HETATM    2  N1  UNL     1       9.993   1.732   3.884  1.00  0.00    -0.291 N 
ATOM      3  H1  UNL     1       9.351   2.504   4.065  1.00  0.00     0.187 HD
HETATM    4  N2  UNL     1      10.522   1.081   4.899  1.00  0.00    -0.283 N 
ATOM      5  H2  UNL     1      10.272   1.373   5.844  1.00  0.00     0.188 HD
HETATM    6  C3  UNL     1      11.361   0.068   4.758  1.00  0.00     0.151 A 
HETATM    7  N3  UNL     1      11.870  -0.561   5.828  1.00  0.00    -0.173 N 
ATOM      8  H3  UNL     1      11.616  -0.265   6.770  1.00  0.00     0.186 HD
HETATM    9  C4  UNL     1      12.718  -1.583   5.641  1.00  0.00     0.699 A 
HETATM   10  N6  UNL     1      13.062  -1.981   4.409  1.00  0.00    -0.172 N 
ATOM     11  H6  UNL     1      13.711  -2.761   4.306  1.00  0.00     0.186 HD
HETATM   12  C5  UNL     1      12.574  -1.377   3.289  1.00  0.00     0.156 A 
HETATM   13  C6  UNL     1      11.708  -0.332   3.464  1.00  0.00     0.080 A 
HETATM   14  C7  UNL     1      11.162   0.342   2.396  1.00  0.00     0.097 A 
HETATM   15  C8  UNL     1      11.491  -0.038   1.042  1.00  0.00     0.103 C 
HETATM   16  N8  UNL     1      11.737  -0.322  -0.082  1.00  0.00    -0.191 NA
ENDROOT
BRANCH   1  17
HETATM   17  S1  UNL     1       9.621   2.217   1.180  1.00  0.00    -0.114 SA
HETATM   18  C1  UNL     1      10.719   3.459   0.509  1.00  0.00     0.097 C 
ENDBRANCH   1  17
BRANCH  12  19
HETATM   19  N7  UNL     1      12.942  -1.807   2.155  1.00  0.00    -0.252 N 
ATOM     20  H7  UNL     1      13.498  -1.172   1.582  1.00  0.00     0.196 HD
BRANCH  19  21
HETATM   21  O1  UNL     1      12.670  -3.023   1.631  1.00  0.00    -0.288 OA
ATOM     22  H1  UNL     1      12.690  -3.853   2.093  1.00  0.00     0.244 HD
ENDBRANCH  19  21
ENDBRANCH  12  19
BRANCH   9  23
HETATM   23  N4  UNL     1      13.222  -2.205   6.638  1.00  0.00    -0.138 N 
ATOM     24  H4  UNL     1      13.037  -1.830   7.569  1.00  0.00     0.205 HD
BRANCH  23  25
HETATM   25  N5  UNL     1      14.000  -3.348   6.550  1.00  0.00    -0.331 N 
ATOM     26  H52 UNL     1      14.868  -3.267   6.021  1.00  0.00     0.177 HD
ATOM     27  H51 UNL     1      13.766  -4.247   6.972  1.00  0.00     0.177 HD
ENDBRANCH  23  25
ENDBRANCH   9  23
TORSDOF 5
ENDMDL
MODEL 3
REMARK VINA RESULT: -6.632808967      2.930      5.928
REMARK  5 active torsions:
REMARK  status: ('A' for Active; 'I' for Inactive)
REMARK    1  A    between atoms: S1_2  and  C2_3 
REMARK    2  A    between atoms: C4_11  and  N4_12 
REMARK    3  A    between atoms: N4_12  and  N5_14 
REMARK    4  A    between atoms: C5_19  and  N7_20 
REMARK    5  A    between atoms: N7_20  and  O1_22 
ROOT
HETATM    1  C2  UNL     1      11.688  -0.239   0.989  1.00  0.00     0.106 A 
HETATM    2  N1  UNL     1      12.414  -1.358   0.931  1.00  0.00    -0.291 N 
ATOM      3  H1  UNL     1      12.671  -1.739   0.021  1.00  0.00     0.187 HD
HETATM    4  N2  UNL     1      12.805  -1.980   2.025  1.00  0.00    -0.283 N 
ATOM      5  H2  UNL     1      13.356  -2.832   1.925  1.00  0.00     0.188 HD
HETATM    6  C3  UNL     1      12.520  -1.557   3.245  1.00  0.00     0.151 A 
HETATM    7  N3  UNL     1      12.945  -2.228   4.326  1.00  0.00    -0.173 N 
ATOM      8  H3  UNL     1      13.496  -3.079   4.221  1.00  0.00     0.186 HD
HETATM    9  C4  UNL     1      12.634  -1.766   5.546  1.00  0.00     0.699 A 
HETATM   10  N6  UNL     1      11.909  -0.650   5.699  1.00  0.00    -0.172 N 
ATOM     11  H6  UNL     1      11.691  -0.329   6.642  1.00  0.00     0.186 HD
HETATM   12  C5  UNL     1      11.453   0.071   4.635  1.00  0.00     0.156 A 
HETATM   13  C6  UNL     1      11.762  -0.389   3.384  1.00  0.00     0.080 A 
HETATM   14  C7  UNL     1      11.347   0.267   2.249  1.00  0.00     0.097 A 
HETATM   15  C8  UNL     1      10.564   1.476   2.345  1.00  0.00     0.103 C 
HETATM   16  N8  UNL     1       9.920   2.471   2.384  1.00  0.00    -0.191 NA
ENDROOT
BRANCH   1  17
HETATM   17  S1  UNL     1      11.108   0.677  -0.424  1.00  0.00    -0.114 SA
HETATM   18  C1  UNL     1       9.490   0.161  -0.983  1.00  0.00     0.097 C 
ENDBRANCH   1  17
BRANCH  12  19
HETATM   19  N7  UNL     1      10.773   1.117   4.854  1.00  0.00    -0.252 N 
ATOM     20  H7  UNL     1      11.175   2.000   4.540  1.00  0.00     0.196 HD
BRANCH  19  21
HETATM   21  O1  UNL     1       9.568   1.178   5.463  1.00  0.00    -0.288 OA
ATOM     22  H1  UNL     1       9.290   1.825   6.100  1.00  0.00     0.244 HD
ENDBRANCH  19  21
ENDBRANCH  12  19
BRANCH   9  23
HETATM   23  N4  UNL     1      13.023  -2.381   6.597  1.00  0.00    -0.138 N 
ATOM     24  H4  UNL     1      12.586  -2.125   7.482  1.00  0.00     0.205 HD
BRANCH  23  25
HETATM   25  N5  UNL     1      13.993  -3.370   6.624  1.00  0.00    -0.331 N 
ATOM     26  H52 UNL     1      14.845  -3.185   6.093  1.00  0.00     0.177 HD
ATOM     27  H51 UNL     1      13.914  -4.252   7.130  1.00  0.00     0.177 HD
ENDBRANCH  23  25
ENDBRANCH   9  23
TORSDOF 5
ENDMDL
MODEL 4
REMARK VINA RESULT: -6.541696108      2.921      5.872
REMARK  5 active torsions:
REMARK  status: ('A' for Active; 'I' for Inactive)
REMARK    1  A    between atoms: S1_2  and  C2_3 
REMARK    2  A    between atoms: C4_11  and  N4_12 
REMARK    3  A    between atoms: N4_12  and  N5_14 
REMARK    4  A    between atoms: C5_19  and  N7_20 
REMARK    5  A    between atoms: N7_20  and  O1_22 
ROOT
HETATM    1  C2  UNL     1      11.100   0.819   2.177  1.00  0.00     0.106 A 
HETATM    2  N1  UNL     1      11.864   0.264   1.233  1.00  0.00    -0.291 N 
ATOM      3  H1  UNL     1      11.920   0.704   0.315  1.00  0.00     0.187 HD
HETATM    4  N2  UNL     1      12.547  -0.838   1.462  1.00  0.00    -0.283 N 
ATOM      5  H2  UNL     1      13.114  -1.222   0.706  1.00  0.00     0.188 HD
HETATM    6  C3  UNL     1      12.537  -1.475   2.622  1.00  0.00     0.151 A 
HETATM    7  N3  UNL     1      13.252  -2.595   2.802  1.00  0.00    -0.173 N 
ATOM      8  H3  UNL     1      13.818  -2.974   2.043  1.00  0.00     0.186 HD
HETATM    9  C4  UNL     1      13.214  -3.210   3.993  1.00  0.00     0.699 A 
HETATM   10  N6  UNL     1      12.474  -2.725   4.999  1.00  0.00    -0.172 N 
ATOM     11  H6  UNL     1      12.469  -3.220   5.890  1.00  0.00     0.186 HD
HETATM   12  C5  UNL     1      11.729  -1.591   4.870  1.00  0.00     0.156 A 
HETATM   13  C6  UNL     1      11.759  -0.952   3.660  1.00  0.00     0.080 A 
HETATM   14  C7  UNL     1      11.040   0.199   3.431  1.00  0.00     0.097 A 
HETATM   15  C8  UNL     1      10.224   0.774   4.474  1.00  0.00     0.103 C 
HETATM   16  N8  UNL     1       9.543   1.275   5.305  1.00  0.00    -0.191 NA
ENDROOT
BRANCH   1  17
HETATM   17  S1  UNL     1      10.139   2.303   1.973  1.00  0.00    -0.114 SA
HETATM   18  C1  UNL     1      10.643   3.281   0.563  1.00  0.00     0.097 C 
ENDBRANCH   1  17
BRANCH  12  19
HETATM   19  N7  UNL     1      11.054  -1.188   5.863  1.00  0.00    -0.252 N 
ATOM     20  H7  UNL     1      10.318  -0.508   5.674  1.00  0.00     0.196 HD
BRANCH  19  21
HETATM   21  O1  UNL     1      11.213  -1.573   7.150  1.00  0.00    -0.288 OA
ATOM     22  H1  UNL     1      11.496  -2.428   7.452  1.00  0.00     0.244 HD
ENDBRANCH  19  21
ENDBRANCH  12  19
BRANCH   9  23
HETATM   23  N4  UNL     1      13.884  -4.279   4.198  1.00  0.00    -0.138 N 
ATOM     24  H4  UNL     1      14.082  -4.533   5.167  1.00  0.00     0.205 HD
BRANCH  23  25
HETATM   25  N5  UNL     1      14.362  -5.119   3.205  1.00  0.00    -0.331 N 
ATOM     26  H52 UNL     1      14.350  -6.118   3.411  1.00  0.00     0.177 HD
ATOM     27  H51 UNL     1      14.717  -4.810   2.300  1.00  0.00     0.177 HD
ENDBRANCH  23  25
ENDBRANCH   9  23
TORSDOF 5
ENDMDL
MODEL 5
REMARK VINA RESULT: -6.398621310      2.525      3.423
REMARK  5 active torsions:
REMARK  status: ('A' for Active; 'I' for Inactive)
REMARK    1  A    between atoms: S1_2  and  C2_3 
REMARK    2  A    between atoms: C4_11  and  N4_12 
REMARK    3  A    between atoms: N4_12  and  N5_14 
REMARK    4  A    between atoms: C5_19  and  N7_20 
REMARK    5  A    between atoms: N7_20  and  O1_22 
ROOT
HETATM    1  C2  UNL     1      12.485  -2.090   2.873  1.00  0.00     0.106 A 
HETATM    2  N1  UNL     1      12.590  -1.906   1.555  1.00  0.00    -0.291 N 
ATOM      3  H1  UNL     1      13.070  -2.607   0.990  1.00  0.00     0.187 HD
HETATM    4  N2  UNL     1      12.086  -0.840   0.968  1.00  0.00    -0.283 N 
ATOM      5  H2  UNL     1      12.195  -0.747  -0.042  1.00  0.00     0.188 HD
HETATM    6  C3  UNL     1      11.446   0.117   1.620  1.00  0.00     0.151 A 
HETATM    7  N3  UNL     1      10.952   1.183   0.972  1.00  0.00    -0.173 N 
ATOM      8  H3  UNL     1      11.063   1.271  -0.037  1.00  0.00     0.186 HD
HETATM    9  C4  UNL     1      10.310   2.131   1.671  1.00  0.00     0.699 A 
HETATM   10  N6  UNL     1      10.157   2.030   2.998  1.00  0.00    -0.172 N 
ATOM     11  H6  UNL     1       9.665   2.771   3.495  1.00  0.00     0.186 HD
HETATM   12  C5  UNL     1      10.639   0.968   3.704  1.00  0.00     0.156 A 
HETATM   13  C6  UNL     1      11.297  -0.007   3.005  1.00  0.00     0.080 A 
HETATM   14  C7  UNL     1      11.820  -1.117   3.628  1.00  0.00     0.097 A 
HETATM   15  C8  UNL     1      11.689  -1.286   5.056  1.00  0.00     0.103 C 
HETATM   16  N8  UNL     1      11.601  -1.461   6.225  1.00  0.00    -0.191 NA
ENDROOT
BRANCH   1  17
HETATM   17  S1  UNL     1      13.128  -3.491   3.764  1.00  0.00    -0.114 SA
HETATM   18  C1  UNL     1      13.291  -4.956   2.751  1.00  0.00     0.097 C 
ENDBRANCH   1  17
BRANCH  12  19
HETATM   19  N7  UNL     1      10.458   0.937   4.957  1.00  0.00    -0.252 N 
ATOM     20  H7  UNL     1      11.294   0.931   5.542  1.00  0.00     0.196 HD
BRANCH  19  21
HETATM   21  O1  UNL     1       9.267   0.912   5.595  1.00  0.00    -0.288 OA
ATOM     22  H1  UNL     1       8.695   0.160   5.694  1.00  0.00     0.244 HD
ENDBRANCH  19  21
ENDBRANCH  12  19
BRANCH   9  23
HETATM   23  N4  UNL     1       9.826   3.159   1.085  1.00  0.00    -0.138 N 
ATOM     24  H4  UNL     1       8.854   3.399   1.280  1.00  0.00     0.205 HD
BRANCH  23  25
HETATM   25  N5  UNL     1      10.523   3.971   0.204  1.00  0.00    -0.331 N 
ATOM     26  H52 UNL     1      11.424   4.323   0.527  1.00  0.00     0.177 HD
ATOM     27  H51 UNL     1      10.200   4.234  -0.727  1.00  0.00     0.177 HD
ENDBRANCH  23  25
ENDBRANCH   9  23
TORSDOF 5
ENDMDL
