MODEL 1
REMARK VINA RESULT: -6.155217244      0.000      0.000
REMARK  18 active torsions:
REMARK  status: ('A' for Active; 'I' for Inactive)
REMARK    1  A    between atoms: N3_4  and  C2_6 
REMARK    2  A    between atoms: C2_6  and  C3_7 
REMARK    3  A    between atoms: C3_7  and  N4_8 
REMARK    4  A    between atoms: N4_8  and  C4_10 
REMARK    5  A    between atoms: C7_15  and  N6_16 
REMARK    6  A    between atoms: N6_16  and  C8_18 
REMARK    7  A    between atoms: C8_18  and  C9_19 
REMARK    8  A    between atoms: C9_19  and  C10_20 
REMARK    9  A    between atoms: C10_20  and  C11_21 
REMARK   10  A    between atoms: C11_21  and  C12_22 
REMARK   11  A    between atoms: C12_22  and  C13_23 
REMARK   12  A    between atoms: C13_23  and  C14_24 
REMARK   13  A    between atoms: C14_24  and  C15_25 
REMARK   14  A    between atoms: C15_25  and  O1_26 
REMARK   15  A    between atoms: O1_26  and  C16_27 
REMARK   16  A    between atoms: C16_27  and  C17_28 
REMARK   17  A    between atoms: C17_28  and  N7_29 
REMARK   18  A    between atoms: N7_29  and  C18_31 
ROOT
HETATM    1  C4  UNL     1      -5.024  57.006  39.963  1.00  0.00     0.679 A 
HETATM    2  N5  UNL     1      -4.191  56.848  40.996  1.00  0.00    -0.202 N 
ATOM      3  H5  UNL     1      -4.098  57.587  41.692  1.00  0.00     0.183 HD
HETATM    4  C5  UNL     1      -3.468  55.704  41.120  1.00  0.00     0.110 A 
HETATM    5  C6  UNL     1      -3.615  54.721  40.162  1.00  0.00     0.066 A 
HETATM    6  C7  UNL     1      -4.466  54.860  39.087  1.00  0.00     0.118 A 
HETATM    7  N8  UNL     1      -5.152  56.013  39.023  1.00  0.00    -0.177 N 
ATOM      8  H8  UNL     1      -5.793  56.158  38.244  1.00  0.00     0.185 HD
ENDROOT
BRANCH   6   9
HETATM    9  N6  UNL     1      -4.653  53.990  38.162  1.00  0.00    -0.376 N 
ATOM     10  H6  UNL     1      -4.820  54.342  37.219  1.00  0.00     0.161 HD
BRANCH   9  11
HETATM   11  C8  UNL     1      -4.646  52.577  38.334  1.00  0.00     0.121 C 
BRANCH  11  12
HETATM   12  C9  UNL     1      -3.423  51.908  37.748  1.00  0.00     0.020 C 
BRANCH  12  13
HETATM   13  C10 UNL     1      -3.258  52.171  36.288  1.00  0.00     0.002 C 
BRANCH  13  14
HETATM   14  C11 UNL     1      -1.860  52.622  35.934  1.00  0.00     0.000 C 
BRANCH  14  15
HETATM   15  C12 UNL     1      -1.910  53.790  34.976  1.00  0.00     0.000 C 
BRANCH  15  16
HETATM   16  C13 UNL     1      -2.006  55.051  35.871  1.00  0.00     0.002 C 
BRANCH  16  17
HETATM   17  C14 UNL     1      -2.792  56.105  35.206  1.00  0.00     0.026 C 
BRANCH  17  18
HETATM   18  C15 UNL     1      -4.223  56.156  35.569  1.00  0.00     0.167 C 
BRANCH  18  19
HETATM   19  O1  UNL     1      -5.139  55.297  35.173  1.00  0.00    -0.390 OA
BRANCH  19  20
HETATM   20  C16 UNL     1      -5.305  54.741  33.983  1.00  0.00     0.187 C 
BRANCH  20  21
HETATM   21  C17 UNL     1      -6.281  53.591  33.967  1.00  0.00     0.148 C 
BRANCH  21  22
HETATM   22  N7  UNL     1      -6.478  53.014  35.247  1.00  0.00    -0.366 N 
ATOM     23  H7  UNL     1      -5.688  53.078  35.889  1.00  0.00     0.161 HD
BRANCH  22  24
HETATM   24  C18 UNL     1      -7.613  52.370  35.741  1.00  0.00     0.348 C 
HETATM   25  O2  UNL     1      -8.612  52.063  35.069  1.00  0.00    -0.284 OA
ENDBRANCH  22  24
ENDBRANCH  21  22
ENDBRANCH  20  21
ENDBRANCH  19  20
ENDBRANCH  18  19
ENDBRANCH  17  18
ENDBRANCH  16  17
ENDBRANCH  15  16
ENDBRANCH  14  15
ENDBRANCH  13  14
ENDBRANCH  12  13
ENDBRANCH  11  12
ENDBRANCH   9  11
ENDBRANCH   6   9
BRANCH   1  26
HETATM   26  N4  UNL     1      -5.729  58.065  39.798  1.00  0.00    -0.224 N 
ATOM     27  H4  UNL     1      -6.499  58.226  40.447  1.00  0.00     0.177 HD
BRANCH  26  28
HETATM   28  C3  UNL     1      -5.512  59.028  38.777  1.00  0.00     0.157 C 
BRANCH  28  29
HETATM   29  C2  UNL     1      -6.515  60.170  39.016  1.00  0.00     0.142 C 
BRANCH  29  30
HETATM   30  N3  UNL     1      -5.925  61.257  39.762  1.00  0.00    -0.365 N 
HETATM   31  C1  UNL     1      -6.678  61.984  40.500  1.00  0.00     0.197 C 
HETATM   32  N1  UNL     1      -8.066  61.723  40.579  1.00  0.00    -0.067 NA
HETATM   33  N2  UNL     1      -6.100  63.067  41.244  1.00  0.00    -0.067 NA
ATOM     34  H3  UNL     1      -4.924  61.442  39.702  1.00  0.00     0.161 HD
ENDBRANCH  29  30
ENDBRANCH  28  29
ENDBRANCH  26  28
ENDBRANCH   1  26
TORSDOF 18
ENDMDL
MODEL 2
REMARK VINA RESULT: -6.155069244      2.214      3.531
REMARK  18 active torsions:
REMARK  status: ('A' for Active; 'I' for Inactive)
REMARK    1  A    between atoms: N3_4  and  C2_6 
REMARK    2  A    between atoms: C2_6  and  C3_7 
REMARK    3  A    between atoms: C3_7  and  N4_8 
REMARK    4  A    between atoms: N4_8  and  C4_10 
REMARK    5  A    between atoms: C7_15  and  N6_16 
REMARK    6  A    between atoms: N6_16  and  C8_18 
REMARK    7  A    between atoms: C8_18  and  C9_19 
REMARK    8  A    between atoms: C9_19  and  C10_20 
REMARK    9  A    between atoms: C10_20  and  C11_21 
REMARK   10  A    between atoms: C11_21  and  C12_22 
REMARK   11  A    between atoms: C12_22  and  C13_23 
REMARK   12  A    between atoms: C13_23  and  C14_24 
REMARK   13  A    between atoms: C14_24  and  C15_25 
REMARK   14  A    between atoms: C15_25  and  O1_26 
REMARK   15  A    between atoms: O1_26  and  C16_27 
REMARK   16  A    between atoms: C16_27  and  C17_28 
REMARK   17  A    between atoms: C17_28  and  N7_29 
REMARK   18  A    between atoms: N7_29  and  C18_31 
ROOT
HETATM    1  C4  UNL     1      -5.765  57.830  39.244  1.00  0.00     0.679 A 
HETATM    2  N5  UNL     1      -7.058  57.583  39.474  1.00  0.00    -0.202 N 
ATOM      3  H5  UNL     1      -7.686  58.347  39.721  1.00  0.00     0.183 HD
HETATM    4  C5  UNL     1      -7.538  56.315  39.377  1.00  0.00     0.110 A 
HETATM    5  C6  UNL     1      -6.664  55.301  39.040  1.00  0.00     0.066 A 
HETATM    6  C7  UNL     1      -5.327  55.529  38.800  1.00  0.00     0.118 A 
HETATM    7  N8  UNL     1      -4.917  56.804  38.911  1.00  0.00    -0.177 N 
ATOM      8  H8  UNL     1      -3.934  57.017  38.741  1.00  0.00     0.185 HD
ENDROOT
BRANCH   6   9
HETATM    9  N6  UNL     1      -4.459  54.637  38.482  1.00  0.00    -0.376 N 
ATOM     10  H6  UNL     1      -4.086  54.669  37.533  1.00  0.00     0.161 HD
BRANCH   9  11
HETATM   11  C8  UNL     1      -3.973  53.609  39.336  1.00  0.00     0.121 C 
BRANCH  11  12
HETATM   12  C9  UNL     1      -2.564  53.169  39.001  1.00  0.00     0.020 C 
BRANCH  12  13
HETATM   13  C10 UNL     1      -1.622  54.313  38.827  1.00  0.00     0.002 C 
BRANCH  13  14
HETATM   14  C11 UNL     1      -1.157  54.469  37.400  1.00  0.00     0.000 C 
BRANCH  14  15
HETATM   15  C12 UNL     1      -1.509  53.240  36.592  1.00  0.00     0.000 C 
BRANCH  15  16
HETATM   16  C13 UNL     1      -1.835  53.763  35.170  1.00  0.00     0.002 C 
BRANCH  16  17
HETATM   17  C14 UNL     1      -3.259  54.123  35.060  1.00  0.00     0.026 C 
BRANCH  17  18
HETATM   18  C15 UNL     1      -3.588  55.108  34.011  1.00  0.00     0.167 C 
BRANCH  18  19
HETATM   19  O1  UNL     1      -4.133  56.288  34.220  1.00  0.00    -0.390 OA
BRANCH  19  20
HETATM   20  C16 UNL     1      -4.237  56.974  35.348  1.00  0.00     0.187 C 
BRANCH  20  21
HETATM   21  C17 UNL     1      -3.262  58.119  35.470  1.00  0.00     0.148 C 
BRANCH  21  22
HETATM   22  N7  UNL     1      -2.020  57.732  36.032  1.00  0.00    -0.366 N 
ATOM     23  H7  UNL     1      -2.028  57.532  37.033  1.00  0.00     0.161 HD
BRANCH  22  24
HETATM   24  C18 UNL     1      -0.787  57.590  35.394  1.00  0.00     0.348 C 
HETATM   25  O2  UNL     1      -0.617  57.558  34.164  1.00  0.00    -0.284 OA
ENDBRANCH  22  24
ENDBRANCH  21  22
ENDBRANCH  20  21
ENDBRANCH  19  20
ENDBRANCH  18  19
ENDBRANCH  17  18
ENDBRANCH  16  17
ENDBRANCH  15  16
ENDBRANCH  14  15
ENDBRANCH  13  14
ENDBRANCH  12  13
ENDBRANCH  11  12
ENDBRANCH   9  11
ENDBRANCH   6   9
BRANCH   1  26
HETATM   26  N4  UNL     1      -5.262  59.007  39.322  1.00  0.00    -0.224 N 
ATOM     27  H4  UNL     1      -4.998  59.349  40.246  1.00  0.00     0.177 HD
BRANCH  26  28
HETATM   28  C3  UNL     1      -5.045  59.867  38.212  1.00  0.00     0.157 C 
BRANCH  28  29
HETATM   29  C2  UNL     1      -6.346  60.662  38.000  1.00  0.00     0.142 C 
BRANCH  29  30
HETATM   30  N3  UNL     1      -6.422  61.812  38.868  1.00  0.00    -0.365 N 
HETATM   31  C1  UNL     1      -7.194  61.770  39.888  1.00  0.00     0.197 C 
HETATM   32  N1  UNL     1      -7.960  60.611  40.155  1.00  0.00    -0.067 NA
HETATM   33  N2  UNL     1      -7.276  62.910  40.757  1.00  0.00    -0.067 NA
ATOM     34  H3  UNL     1      -5.868  62.646  38.672  1.00  0.00     0.161 HD
ENDBRANCH  29  30
ENDBRANCH  28  29
ENDBRANCH  26  28
ENDBRANCH   1  26
TORSDOF 18
ENDMDL
MODEL 3
REMARK VINA RESULT: -6.118946593      1.339      2.018
REMARK  18 active torsions:
REMARK  status: ('A' for Active; 'I' for Inactive)
REMARK    1  A    between atoms: N3_4  and  C2_6 
REMARK    2  A    between atoms: C2_6  and  C3_7 
REMARK    3  A    between atoms: C3_7  and  N4_8 
REMARK    4  A    between atoms: N4_8  and  C4_10 
REMARK    5  A    between atoms: C7_15  and  N6_16 
REMARK    6  A    between atoms: N6_16  and  C8_18 
REMARK    7  A    between atoms: C8_18  and  C9_19 
REMARK    8  A    between atoms: C9_19  and  C10_20 
REMARK    9  A    between atoms: C10_20  and  C11_21 
REMARK   10  A    between atoms: C11_21  and  C12_22 
REMARK   11  A    between atoms: C12_22  and  C13_23 
REMARK   12  A    between atoms: C13_23  and  C14_24 
REMARK   13  A    between atoms: C14_24  and  C15_25 
REMARK   14  A    between atoms: C15_25  and  O1_26 
REMARK   15  A    between atoms: O1_26  and  C16_27 
REMARK   16  A    between atoms: C16_27  and  C17_28 
REMARK   17  A    between atoms: C17_28  and  N7_29 
REMARK   18  A    between atoms: N7_29  and  C18_31 
ROOT
HETATM    1  C4  UNL     1      -5.771  57.982  39.251  1.00  0.00     0.679 A 
HETATM    2  N5  UNL     1      -6.978  57.843  39.806  1.00  0.00    -0.202 N 
ATOM      3  H5  UNL     1      -7.423  58.640  40.262  1.00  0.00     0.183 HD
HETATM    4  C5  UNL     1      -7.615  56.643  39.763  1.00  0.00     0.110 A 
HETATM    5  C6  UNL     1      -6.988  55.584  39.139  1.00  0.00     0.066 A 
HETATM    6  C7  UNL     1      -5.744  55.699  38.561  1.00  0.00     0.118 A 
HETATM    7  N8  UNL     1      -5.169  56.912  38.637  1.00  0.00    -0.177 N 
ATOM      8  H8  UNL     1      -4.247  57.042  38.221  1.00  0.00     0.185 HD
ENDROOT
BRANCH   6   9
HETATM    9  N6  UNL     1      -5.103  54.760  37.964  1.00  0.00    -0.376 N 
ATOM     10  H6  UNL     1      -4.557  55.018  37.143  1.00  0.00     0.161 HD
BRANCH   9  11
HETATM   11  C8  UNL     1      -5.089  53.390  38.348  1.00  0.00     0.121 C 
BRANCH  11  12
HETATM   12  C9  UNL     1      -3.699  52.862  38.630  1.00  0.00     0.020 C 
BRANCH  12  13
HETATM   13  C10 UNL     1      -2.980  53.644  39.678  1.00  0.00     0.002 C 
BRANCH  13  14
HETATM   14  C11 UNL     1      -1.892  54.520  39.104  1.00  0.00     0.000 C 
BRANCH  14  15
HETATM   15  C12 UNL     1      -1.116  53.770  38.044  1.00  0.00     0.000 C 
BRANCH  15  16
HETATM   16  C13 UNL     1      -1.261  54.615  36.754  1.00  0.00     0.002 C 
BRANCH  16  17
HETATM   17  C14 UNL     1      -1.858  53.815  35.670  1.00  0.00     0.026 C 
BRANCH  17  18
HETATM   18  C15 UNL     1      -2.871  54.510  34.850  1.00  0.00     0.167 C 
BRANCH  18  19
HETATM   19  O1  UNL     1      -4.164  54.530  35.095  1.00  0.00    -0.390 OA
BRANCH  19  20
HETATM   20  C16 UNL     1      -5.155  54.952  34.324  1.00  0.00     0.187 C 
BRANCH  20  21
HETATM   21  C17 UNL     1      -6.144  53.879  33.942  1.00  0.00     0.148 C 
BRANCH  21  22
HETATM   22  N7  UNL     1      -6.337  52.915  34.963  1.00  0.00    -0.366 N 
ATOM     23  H7  UNL     1      -5.500  52.419  35.270  1.00  0.00     0.161 HD
BRANCH  22  24
HETATM   24  C18 UNL     1      -7.524  52.556  35.602  1.00  0.00     0.348 C 
HETATM   25  O2  UNL     1      -8.492  52.000  35.055  1.00  0.00    -0.284 OA
ENDBRANCH  22  24
ENDBRANCH  21  22
ENDBRANCH  20  21
ENDBRANCH  19  20
ENDBRANCH  18  19
ENDBRANCH  17  18
ENDBRANCH  16  17
ENDBRANCH  15  16
ENDBRANCH  14  15
ENDBRANCH  13  14
ENDBRANCH  12  13
ENDBRANCH  11  12
ENDBRANCH   9  11
ENDBRANCH   6   9
BRANCH   1  26
HETATM   26  N4  UNL     1      -5.127  59.091  39.264  1.00  0.00    -0.224 N 
ATOM     27  H4  UNL     1      -4.634  59.342  40.120  1.00  0.00     0.177 HD
BRANCH  26  28
HETATM   28  C3  UNL     1      -5.052  59.992  38.169  1.00  0.00     0.157 C 
BRANCH  28  29
HETATM   29  C2  UNL     1      -6.421  60.688  38.066  1.00  0.00     0.142 C 
BRANCH  29  30
HETATM   30  N3  UNL     1      -6.490  61.866  38.897  1.00  0.00    -0.365 N 
HETATM   31  C1  UNL     1      -7.247  61.855  39.929  1.00  0.00     0.197 C 
HETATM   32  N1  UNL     1      -8.004  60.702  40.245  1.00  0.00    -0.067 NA
HETATM   33  N2  UNL     1      -7.322  63.023  40.761  1.00  0.00    -0.067 NA
ATOM     34  H3  UNL     1      -5.943  62.696  38.665  1.00  0.00     0.161 HD
ENDBRANCH  29  30
ENDBRANCH  28  29
ENDBRANCH  26  28
ENDBRANCH   1  26
TORSDOF 18
ENDMDL
MODEL 4
REMARK VINA RESULT: -5.953788129      2.402      2.789
REMARK  18 active torsions:
REMARK  status: ('A' for Active; 'I' for Inactive)
REMARK    1  A    between atoms: N3_4  and  C2_6 
REMARK    2  A    between atoms: C2_6  and  C3_7 
REMARK    3  A    between atoms: C3_7  and  N4_8 
REMARK    4  A    between atoms: N4_8  and  C4_10 
REMARK    5  A    between atoms: C7_15  and  N6_16 
REMARK    6  A    between atoms: N6_16  and  C8_18 
REMARK    7  A    between atoms: C8_18  and  C9_19 
REMARK    8  A    between atoms: C9_19  and  C10_20 
REMARK    9  A    between atoms: C10_20  and  C11_21 
REMARK   10  A    between atoms: C11_21  and  C12_22 
REMARK   11  A    between atoms: C12_22  and  C13_23 
REMARK   12  A    between atoms: C13_23  and  C14_24 
REMARK   13  A    between atoms: C14_24  and  C15_25 
REMARK   14  A    between atoms: C15_25  and  O1_26 
REMARK   15  A    between atoms: O1_26  and  C16_27 
REMARK   16  A    between atoms: C16_27  and  C17_28 
REMARK   17  A    between atoms: C17_28  and  N7_29 
REMARK   18  A    between atoms: N7_29  and  C18_31 
ROOT
HETATM    1  C4  UNL     1      -5.725  57.813  39.137  1.00  0.00     0.679 A 
HETATM    2  N5  UNL     1      -6.886  57.441  39.686  1.00  0.00    -0.202 N 
ATOM      3  H5  UNL     1      -7.419  58.105  40.247  1.00  0.00     0.183 HD
HETATM    4  C5  UNL     1      -7.357  56.180  39.497  1.00  0.00     0.110 A 
HETATM    5  C6  UNL     1      -6.613  55.304  38.733  1.00  0.00     0.066 A 
HETATM    6  C7  UNL     1      -5.414  55.661  38.157  1.00  0.00     0.118 A 
HETATM    7  N8  UNL     1      -5.005  56.921  38.381  1.00  0.00    -0.177 N 
ATOM      8  H8  UNL     1      -4.122  57.228  37.973  1.00  0.00     0.185 HD
ENDROOT
BRANCH   6   9
HETATM    9  N6  UNL     1      -4.672  54.901  37.436  1.00  0.00    -0.376 N 
ATOM     10  H6  UNL     1      -3.663  54.979  37.564  1.00  0.00     0.161 HD
BRANCH   9  11
HETATM   11  C8  UNL     1      -5.133  53.958  36.475  1.00  0.00     0.121 C 
BRANCH  11  12
HETATM   12  C9  UNL     1      -4.174  52.809  36.256  1.00  0.00     0.020 C 
BRANCH  12  13
HETATM   13  C10 UNL     1      -2.748  53.191  36.473  1.00  0.00     0.002 C 
BRANCH  13  14
HETATM   14  C11 UNL     1      -2.009  53.431  35.178  1.00  0.00     0.000 C 
BRANCH  14  15
HETATM   15  C12 UNL     1      -2.057  54.897  34.808  1.00  0.00     0.000 C 
BRANCH  15  16
HETATM   16  C13 UNL     1      -2.280  54.926  33.276  1.00  0.00     0.002 C 
BRANCH  16  17
HETATM   17  C14 UNL     1      -3.715  55.026  32.959  1.00  0.00     0.026 C 
BRANCH  17  18
HETATM   18  C15 UNL     1      -4.039  55.658  31.664  1.00  0.00     0.167 C 
BRANCH  18  19
HETATM   19  O1  UNL     1      -4.859  56.674  31.498  1.00  0.00    -0.390 OA
BRANCH  19  20
HETATM   20  C16 UNL     1      -5.956  56.982  32.173  1.00  0.00     0.187 C 
BRANCH  20  21
HETATM   21  C17 UNL     1      -7.107  56.031  31.953  1.00  0.00     0.148 C 
BRANCH  21  22
HETATM   22  N7  UNL     1      -8.316  56.691  31.619  1.00  0.00    -0.366 N 
ATOM     23  H7  UNL     1      -8.342  57.131  30.699  1.00  0.00     0.161 HD
BRANCH  22  24
HETATM   24  C18 UNL     1      -9.474  56.818  32.387  1.00  0.00     0.348 C 
HETATM   25  O2  UNL     1      -9.927  55.947  33.149  1.00  0.00    -0.284 OA
ENDBRANCH  22  24
ENDBRANCH  21  22
ENDBRANCH  20  21
ENDBRANCH  19  20
ENDBRANCH  18  19
ENDBRANCH  17  18
ENDBRANCH  16  17
ENDBRANCH  15  16
ENDBRANCH  14  15
ENDBRANCH  13  14
ENDBRANCH  12  13
ENDBRANCH  11  12
ENDBRANCH   9  11
ENDBRANCH   6   9
BRANCH   1  26
HETATM   26  N4  UNL     1      -5.236  58.989  39.283  1.00  0.00    -0.224 N 
ATOM     27  H4  UNL     1      -5.000  59.289  40.229  1.00  0.00     0.177 HD
BRANCH  26  28
HETATM   28  C3  UNL     1      -5.000  59.902  38.222  1.00  0.00     0.157 C 
BRANCH  28  29
HETATM   29  C2  UNL     1      -6.316  60.662  37.982  1.00  0.00     0.142 C 
BRANCH  29  30
HETATM   30  N3  UNL     1      -6.457  61.790  38.872  1.00  0.00    -0.365 N 
HETATM   31  C1  UNL     1      -7.242  61.692  39.878  1.00  0.00     0.197 C 
HETATM   32  N1  UNL     1      -7.960  60.495  40.110  1.00  0.00    -0.067 NA
HETATM   33  N2  UNL     1      -7.389  62.809  40.768  1.00  0.00    -0.067 NA
ATOM     34  H3  UNL     1      -5.939  62.652  38.701  1.00  0.00     0.161 HD
ENDBRANCH  29  30
ENDBRANCH  28  29
ENDBRANCH  26  28
ENDBRANCH   1  26
TORSDOF 18
ENDMDL
MODEL 5
REMARK VINA RESULT: -5.948290869      2.353      4.058
REMARK  18 active torsions:
REMARK  status: ('A' for Active; 'I' for Inactive)
REMARK    1  A    between atoms: N3_4  and  C2_6 
REMARK    2  A    between atoms: C2_6  and  C3_7 
REMARK    3  A    between atoms: C3_7  and  N4_8 
REMARK    4  A    between atoms: N4_8  and  C4_10 
REMARK    5  A    between atoms: C7_15  and  N6_16 
REMARK    6  A    between atoms: N6_16  and  C8_18 
REMARK    7  A    between atoms: C8_18  and  C9_19 
REMARK    8  A    between atoms: C9_19  and  C10_20 
REMARK    9  A    between atoms: C10_20  and  C11_21 
REMARK   10  A    between atoms: C11_21  and  C12_22 
REMARK   11  A    between atoms: C12_22  and  C13_23 
REMARK   12  A    between atoms: C13_23  and  C14_24 
REMARK   13  A    between atoms: C14_24  and  C15_25 
REMARK   14  A    between atoms: C15_25  and  O1_26 
REMARK   15  A    between atoms: O1_26  and  C16_27 
REMARK   16  A    between atoms: C16_27  and  C17_28 
REMARK   17  A    between atoms: C17_28  and  N7_29 
REMARK   18  A    between atoms: N7_29  and  C18_31 
ROOT
HETATM    1  C4  UNL     1      -6.510  57.860  39.736  1.00  0.00     0.679 A 
HETATM    2  N5  UNL     1      -7.611  57.131  39.535  1.00  0.00    -0.202 N 
ATOM      3  H5  UNL     1      -8.531  57.552  39.666  1.00  0.00     0.183 HD
HETATM    4  C5  UNL     1      -7.509  55.829  39.156  1.00  0.00     0.110 A 
HETATM    5  C6  UNL     1      -6.251  55.287  38.987  1.00  0.00     0.066 A 
HETATM    6  C7  UNL     1      -5.100  56.016  39.187  1.00  0.00     0.118 A 
HETATM    7  N8  UNL     1      -5.270  57.296  39.560  1.00  0.00    -0.177 N 
ATOM      8  H8  UNL     1      -4.444  57.872  39.720  1.00  0.00     0.185 HD
ENDROOT
BRANCH   6   9
HETATM    9  N6  UNL     1      -3.901  55.578  39.048  1.00  0.00    -0.376 N 
ATOM     10  H6  UNL     1      -3.405  55.844  38.197  1.00  0.00     0.161 HD
BRANCH   9  11
HETATM   11  C8  UNL     1      -3.202  54.756  39.975  1.00  0.00     0.121 C 
BRANCH  11  12
HETATM   12  C9  UNL     1      -2.591  53.526  39.342  1.00  0.00     0.020 C 
BRANCH  12  13
HETATM   13  C10 UNL     1      -1.274  53.797  38.695  1.00  0.00     0.002 C 
BRANCH  13  14
HETATM   14  C11 UNL     1      -1.250  53.401  37.238  1.00  0.00     0.000 C 
BRANCH  14  15
HETATM   15  C12 UNL     1      -1.580  54.589  36.363  1.00  0.00     0.000 C 
BRANCH  15  16
HETATM   16  C13 UNL     1      -2.397  54.013  35.180  1.00  0.00     0.002 C 
BRANCH  16  17
HETATM   17  C14 UNL     1      -3.710  53.527  35.639  1.00  0.00     0.026 C 
BRANCH  17  18
HETATM   18  C15 UNL     1      -4.791  54.533  35.654  1.00  0.00     0.167 C 
BRANCH  18  19
HETATM   19  O1  UNL     1      -4.738  55.716  35.080  1.00  0.00    -0.390 OA
BRANCH  19  20
HETATM   20  C16 UNL     1      -4.526  56.903  35.629  1.00  0.00     0.187 C 
BRANCH  20  21
HETATM   21  C17 UNL     1      -3.424  57.700  34.976  1.00  0.00     0.148 C 
BRANCH  21  22
HETATM   22  N7  UNL     1      -2.497  58.229  35.909  1.00  0.00    -0.366 N 
ATOM     23  H7  UNL     1      -2.789  58.209  36.887  1.00  0.00     0.161 HD
BRANCH  22  24
HETATM   24  C18 UNL     1      -1.237  58.775  35.663  1.00  0.00     0.348 C 
HETATM   25  O2  UNL     1      -0.165  58.148  35.701  1.00  0.00    -0.284 OA
ENDBRANCH  22  24
ENDBRANCH  21  22
ENDBRANCH  20  21
ENDBRANCH  19  20
ENDBRANCH  18  19
ENDBRANCH  17  18
ENDBRANCH  16  17
ENDBRANCH  15  16
ENDBRANCH  14  15
ENDBRANCH  13  14
ENDBRANCH  12  13
ENDBRANCH  11  12
ENDBRANCH   9  11
ENDBRANCH   6   9
BRANCH   1  26
HETATM   26  N4  UNL     1      -6.550  59.090  40.094  1.00  0.00    -0.224 N 
ATOM     27  H4  UNL     1      -5.859  59.408  40.773  1.00  0.00     0.177 HD
BRANCH  26  28
HETATM   28  C3  UNL     1      -7.488  60.041  39.610  1.00  0.00     0.157 C 
BRANCH  28  29
HETATM   29  C2  UNL     1      -6.681  61.174  38.952  1.00  0.00     0.142 C 
BRANCH  29  30
HETATM   30  N3  UNL     1      -6.732  61.104  37.511  1.00  0.00    -0.365 N 
HETATM   31  C1  UNL     1      -5.777  60.530  36.882  1.00  0.00     0.197 C 
HETATM   32  N1  UNL     1      -4.688  59.973  37.594  1.00  0.00    -0.067 NA
HETATM   33  N2  UNL     1      -5.819  60.457  35.449  1.00  0.00    -0.067 NA
ATOM     34  H3  UNL     1      -7.519  61.507  37.001  1.00  0.00     0.161 HD
ENDBRANCH  29  30
ENDBRANCH  28  29
ENDBRANCH  26  28
ENDBRANCH   1  26
TORSDOF 18
ENDMDL
