MODEL 1
REMARK VINA RESULT: -6.782952317      0.000      0.000
REMARK  16 active torsions:
REMARK  status: ('A' for Active; 'I' for Inactive)
REMARK    1  A    between atoms: N1_1  and  C1_5 
REMARK    2  A    between atoms: C1_5  and  C2_6 
REMARK    3  A    between atoms: C2_6  and  N2_7 
REMARK    4  A    between atoms: N2_7  and  C3_8 
REMARK       I    between atoms: N2_7  and  C13_22 
REMARK    5  A    between atoms: C3_8  and  C4_9 
REMARK    6  A    between atoms: C4_9  and  O1_10 
REMARK    7  A    between atoms: O1_10  and  C5_11 
REMARK    8  A    between atoms: C5_11  and  C6_12 
REMARK    9  A    between atoms: C6_12  and  O2_13 
REMARK   10  A    between atoms: O2_13  and  C7_14 
REMARK   11  A    between atoms: C7_14  and  C8_15 
REMARK   12  A    between atoms: C8_15  and  C9_16 
REMARK   13  A    between atoms: N5_24  and  C14_26 
REMARK   14  A    between atoms: C14_26  and  C15_27 
REMARK   15  A    between atoms: C15_27  and  C16_28 
REMARK   16  A    between atoms: C16_28  and  N6_29 
REMARK       I    between atoms: N6_29  and  C17_31 
ROOT
HETATM    1  N2  UNL     1      -4.944  55.038  38.739  1.00  0.00    -0.352 N 
HETATM    2  C13 UNL     1      -4.960  56.264  39.486  1.00  0.00     0.186 C 
HETATM    3  N4  UNL     1      -4.668  56.283  40.882  1.00  0.00    -0.064 NA
HETATM    4  N5  UNL     1      -5.256  57.311  38.798  1.00  0.00    -0.364 N 
ATOM      5  H5  UNL     1      -5.444  57.163  37.807  1.00  0.00     0.162 HD
ENDROOT
BRANCH   1   6
HETATM    6  C2  UNL     1      -3.667  54.531  38.325  1.00  0.00     0.152 C 
BRANCH   6   7
HETATM    7  C1  UNL     1      -3.226  55.053  36.985  1.00  0.00     0.249 C 
BRANCH   7   8
HETATM    8  N1  UNL     1      -1.861  55.538  37.063  1.00  0.00    -0.078 N 
ATOM      9  H13 UNL     1      -1.608  55.818  38.011  1.00  0.00     0.274 HD
ATOM     10  H12 UNL     1      -1.182  54.787  36.942  1.00  0.00     0.274 HD
ATOM     11  H11 UNL     1      -1.717  56.293  36.392  1.00  0.00     0.274 HD
ENDBRANCH   7   8
ENDBRANCH   6   7
ENDBRANCH   1   6
BRANCH   1  12
HETATM   12  C3  UNL     1      -6.201  54.419  38.461  1.00  0.00     0.151 C 
BRANCH  12  13
HETATM   13  C4  UNL     1      -6.076  52.892  38.394  1.00  0.00     0.187 C 
BRANCH  13  14
HETATM   14  O1  UNL     1      -7.173  52.434  37.733  1.00  0.00    -0.387 OA
BRANCH  14  15
HETATM   15  C5  UNL     1      -7.040  52.571  36.332  1.00  0.00     0.193 C 
BRANCH  15  16
HETATM   16  C6  UNL     1      -8.283  52.259  35.577  1.00  0.00     0.193 C 
BRANCH  16  17
HETATM   17  O2  UNL     1      -9.230  53.173  35.428  1.00  0.00    -0.389 OA
BRANCH  17  18
HETATM   18  C7  UNL     1     -10.441  53.118  35.946  1.00  0.00     0.172 C 
BRANCH  18  19
HETATM   19  C8  UNL     1     -11.356  54.278  35.912  1.00  0.00     0.066 C 
BRANCH  19  20
HETATM   20  C9  UNL     1     -11.768  54.737  37.278  1.00  0.00    -0.040 A 
HETATM   21  C10 UNL     1     -13.087  54.738  37.755  1.00  0.00     0.025 A 
HETATM   22  C11 UNL     1     -13.124  55.210  39.050  1.00  0.00     0.088 A 
HETATM   23  N3  UNL     1     -11.852  55.500  39.377  1.00  0.00    -0.375 N 
HETATM   24  C12 UNL     1     -11.038  55.220  38.325  1.00  0.00     0.094 A 
ATOM     25  H3  UNL     1     -11.546  55.871  40.277  1.00  0.00     0.164 HD
ENDBRANCH  19  20
ENDBRANCH  18  19
ENDBRANCH  17  18
ENDBRANCH  16  17
ENDBRANCH  15  16
ENDBRANCH  14  15
ENDBRANCH  13  14
ENDBRANCH  12  13
ENDBRANCH   1  12
BRANCH   4  26
HETATM   26  C14 UNL     1      -5.349  58.652  39.265  1.00  0.00     0.123 C 
BRANCH  26  27
HETATM   27  C15 UNL     1      -6.841  59.020  39.328  1.00  0.00     0.039 C 
BRANCH  27  28
HETATM   28  C16 UNL     1      -6.964  60.365  38.679  1.00  0.00     0.125 C 
BRANCH  28  29
HETATM   29  N6  UNL     1      -6.259  61.344  39.469  1.00  0.00    -0.345 N 
HETATM   30  C17 UNL     1      -6.962  62.104  40.437  1.00  0.00     0.328 C 
HETATM   31  N7  UNL     1      -6.217  63.057  41.177  1.00  0.00    -0.040 NA
HETATM   32  O3  UNL     1      -8.190  61.991  40.677  1.00  0.00    -0.251 OA
ATOM     33  H6  UNL     1      -5.259  61.489  39.331  1.00  0.00     0.163 HD
ENDBRANCH  28  29
ENDBRANCH  27  28
ENDBRANCH  26  27
ENDBRANCH   4  26
TORSDOF 16
ENDMDL
MODEL 2
REMARK VINA RESULT: -6.529475648      3.188      7.829
REMARK  16 active torsions:
REMARK  status: ('A' for Active; 'I' for Inactive)
REMARK    1  A    between atoms: N1_1  and  C1_5 
REMARK    2  A    between atoms: C1_5  and  C2_6 
REMARK    3  A    between atoms: C2_6  and  N2_7 
REMARK    4  A    between atoms: N2_7  and  C3_8 
REMARK       I    between atoms: N2_7  and  C13_22 
REMARK    5  A    between atoms: C3_8  and  C4_9 
REMARK    6  A    between atoms: C4_9  and  O1_10 
REMARK    7  A    between atoms: O1_10  and  C5_11 
REMARK    8  A    between atoms: C5_11  and  C6_12 
REMARK    9  A    between atoms: C6_12  and  O2_13 
REMARK   10  A    between atoms: O2_13  and  C7_14 
REMARK   11  A    between atoms: C7_14  and  C8_15 
REMARK   12  A    between atoms: C8_15  and  C9_16 
REMARK   13  A    between atoms: N5_24  and  C14_26 
REMARK   14  A    between atoms: C14_26  and  C15_27 
REMARK   15  A    between atoms: C15_27  and  C16_28 
REMARK   16  A    between atoms: C16_28  and  N6_29 
REMARK       I    between atoms: N6_29  and  C17_31 
ROOT
HETATM    1  N2  UNL     1      -6.034  54.991  38.730  1.00  0.00    -0.352 N 
HETATM    2  C13 UNL     1      -6.340  53.630  38.392  1.00  0.00     0.186 C 
HETATM    3  N4  UNL     1      -6.499  52.636  39.403  1.00  0.00    -0.064 NA
HETATM    4  N5  UNL     1      -6.451  53.398  37.131  1.00  0.00    -0.364 N 
ATOM      5  H5  UNL     1      -6.313  54.196  36.511  1.00  0.00     0.162 HD
ENDROOT
BRANCH   1   6
HETATM    6  C2  UNL     1      -7.117  55.824  39.167  1.00  0.00     0.152 C 
BRANCH   6   7
HETATM    7  C1  UNL     1      -6.696  57.237  39.467  1.00  0.00     0.249 C 
BRANCH   7   8
HETATM    8  N1  UNL     1      -7.015  57.574  40.842  1.00  0.00    -0.078 N 
ATOM      9  H13 UNL     1      -6.934  58.575  41.018  1.00  0.00     0.274 HD
ATOM     10  H12 UNL     1      -8.010  57.466  41.040  1.00  0.00     0.274 HD
ATOM     11  H11 UNL     1      -6.438  57.026  41.480  1.00  0.00     0.274 HD
ENDBRANCH   7   8
ENDBRANCH   6   7
ENDBRANCH   1   6
BRANCH   1  12
HETATM   12  C3  UNL     1      -4.676  55.413  38.601  1.00  0.00     0.151 C 
BRANCH  12  13
HETATM   13  C4  UNL     1      -3.838  55.003  39.818  1.00  0.00     0.187 C 
BRANCH  13  14
HETATM   14  O1  UNL     1      -2.787  54.278  39.349  1.00  0.00    -0.387 OA
BRANCH  14  15
HETATM   15  C5  UNL     1      -2.872  52.919  39.728  1.00  0.00     0.193 C 
BRANCH  15  16
HETATM   16  C6  UNL     1      -2.772  51.970  38.588  1.00  0.00     0.193 C 
BRANCH  16  17
HETATM   17  O2  UNL     1      -3.507  52.139  37.500  1.00  0.00    -0.389 OA
BRANCH  17  18
HETATM   18  C7  UNL     1      -3.043  52.350  36.283  1.00  0.00     0.172 C 
BRANCH  18  19
HETATM   19  C8  UNL     1      -1.687  52.886  36.048  1.00  0.00     0.066 C 
BRANCH  19  20
HETATM   20  C9  UNL     1      -1.667  54.378  35.899  1.00  0.00    -0.040 A 
HETATM   21  C10 UNL     1      -2.170  55.075  34.791  1.00  0.00     0.025 A 
HETATM   22  C11 UNL     1      -2.008  56.432  34.969  1.00  0.00     0.088 A 
HETATM   23  N3  UNL     1      -1.415  56.583  36.167  1.00  0.00    -0.375 N 
HETATM   24  C12 UNL     1      -1.209  55.361  36.727  1.00  0.00     0.094 A 
ATOM     25  H3  UNL     1      -1.161  57.475  36.589  1.00  0.00     0.164 HD
ENDBRANCH  19  20
ENDBRANCH  18  19
ENDBRANCH  17  18
ENDBRANCH  16  17
ENDBRANCH  15  16
ENDBRANCH  14  15
ENDBRANCH  13  14
ENDBRANCH  12  13
ENDBRANCH   1  12
BRANCH   4  26
HETATM   26  C14 UNL     1      -6.745  52.154  36.505  1.00  0.00     0.123 C 
BRANCH  26  27
HETATM   27  C15 UNL     1      -7.747  52.431  35.371  1.00  0.00     0.039 C 
BRANCH  27  28
HETATM   28  C16 UNL     1      -9.108  52.215  35.960  1.00  0.00     0.125 C 
BRANCH  28  29
HETATM   29  N6  UNL     1      -9.969  53.311  35.591  1.00  0.00    -0.345 N 
HETATM   30  C17 UNL     1     -11.180  53.522  36.298  1.00  0.00     0.328 C 
HETATM   31  N7  UNL     1     -11.989  54.611  35.884  1.00  0.00    -0.040 NA
HETATM   32  O3  UNL     1     -11.580  52.813  37.254  1.00  0.00    -0.251 OA
ATOM     33  H6  UNL     1      -9.708  53.932  34.826  1.00  0.00     0.163 HD
ENDBRANCH  28  29
ENDBRANCH  27  28
ENDBRANCH  26  27
ENDBRANCH   4  26
TORSDOF 16
ENDMDL
MODEL 3
REMARK VINA RESULT: -6.421362657      1.427      1.906
REMARK  16 active torsions:
REMARK  status: ('A' for Active; 'I' for Inactive)
REMARK    1  A    between atoms: N1_1  and  C1_5 
REMARK    2  A    between atoms: C1_5  and  C2_6 
REMARK    3  A    between atoms: C2_6  and  N2_7 
REMARK    4  A    between atoms: N2_7  and  C3_8 
REMARK       I    between atoms: N2_7  and  C13_22 
REMARK    5  A    between atoms: C3_8  and  C4_9 
REMARK    6  A    between atoms: C4_9  and  O1_10 
REMARK    7  A    between atoms: O1_10  and  C5_11 
REMARK    8  A    between atoms: C5_11  and  C6_12 
REMARK    9  A    between atoms: C6_12  and  O2_13 
REMARK   10  A    between atoms: O2_13  and  C7_14 
REMARK   11  A    between atoms: C7_14  and  C8_15 
REMARK   12  A    between atoms: C8_15  and  C9_16 
REMARK   13  A    between atoms: N5_24  and  C14_26 
REMARK   14  A    between atoms: C14_26  and  C15_27 
REMARK   15  A    between atoms: C15_27  and  C16_28 
REMARK   16  A    between atoms: C16_28  and  N6_29 
REMARK       I    between atoms: N6_29  and  C17_31 
ROOT
HETATM    1  N2  UNL     1      -4.077  54.123  37.091  1.00  0.00    -0.352 N 
HETATM    2  C13 UNL     1      -4.700  54.507  38.325  1.00  0.00     0.186 C 
HETATM    3  N4  UNL     1      -5.340  53.543  39.160  1.00  0.00    -0.064 NA
HETATM    4  N5  UNL     1      -4.631  55.762  38.598  1.00  0.00    -0.364 N 
ATOM      5  H5  UNL     1      -4.145  56.347  37.918  1.00  0.00     0.162 HD
ENDROOT
BRANCH   1   6
HETATM    6  C2  UNL     1      -2.768  53.539  37.162  1.00  0.00     0.152 C 
BRANCH   6   7
HETATM    7  C1  UNL     1      -1.662  54.525  36.907  1.00  0.00     0.249 C 
BRANCH   7   8
HETATM    8  N1  UNL     1      -1.110  54.995  38.164  1.00  0.00    -0.078 N 
ATOM      9  H13 UNL     1      -1.615  55.806  38.523  1.00  0.00     0.274 HD
ATOM     10  H12 UNL     1      -1.302  54.348  38.929  1.00  0.00     0.274 HD
ATOM     11  H11 UNL     1      -0.112  55.181  38.063  1.00  0.00     0.274 HD
ENDBRANCH   7   8
ENDBRANCH   6   7
ENDBRANCH   1   6
BRANCH   1  12
HETATM   12  C3  UNL     1      -4.805  54.358  35.884  1.00  0.00     0.151 C 
BRANCH  12  13
HETATM   13  C4  UNL     1      -5.602  53.120  35.455  1.00  0.00     0.187 C 
BRANCH  13  14
HETATM   14  O1  UNL     1      -6.907  53.370  35.744  1.00  0.00    -0.387 OA
BRANCH  14  15
HETATM   15  C5  UNL     1      -7.658  52.179  35.869  1.00  0.00     0.193 C 
BRANCH  15  16
HETATM   16  C6  UNL     1      -9.130  52.393  35.863  1.00  0.00     0.193 C 
BRANCH  16  17
HETATM   17  O2  UNL     1      -9.648  53.511  35.380  1.00  0.00    -0.389 OA
BRANCH  17  18
HETATM   18  C7  UNL     1     -10.927  53.723  35.135  1.00  0.00     0.172 C 
BRANCH  18  19
HETATM   19  C8  UNL     1     -11.670  54.826  35.779  1.00  0.00     0.066 C 
BRANCH  19  20
HETATM   20  C9  UNL     1     -11.913  54.591  37.240  1.00  0.00    -0.040 A 
HETATM   21  C10 UNL     1     -12.798  53.633  37.757  1.00  0.00     0.025 A 
HETATM   22  C11 UNL     1     -12.781  53.665  39.135  1.00  0.00     0.088 A 
HETATM   23  N3  UNL     1     -11.902  54.625  39.475  1.00  0.00    -0.375 N 
HETATM   24  C12 UNL     1     -11.380  55.181  38.349  1.00  0.00     0.094 A 
ATOM     25  H3  UNL     1     -11.664  54.893  40.429  1.00  0.00     0.164 HD
ENDBRANCH  19  20
ENDBRANCH  18  19
ENDBRANCH  17  18
ENDBRANCH  16  17
ENDBRANCH  15  16
ENDBRANCH  14  15
ENDBRANCH  13  14
ENDBRANCH  12  13
ENDBRANCH   1  12
BRANCH   4  26
HETATM   26  C14 UNL     1      -5.155  56.427  39.743  1.00  0.00     0.123 C 
BRANCH  26  27
HETATM   27  C15 UNL     1      -6.622  56.778  39.444  1.00  0.00     0.039 C 
BRANCH  27  28
HETATM   28  C16 UNL     1      -6.960  57.937  40.332  1.00  0.00     0.125 C 
BRANCH  28  29
HETATM   29  N6  UNL     1      -6.395  59.144  39.781  1.00  0.00    -0.345 N 
HETATM   30  C17 UNL     1      -7.169  60.331  39.749  1.00  0.00     0.328 C 
HETATM   31  N7  UNL     1      -6.562  61.484  39.188  1.00  0.00    -0.040 NA
HETATM   32  O3  UNL     1      -8.345  60.427  40.178  1.00  0.00    -0.251 OA
ATOM     33  H6  UNL     1      -5.442  59.143  39.417  1.00  0.00     0.163 HD
ENDBRANCH  28  29
ENDBRANCH  27  28
ENDBRANCH  26  27
ENDBRANCH   4  26
TORSDOF 16
ENDMDL
MODEL 4
REMARK VINA RESULT: -6.397072076      2.609      3.234
REMARK  16 active torsions:
REMARK  status: ('A' for Active; 'I' for Inactive)
REMARK    1  A    between atoms: N1_1  and  C1_5 
REMARK    2  A    between atoms: C1_5  and  C2_6 
REMARK    3  A    between atoms: C2_6  and  N2_7 
REMARK    4  A    between atoms: N2_7  and  C3_8 
REMARK       I    between atoms: N2_7  and  C13_22 
REMARK    5  A    between atoms: C3_8  and  C4_9 
REMARK    6  A    between atoms: C4_9  and  O1_10 
REMARK    7  A    between atoms: O1_10  and  C5_11 
REMARK    8  A    between atoms: C5_11  and  C6_12 
REMARK    9  A    between atoms: C6_12  and  O2_13 
REMARK   10  A    between atoms: O2_13  and  C7_14 
REMARK   11  A    between atoms: C7_14  and  C8_15 
REMARK   12  A    between atoms: C8_15  and  C9_16 
REMARK   13  A    between atoms: N5_24  and  C14_26 
REMARK   14  A    between atoms: C14_26  and  C15_27 
REMARK   15  A    between atoms: C15_27  and  C16_28 
REMARK   16  A    between atoms: C16_28  and  N6_29 
REMARK       I    between atoms: N6_29  and  C17_31 
ROOT
HETATM    1  N2  UNL     1      -4.691  55.010  38.921  1.00  0.00    -0.352 N 
HETATM    2  C13 UNL     1      -5.510  56.168  39.142  1.00  0.00     0.186 C 
HETATM    3  N4  UNL     1      -6.590  56.143  40.073  1.00  0.00    -0.064 NA
HETATM    4  N5  UNL     1      -5.188  57.199  38.441  1.00  0.00    -0.364 N 
ATOM      5  H5  UNL     1      -4.393  57.087  37.811  1.00  0.00     0.162 HD
ENDROOT
BRANCH   1   6
HETATM    6  C2  UNL     1      -3.660  54.734  39.879  1.00  0.00     0.152 C 
BRANCH   6   7
HETATM    7  C1  UNL     1      -2.515  53.943  39.309  1.00  0.00     0.249 C 
BRANCH   7   8
HETATM    8  N1  UNL     1      -1.480  54.839  38.825  1.00  0.00    -0.078 N 
ATOM      9  H13 UNL     1      -1.865  55.595  38.259  1.00  0.00     0.274 HD
ATOM     10  H12 UNL     1      -1.081  55.402  39.577  1.00  0.00     0.274 HD
ATOM     11  H11 UNL     1      -0.766  54.312  38.323  1.00  0.00     0.274 HD
ENDBRANCH   7   8
ENDBRANCH   6   7
ENDBRANCH   1   6
BRANCH   1  12
HETATM   12  C3  UNL     1      -4.963  54.223  37.760  1.00  0.00     0.151 C 
BRANCH  12  13
HETATM   13  C4  UNL     1      -6.009  53.138  38.045  1.00  0.00     0.187 C 
BRANCH  13  14
HETATM   14  O1  UNL     1      -7.078  53.400  37.246  1.00  0.00    -0.387 OA
BRANCH  14  15
HETATM   15  C5  UNL     1      -7.549  52.237  36.596  1.00  0.00     0.193 C 
BRANCH  15  16
HETATM   16  C6  UNL     1      -8.806  52.445  35.828  1.00  0.00     0.193 C 
BRANCH  16  17
HETATM   17  O2  UNL     1      -9.697  53.343  36.220  1.00  0.00    -0.389 OA
BRANCH  17  18
HETATM   18  C7  UNL     1     -10.816  53.642  35.589  1.00  0.00     0.172 C 
BRANCH  18  19
HETATM   19  C8  UNL     1     -11.819  54.556  36.175  1.00  0.00     0.066 C 
BRANCH  19  20
HETATM   20  C9  UNL     1     -12.125  54.244  37.609  1.00  0.00    -0.040 A 
HETATM   21  C10 UNL     1     -11.734  55.036  38.699  1.00  0.00     0.025 A 
HETATM   22  C11 UNL     1     -12.181  54.477  39.877  1.00  0.00     0.088 A 
HETATM   23  N3  UNL     1     -12.839  53.356  39.533  1.00  0.00    -0.375 N 
HETATM   24  C12 UNL     1     -12.810  53.211  38.181  1.00  0.00     0.094 A 
ATOM     25  H3  UNL     1     -13.290  52.715  40.184  1.00  0.00     0.164 HD
ENDBRANCH  19  20
ENDBRANCH  18  19
ENDBRANCH  17  18
ENDBRANCH  16  17
ENDBRANCH  15  16
ENDBRANCH  14  15
ENDBRANCH  13  14
ENDBRANCH  12  13
ENDBRANCH   1  12
BRANCH   4  26
HETATM   26  C14 UNL     1      -5.814  58.477  38.448  1.00  0.00     0.123 C 
BRANCH  26  27
HETATM   27  C15 UNL     1      -4.883  59.454  37.709  1.00  0.00     0.039 C 
BRANCH  27  28
HETATM   28  C16 UNL     1      -4.599  58.829  36.377  1.00  0.00     0.125 C 
BRANCH  28  29
HETATM   29  N6  UNL     1      -3.186  58.567  36.262  1.00  0.00    -0.345 N 
HETATM   30  C17 UNL     1      -2.361  59.465  35.540  1.00  0.00     0.328 C 
HETATM   31  N7  UNL     1      -0.980  59.150  35.455  1.00  0.00    -0.040 NA
HETATM   32  O3  UNL     1      -2.769  60.510  34.975  1.00  0.00    -0.251 OA
ATOM     33  H6  UNL     1      -2.781  57.738  36.699  1.00  0.00     0.163 HD
ENDBRANCH  28  29
ENDBRANCH  27  28
ENDBRANCH  26  27
ENDBRANCH   4  26
TORSDOF 16
ENDMDL
MODEL 5
REMARK VINA RESULT: -6.332309653      2.863      5.407
REMARK  16 active torsions:
REMARK  status: ('A' for Active; 'I' for Inactive)
REMARK    1  A    between atoms: N1_1  and  C1_5 
REMARK    2  A    between atoms: C1_5  and  C2_6 
REMARK    3  A    between atoms: C2_6  and  N2_7 
REMARK    4  A    between atoms: N2_7  and  C3_8 
REMARK       I    between atoms: N2_7  and  C13_22 
REMARK    5  A    between atoms: C3_8  and  C4_9 
REMARK    6  A    between atoms: C4_9  and  O1_10 
REMARK    7  A    between atoms: O1_10  and  C5_11 
REMARK    8  A    between atoms: C5_11  and  C6_12 
REMARK    9  A    between atoms: C6_12  and  O2_13 
REMARK   10  A    between atoms: O2_13  and  C7_14 
REMARK   11  A    between atoms: C7_14  and  C8_15 
REMARK   12  A    between atoms: C8_15  and  C9_16 
REMARK   13  A    between atoms: N5_24  and  C14_26 
REMARK   14  A    between atoms: C14_26  and  C15_27 
REMARK   15  A    between atoms: C15_27  and  C16_28 
REMARK   16  A    between atoms: C16_28  and  N6_29 
REMARK       I    between atoms: N6_29  and  C17_31 
ROOT
HETATM    1  N2  UNL     1      -5.635  55.062  38.173  1.00  0.00    -0.352 N 
HETATM    2  C13 UNL     1      -4.661  55.270  37.140  1.00  0.00     0.186 C 
HETATM    3  N4  UNL     1      -5.055  55.595  35.808  1.00  0.00    -0.064 NA
HETATM    4  N5  UNL     1      -3.437  55.139  37.516  1.00  0.00    -0.364 N 
ATOM      5  H5  UNL     1      -3.289  54.904  38.498  1.00  0.00     0.162 HD
ENDROOT
BRANCH   1   6
HETATM    6  C2  UNL     1      -6.209  56.225  38.787  1.00  0.00     0.152 C 
BRANCH   6   7
HETATM    7  C1  UNL     1      -5.397  56.751  39.940  1.00  0.00     0.249 C 
BRANCH   7   8
HETATM    8  N1  UNL     1      -4.998  58.123  39.686  1.00  0.00    -0.078 N 
ATOM      9  H13 UNL     1      -5.798  58.721  39.480  1.00  0.00     0.274 HD
ATOM     10  H12 UNL     1      -4.676  58.589  40.535  1.00  0.00     0.274 HD
ATOM     11  H11 UNL     1      -4.298  58.154  38.945  1.00  0.00     0.274 HD
ENDBRANCH   7   8
ENDBRANCH   6   7
ENDBRANCH   1   6
BRANCH   1  12
HETATM   12  C3  UNL     1      -5.956  53.713  38.515  1.00  0.00     0.151 C 
BRANCH  12  13
HETATM   13  C4  UNL     1      -6.407  52.911  37.288  1.00  0.00     0.187 C 
BRANCH  13  14
HETATM   14  O1  UNL     1      -7.694  53.269  37.033  1.00  0.00    -0.387 OA
BRANCH  14  15
HETATM   15  C5  UNL     1      -8.341  52.343  36.184  1.00  0.00     0.193 C 
BRANCH  15  16
HETATM   16  C6  UNL     1      -9.667  52.804  35.691  1.00  0.00     0.193 C 
BRANCH  16  17
HETATM   17  O2  UNL     1     -10.697  52.904  36.516  1.00  0.00    -0.389 OA
BRANCH  17  18
HETATM   18  C7  UNL     1     -11.388  54.002  36.755  1.00  0.00     0.172 C 
BRANCH  18  19
HETATM   19  C8  UNL     1     -12.639  53.979  37.541  1.00  0.00     0.066 C 
BRANCH  19  20
HETATM   20  C9  UNL     1     -12.457  54.478  38.943  1.00  0.00    -0.040 A 
HETATM   21  C10 UNL     1     -13.504  54.761  39.832  1.00  0.00     0.025 A 
HETATM   22  C11 UNL     1     -12.998  55.190  41.041  1.00  0.00     0.088 A 
HETATM   23  N3  UNL     1     -11.660  55.176  40.912  1.00  0.00    -0.375 N 
HETATM   24  C12 UNL     1     -11.329  54.752  39.663  1.00  0.00     0.094 A 
ATOM     25  H3  UNL     1     -10.996  55.441  41.639  1.00  0.00     0.164 HD
ENDBRANCH  19  20
ENDBRANCH  18  19
ENDBRANCH  17  18
ENDBRANCH  16  17
ENDBRANCH  15  16
ENDBRANCH  14  15
ENDBRANCH  13  14
ENDBRANCH  12  13
ENDBRANCH   1  12
BRANCH   4  26
HETATM   26  C14 UNL     1      -2.268  55.284  36.718  1.00  0.00     0.123 C 
BRANCH  26  27
HETATM   27  C15 UNL     1      -1.855  53.881  36.241  1.00  0.00     0.039 C 
BRANCH  27  28
HETATM   28  C16 UNL     1      -1.962  53.903  34.746  1.00  0.00     0.125 C 
BRANCH  28  29
HETATM   29  N6  UNL     1      -2.283  55.239  34.308  1.00  0.00    -0.345 N 
HETATM   30  C17 UNL     1      -2.291  55.542  32.923  1.00  0.00     0.328 C 
HETATM   31  N7  UNL     1      -2.607  56.875  32.555  1.00  0.00    -0.040 NA
HETATM   32  O3  UNL     1      -2.038  54.716  32.012  1.00  0.00    -0.251 OA
ATOM     33  H6  UNL     1      -2.503  55.963  34.992  1.00  0.00     0.163 HD
ENDBRANCH  28  29
ENDBRANCH  27  28
ENDBRANCH  26  27
ENDBRANCH   4  26
TORSDOF 16
ENDMDL
