MODEL 1
REMARK VINA RESULT: -8.957335467      0.000      0.000
REMARK  5 active torsions:
REMARK  status: ('A' for Active; 'I' for Inactive)
REMARK    1  A    between atoms: N1_2  and  C3_4 
REMARK    2  A    between atoms: C3_4  and  C4_5 
REMARK    3  A    between atoms: C4_5  and  O1_6 
REMARK    4  A    between atoms: C7_10  and  C8_12 
REMARK    5  A    between atoms: C11_16  and  C12_17 
ROOT
HETATM    1  C12 UNL     1      28.647  56.837  90.932  1.00  0.00     0.054 A 
HETATM    2  C13 UNL     1      29.410  55.897  90.285  1.00  0.00     0.135 A 
HETATM    3  F3  UNL     1      30.709  56.105  90.029  1.00  0.00    -0.205 F 
HETATM    4  C14 UNL     1      28.847  54.686  89.873  1.00  0.00     0.117 A 
HETATM    5  C15 UNL     1      27.502  54.467  90.137  1.00  0.00     0.249 A 
HETATM    6  O2  UNL     1      26.965  53.368  89.770  1.00  0.00    -0.268 OA
HETATM    7  N2  UNL     1      26.761  55.389  90.769  1.00  0.00    -0.314 N 
ATOM      8  H2  UNL     1      25.774  55.212  90.955  1.00  0.00     0.170 HD
HETATM    9  C16 UNL     1      27.323  56.549  91.158  1.00  0.00     0.131 A 
HETATM   10  C17 UNL     1      26.528  57.532  91.830  1.00  0.00     0.118 C 
HETATM   11  N3  UNL     1      25.894  58.334  92.390  1.00  0.00    -0.190 NA
ENDROOT
BRANCH   1  12
HETATM   12  C11 UNL     1      29.213  58.089  91.368  1.00  0.00     0.022 A 
HETATM   13  C10 UNL     1      29.218  59.146  90.494  1.00  0.00     0.128 A 
HETATM   14  C9  UNL     1      29.750  60.344  90.903  1.00  0.00     0.056 A 
HETATM   15  F2  UNL     1      28.707  59.038  89.223  1.00  0.00    -0.205 F 
HETATM   16  C8  UNL     1      30.288  60.564  92.154  1.00  0.00     0.023 A 
HETATM   17  C19 UNL     1      30.274  59.493  93.014  1.00  0.00     0.127 A 
HETATM   18  C18 UNL     1      29.748  58.282  92.631  1.00  0.00     0.058 A 
HETATM   19  F4  UNL     1      30.781  59.629  94.251  1.00  0.00    -0.205 F 
BRANCH  16  20
HETATM   20  C7  UNL     1      30.842  61.879  92.545  1.00  0.00     0.134 C 
HETATM   21  C6  UNL     1      30.586  62.957  91.513  1.00  0.00     0.051 C 
HETATM   22  C5  UNL     1      31.590  64.054  91.843  1.00  0.00     0.047 C 
HETATM   23  C3  UNL     1      31.365  64.605  93.230  1.00  0.00     0.179 C 
HETATM   24  C21 UNL     1      30.357  63.850  94.023  1.00  0.00     0.047 C 
HETATM   25  C20 UNL     1      30.412  62.360  93.890  1.00  0.00     0.051 C 
HETATM   26  F1  UNL     1      32.241  61.749  92.600  1.00  0.00    -0.238 F 
BRANCH  23  27
HETATM   27  N1  UNL     1      32.647  64.738  93.837  1.00  0.00     0.091 N 
HETATM   28  C1  UNL     1      32.726  64.407  95.224  1.00  0.00     0.310 C 
HETATM   29  C2  UNL     1      33.295  65.996  93.605  1.00  0.00     0.310 C 
ENDBRANCH  23  27
BRANCH  23  30
HETATM   30  C4  UNL     1      30.814  66.008  93.046  1.00  0.00     0.205 C 
BRANCH  30  31
HETATM   31  O1  UNL     1      29.748  66.140  93.966  1.00  0.00    -0.398 OA
ATOM     32  H1  UNL     1      29.606  67.072  94.078  1.00  0.00     0.209 HD
ENDBRANCH  30  31
ENDBRANCH  23  30
ENDBRANCH  16  20
ENDBRANCH   1  12
TORSDOF 5
ENDMDL
MODEL 2
REMARK VINA RESULT: -8.597030160      1.502      2.158
REMARK  5 active torsions:
REMARK  status: ('A' for Active; 'I' for Inactive)
REMARK    1  A    between atoms: N1_2  and  C3_4 
REMARK    2  A    between atoms: C3_4  and  C4_5 
REMARK    3  A    between atoms: C4_5  and  O1_6 
REMARK    4  A    between atoms: C7_10  and  C8_12 
REMARK    5  A    between atoms: C11_16  and  C12_17 
ROOT
HETATM    1  C12 UNL     1      27.496  57.011  91.655  1.00  0.00     0.054 A 
HETATM    2  C13 UNL     1      26.245  56.847  92.198  1.00  0.00     0.135 A 
HETATM    3  F3  UNL     1      25.694  57.784  92.982  1.00  0.00    -0.205 F 
HETATM    4  C14 UNL     1      25.508  55.687  91.944  1.00  0.00     0.117 A 
HETATM    5  C15 UNL     1      26.076  54.715  91.133  1.00  0.00     0.249 A 
HETATM    6  O2  UNL     1      25.420  53.647  90.888  1.00  0.00    -0.268 OA
HETATM    7  N2  UNL     1      27.297  54.881  90.606  1.00  0.00    -0.314 N 
ATOM      8  H2  UNL     1      27.699  54.156  90.012  1.00  0.00     0.170 HD
HETATM    9  C16 UNL     1      27.991  56.005  90.862  1.00  0.00     0.131 A 
HETATM   10  C17 UNL     1      29.296  56.177  90.300  1.00  0.00     0.118 C 
HETATM   11  N3  UNL     1      30.355  56.333  89.836  1.00  0.00    -0.190 NA
ENDROOT
BRANCH   1  12
HETATM   12  C11 UNL     1      28.268  58.203  91.903  1.00  0.00     0.022 A 
HETATM   13  C10 UNL     1      28.049  59.303  91.115  1.00  0.00     0.128 A 
HETATM   14  C9  UNL     1      28.776  60.443  91.348  1.00  0.00     0.056 A 
HETATM   15  F2  UNL     1      27.122  59.294  90.100  1.00  0.00    -0.205 F 
HETATM   16  C8  UNL     1      29.729  60.564  92.339  1.00  0.00     0.023 A 
HETATM   17  C19 UNL     1      29.934  59.450  93.117  1.00  0.00     0.127 A 
HETATM   18  C18 UNL     1      29.220  58.295  92.905  1.00  0.00     0.058 A 
HETATM   19  F4  UNL     1      30.847  59.490  94.102  1.00  0.00    -0.205 F 
BRANCH  16  20
HETATM   20  C7  UNL     1      30.480  61.821  92.551  1.00  0.00     0.134 C 
HETATM   21  C6  UNL     1      30.113  62.902  91.557  1.00  0.00     0.051 C 
HETATM   22  C5  UNL     1      31.266  63.894  91.622  1.00  0.00     0.047 C 
HETATM   23  C3  UNL     1      31.401  64.489  93.003  1.00  0.00     0.179 C 
HETATM   24  C21 UNL     1      30.520  63.856  94.021  1.00  0.00     0.047 C 
HETATM   25  C20 UNL     1      30.400  62.367  93.937  1.00  0.00     0.051 C 
HETATM   26  F1  UNL     1      31.838  61.548  92.311  1.00  0.00    -0.238 F 
BRANCH  23  27
HETATM   27  N1  UNL     1      32.791  64.499  93.316  1.00  0.00     0.091 N 
HETATM   28  C1  UNL     1      33.318  65.731  93.811  1.00  0.00     0.310 C 
HETATM   29  C2  UNL     1      33.644  63.992  92.281  1.00  0.00     0.310 C 
ENDBRANCH  23  27
BRANCH  23  30
HETATM   30  C4  UNL     1      30.963  65.938  92.886  1.00  0.00     0.205 C 
BRANCH  30  31
HETATM   31  O1  UNL     1      29.898  66.106  93.802  1.00  0.00    -0.398 OA
ATOM     32  H1  UNL     1      29.961  66.998  94.123  1.00  0.00     0.209 HD
ENDBRANCH  30  31
ENDBRANCH  23  30
ENDBRANCH  16  20
ENDBRANCH   1  12
TORSDOF 5
ENDMDL
MODEL 3
REMARK VINA RESULT: -8.465537477      1.201      1.661
REMARK  5 active torsions:
REMARK  status: ('A' for Active; 'I' for Inactive)
REMARK    1  A    between atoms: N1_2  and  C3_4 
REMARK    2  A    between atoms: C3_4  and  C4_5 
REMARK    3  A    between atoms: C4_5  and  O1_6 
REMARK    4  A    between atoms: C7_10  and  C8_12 
REMARK    5  A    between atoms: C11_16  and  C12_17 
ROOT
HETATM    1  C12 UNL     1      28.565  56.374  90.768  1.00  0.00     0.054 A 
HETATM    2  C13 UNL     1      29.341  55.476  90.077  1.00  0.00     0.135 A 
HETATM    3  F3  UNL     1      30.612  55.751  89.755  1.00  0.00    -0.205 F 
HETATM    4  C14 UNL     1      28.820  54.238  89.689  1.00  0.00     0.117 A 
HETATM    5  C15 UNL     1      27.504  53.949  90.021  1.00  0.00     0.249 A 
HETATM    6  O2  UNL     1      27.006  52.825  89.676  1.00  0.00    -0.268 OA
HETATM    7  N2  UNL     1      26.751  54.830  90.695  1.00  0.00    -0.314 N 
ATOM      8  H2  UNL     1      25.785  54.601  90.931  1.00  0.00     0.170 HD
HETATM    9  C16 UNL     1      27.271  56.016  91.060  1.00  0.00     0.131 A 
HETATM   10  C17 UNL     1      26.463  56.955  91.778  1.00  0.00     0.118 C 
HETATM   11  N3  UNL     1      25.818  57.722  92.374  1.00  0.00    -0.190 NA
ENDROOT
BRANCH   1  12
HETATM   12  C11 UNL     1      29.087  57.652  91.180  1.00  0.00     0.022 A 
HETATM   13  C10 UNL     1      29.070  58.688  90.282  1.00  0.00     0.128 A 
HETATM   14  C9  UNL     1      29.560  59.911  90.669  1.00  0.00     0.056 A 
HETATM   15  F2  UNL     1      28.576  58.535  89.009  1.00  0.00    -0.205 F 
HETATM   16  C8  UNL     1      30.077  60.177  91.920  1.00  0.00     0.023 A 
HETATM   17  C19 UNL     1      30.086  59.125  92.805  1.00  0.00     0.127 A 
HETATM   18  C18 UNL     1      29.602  57.890  92.444  1.00  0.00     0.058 A 
HETATM   19  F4  UNL     1      30.575  59.306  94.043  1.00  0.00    -0.205 F 
BRANCH  16  20
HETATM   20  C7  UNL     1      30.586  61.517  92.286  1.00  0.00     0.134 C 
HETATM   21  C6  UNL     1      30.033  62.018  93.603  1.00  0.00     0.051 C 
HETATM   22  C5  UNL     1      30.272  63.522  93.576  1.00  0.00     0.047 C 
HETATM   23  C3  UNL     1      31.744  63.842  93.479  1.00  0.00     0.179 C 
HETATM   24  C21 UNL     1      32.606  62.651  93.251  1.00  0.00     0.047 C 
HETATM   25  C20 UNL     1      32.072  61.640  92.286  1.00  0.00     0.051 C 
HETATM   26  F1  UNL     1      30.114  62.425  91.322  1.00  0.00    -0.238 F 
BRANCH  23  27
HETATM   27  N1  UNL     1      31.879  64.889  92.523  1.00  0.00     0.091 N 
HETATM   28  C1  UNL     1      32.638  66.026  92.934  1.00  0.00     0.310 C 
HETATM   29  C2  UNL     1      30.648  65.322  91.928  1.00  0.00     0.310 C 
ENDBRANCH  23  27
BRANCH  23  30
HETATM   30  C4  UNL     1      32.143  64.419  94.826  1.00  0.00     0.205 C 
BRANCH  30  31
HETATM   31  O1  UNL     1      32.619  63.333  95.597  1.00  0.00    -0.398 OA
ATOM     32  H1  UNL     1      32.444  63.553  96.505  1.00  0.00     0.209 HD
ENDBRANCH  30  31
ENDBRANCH  23  30
ENDBRANCH  16  20
ENDBRANCH   1  12
TORSDOF 5
ENDMDL
MODEL 4
REMARK VINA RESULT: -8.433310286      2.934      8.802
REMARK  5 active torsions:
REMARK  status: ('A' for Active; 'I' for Inactive)
REMARK    1  A    between atoms: N1_2  and  C3_4 
REMARK    2  A    between atoms: C3_4  and  C4_5 
REMARK    3  A    between atoms: C4_5  and  O1_6 
REMARK    4  A    between atoms: C7_10  and  C8_12 
REMARK    5  A    between atoms: C11_16  and  C12_17 
ROOT
HETATM    1  C12 UNL     1      30.200  60.631  92.898  1.00  0.00     0.054 A 
HETATM    2  C13 UNL     1      30.744  60.174  94.073  1.00  0.00     0.135 A 
HETATM    3  F3  UNL     1      30.568  58.909  94.481  1.00  0.00    -0.205 F 
HETATM    4  C14 UNL     1      31.505  61.023  94.882  1.00  0.00     0.117 A 
HETATM    5  C15 UNL     1      31.689  62.333  94.462  1.00  0.00     0.249 A 
HETATM    6  O2  UNL     1      32.380  63.128  95.185  1.00  0.00    -0.268 OA
HETATM    7  N2  UNL     1      31.155  62.774  93.315  1.00  0.00    -0.314 N 
ATOM      8  H2  UNL     1      31.301  63.740  93.021  1.00  0.00     0.170 HD
HETATM    9  C16 UNL     1      30.426  61.940  92.550  1.00  0.00     0.131 A 
HETATM   10  C17 UNL     1      29.855  62.416  91.327  1.00  0.00     0.118 C 
HETATM   11  N3  UNL     1      29.396  62.789  90.321  1.00  0.00    -0.190 NA
ENDROOT
BRANCH   1  12
HETATM   12  C11 UNL     1      29.417  59.767  92.051  1.00  0.00     0.022 A 
HETATM   13  C10 UNL     1      30.047  59.105  91.029  1.00  0.00     0.128 A 
HETATM   14  C9  UNL     1      29.309  58.276  90.220  1.00  0.00     0.056 A 
HETATM   15  F2  UNL     1      31.393  59.249  90.792  1.00  0.00    -0.205 F 
HETATM   16  C8  UNL     1      27.955  58.057  90.367  1.00  0.00     0.023 A 
HETATM   17  C19 UNL     1      27.343  58.730  91.396  1.00  0.00     0.127 A 
HETATM   18  C18 UNL     1      28.057  59.566  92.221  1.00  0.00     0.058 A 
HETATM   19  F4  UNL     1      26.025  58.569  91.602  1.00  0.00    -0.205 F 
BRANCH  16  20
HETATM   20  C7  UNL     1      27.210  57.145  89.471  1.00  0.00     0.134 C 
HETATM   21  C6  UNL     1      26.255  57.874  88.550  1.00  0.00     0.051 C 
HETATM   22  C5  UNL     1      25.283  56.802  88.074  1.00  0.00     0.047 C 
HETATM   23  C3  UNL     1      25.998  55.710  87.315  1.00  0.00     0.179 C 
HETATM   24  C21 UNL     1      27.482  55.820  87.356  1.00  0.00     0.047 C 
HETATM   25  C20 UNL     1      28.066  56.219  88.675  1.00  0.00     0.051 C 
HETATM   26  F1  UNL     1      26.393  56.333  90.278  1.00  0.00    -0.238 F 
BRANCH  23  27
HETATM   27  N1  UNL     1      25.463  54.471  87.769  1.00  0.00     0.091 N 
HETATM   28  C1  UNL     1      25.493  53.390  86.836  1.00  0.00     0.310 C 
HETATM   29  C2  UNL     1      24.160  54.559  88.361  1.00  0.00     0.310 C 
ENDBRANCH  23  27
BRANCH  23  30
HETATM   30  C4  UNL     1      25.589  55.864  85.862  1.00  0.00     0.205 C 
BRANCH  30  31
HETATM   31  O1  UNL     1      26.631  56.581  85.229  1.00  0.00    -0.398 OA
ATOM     32  H1  UNL     1      26.227  57.341  84.828  1.00  0.00     0.209 HD
ENDBRANCH  30  31
ENDBRANCH  23  30
ENDBRANCH  16  20
ENDBRANCH   1  12
TORSDOF 5
ENDMDL
MODEL 5
REMARK VINA RESULT: -8.408347563      1.958      8.698
REMARK  5 active torsions:
REMARK  status: ('A' for Active; 'I' for Inactive)
REMARK    1  A    between atoms: N1_2  and  C3_4 
REMARK    2  A    between atoms: C3_4  and  C4_5 
REMARK    3  A    between atoms: C4_5  and  O1_6 
REMARK    4  A    between atoms: C7_10  and  C8_12 
REMARK    5  A    between atoms: C11_16  and  C12_17 
ROOT
HETATM    1  C12 UNL     1      30.983  62.010  93.043  1.00  0.00     0.054 A 
HETATM    2  C13 UNL     1      31.836  62.097  94.116  1.00  0.00     0.135 A 
HETATM    3  F3  UNL     1      32.124  61.028  94.871  1.00  0.00    -0.205 F 
HETATM    4  C14 UNL     1      32.433  63.315  94.451  1.00  0.00     0.117 A 
HETATM    5  C15 UNL     1      32.138  64.425  93.672  1.00  0.00     0.249 A 
HETATM    6  O2  UNL     1      32.672  65.549  93.959  1.00  0.00    -0.268 OA
HETATM    7  N2  UNL     1      31.304  64.334  92.626  1.00  0.00    -0.314 N 
ATOM      8  H2  UNL     1      31.098  65.160  92.064  1.00  0.00     0.170 HD
HETATM    9  C16 UNL     1      30.740  63.152  92.320  1.00  0.00     0.131 A 
HETATM   10  C17 UNL     1      29.847  63.060  91.204  1.00  0.00     0.118 C 
HETATM   11  N3  UNL     1      29.129  62.969  90.289  1.00  0.00    -0.190 NA
ENDROOT
BRANCH   1  12
HETATM   12  C11 UNL     1      30.362  60.761  92.681  1.00  0.00     0.022 A 
HETATM   13  C10 UNL     1      29.288  60.325  93.413  1.00  0.00     0.128 A 
HETATM   14  C9  UNL     1      28.687  59.140  93.071  1.00  0.00     0.056 A 
HETATM   15  F2  UNL     1      28.798  61.043  94.478  1.00  0.00    -0.205 F 
HETATM   16  C8  UNL     1      29.094  58.340  92.022  1.00  0.00     0.023 A 
HETATM   17  C19 UNL     1      30.172  58.794  91.301  1.00  0.00     0.127 A 
HETATM   18  C18 UNL     1      30.793  59.978  91.622  1.00  0.00     0.058 A 
HETATM   19  F4  UNL     1      30.628  58.070  90.265  1.00  0.00    -0.205 F 
BRANCH  16  20
HETATM   20  C7  UNL     1      28.404  57.074  91.692  1.00  0.00     0.134 C 
HETATM   21  C6  UNL     1      27.349  56.695  92.709  1.00  0.00     0.051 C 
HETATM   22  C5  UNL     1      27.102  55.211  92.476  1.00  0.00     0.047 C 
HETATM   23  C3  UNL     1      26.589  54.951  91.080  1.00  0.00     0.179 C 
HETATM   24  C21 UNL     1      26.611  56.149  90.198  1.00  0.00     0.047 C 
HETATM   25  C20 UNL     1      27.820  57.022  90.320  1.00  0.00     0.051 C 
HETATM   26  F1  UNL     1      29.359  56.044  91.755  1.00  0.00    -0.238 F 
BRANCH  23  27
HETATM   27  N1  UNL     1      27.289  53.814  90.586  1.00  0.00     0.091 N 
HETATM   28  C1  UNL     1      26.567  52.969  89.688  1.00  0.00     0.310 C 
HETATM   29  C2  UNL     1      27.924  53.014  91.592  1.00  0.00     0.310 C 
ENDBRANCH  23  27
BRANCH  23  30
HETATM   30  C4  UNL     1      25.134  54.546  91.231  1.00  0.00     0.205 C 
BRANCH  30  31
HETATM   31  O1  UNL     1      24.367  55.654  90.801  1.00  0.00    -0.398 OA
ATOM     32  H1  UNL     1      24.253  55.552  89.863  1.00  0.00     0.209 HD
ENDBRANCH  30  31
ENDBRANCH  23  30
ENDBRANCH  16  20
ENDBRANCH   1  12
TORSDOF 5
ENDMDL
