MODEL 1
REMARK VINA RESULT: -8.972757999      0.000      0.000
REMARK  5 active torsions:
REMARK  status: ('A' for Active; 'I' for Inactive)
REMARK    1  A    between atoms: C5_6  and  C6_7 
REMARK    2  A    between atoms: C7_10  and  N2_11 
REMARK    3  A    between atoms: N2_11  and  C8_12 
REMARK    4  A    between atoms: C8_12  and  C9_13 
REMARK    5  A    between atoms: C9_13  and  N3_14 
ROOT
HETATM    1  C6  UNL     1      28.654  59.632  90.781  1.00  0.00     0.066 A 
HETATM    2  N1  UNL     1      29.236  60.607  91.472  1.00  0.00    -0.314 N 
ATOM      3  H1  UNL     1      29.467  60.425  92.448  1.00  0.00     0.170 HD
HETATM    4  C7  UNL     1      29.547  61.841  90.960  1.00  0.00     0.259 A 
HETATM    5  N4  UNL     1      29.222  62.048  89.649  1.00  0.00    -0.315 N 
ATOM      6  H4  UNL     1      29.430  62.949  89.219  1.00  0.00     0.170 HD
HETATM    7  C15 UNL     1      28.638  61.099  88.922  1.00  0.00     0.054 A 
HETATM    8  C16 UNL     1      28.309  61.329  87.575  1.00  0.00     0.092 A 
HETATM    9  C17 UNL     1      27.707  60.322  86.857  1.00  0.00     0.190 A 
HETATM   10  F2  UNL     1      27.378  60.524  85.550  1.00  0.00    -0.186 F 
HETATM   11  N5  UNL     1      27.434  59.137  87.427  1.00  0.00    -0.342 N 
ATOM     12  H5  UNL     1      26.986  58.415  86.862  1.00  0.00     0.167 HD
HETATM   13  C18 UNL     1      27.723  58.864  88.703  1.00  0.00     0.106 A 
HETATM   14  C19 UNL     1      28.337  59.872  89.454  1.00  0.00     0.034 A 
ENDROOT
BRANCH   1  15
HETATM   15  C5  UNL     1      28.334  58.342  91.371  1.00  0.00     0.072 A 
HETATM   16  C4  UNL     1      27.135  58.193  92.020  1.00  0.00     0.132 A 
HETATM   17  C3  UNL     1      26.722  57.013  92.619  1.00  0.00     0.053 A 
HETATM   18  F1  UNL     1      26.238  59.231  92.120  1.00  0.00    -0.205 F 
HETATM   19  C2  UNL     1      27.625  55.948  92.523  1.00  0.00    -0.017 A 
HETATM   20  C1  UNL     1      27.267  54.649  93.138  1.00  0.00     0.052 C 
HETATM   21  C21 UNL     1      28.828  56.085  91.878  1.00  0.00     0.161 A 
HETATM   22  C20 UNL     1      29.201  57.276  91.293  1.00  0.00     0.171 A 
HETATM   23  F4  UNL     1      29.715  55.038  91.787  1.00  0.00    -0.202 F 
HETATM   24  F3  UNL     1      30.411  57.392  90.656  1.00  0.00    -0.202 F 
ENDBRANCH   1  15
BRANCH   4  25
HETATM   25  N2  UNL     1      30.075  62.643  91.659  1.00  0.00    -0.386 NA
BRANCH  25  26
HETATM   26  C8  UNL     1      30.667  63.545  92.442  1.00  0.00     0.189 C 
BRANCH  26  27
HETATM   27  C9  UNL     1      31.764  63.033  93.374  1.00  0.00     0.331 C 
BRANCH  27  28
HETATM   28  N3  UNL     1      31.276  62.658  94.668  1.00  0.00     0.094 N 
HETATM   29  C10 UNL     1      29.986  63.294  94.867  1.00  0.00     0.273 C 
HETATM   30  C11 UNL     1      29.636  63.153  96.332  1.00  0.00     0.030 C 
HETATM   31  C12 UNL     1      29.299  61.680  96.538  1.00  0.00     0.003 C 
HETATM   32  C13 UNL     1      29.759  60.838  95.393  1.00  0.00     0.030 C 
HETATM   33  C14 UNL     1      31.103  61.237  94.843  1.00  0.00     0.273 C 
ENDBRANCH  27  28
ENDBRANCH  26  27
ENDBRANCH  25  26
ENDBRANCH   4  25
TORSDOF 5
ENDMDL
MODEL 2
REMARK VINA RESULT: -8.795387782      0.520      1.743
REMARK  5 active torsions:
REMARK  status: ('A' for Active; 'I' for Inactive)
REMARK    1  A    between atoms: C5_6  and  C6_7 
REMARK    2  A    between atoms: C7_10  and  N2_11 
REMARK    3  A    between atoms: N2_11  and  C8_12 
REMARK    4  A    between atoms: C8_12  and  C9_13 
REMARK    5  A    between atoms: C9_13  and  N3_14 
ROOT
HETATM    1  C6  UNL     1      28.631  59.685  90.808  1.00  0.00     0.066 A 
HETATM    2  N1  UNL     1      29.233  60.644  91.503  1.00  0.00    -0.314 N 
ATOM      3  H1  UNL     1      29.451  60.456  92.482  1.00  0.00     0.170 HD
HETATM    4  C7  UNL     1      29.582  61.868  90.995  1.00  0.00     0.259 A 
HETATM    5  N4  UNL     1      29.273  62.084  89.681  1.00  0.00    -0.315 N 
ATOM      6  H4  UNL     1      29.509  62.979  89.252  1.00  0.00     0.170 HD
HETATM    7  C15 UNL     1      28.671  61.150  88.949  1.00  0.00     0.054 A 
HETATM    8  C16 UNL     1      28.360  61.388  87.599  1.00  0.00     0.092 A 
HETATM    9  C17 UNL     1      27.737  60.398  86.876  1.00  0.00     0.190 A 
HETATM   10  F2  UNL     1      27.425  60.607  85.566  1.00  0.00    -0.186 F 
HETATM   11  N5  UNL     1      27.427  59.221  87.443  1.00  0.00    -0.342 N 
ATOM     12  H5  UNL     1      26.965  58.510  86.875  1.00  0.00     0.167 HD
HETATM   13  C18 UNL     1      27.698  58.940  88.723  1.00  0.00     0.106 A 
HETATM   14  C19 UNL     1      28.332  59.932  89.478  1.00  0.00     0.034 A 
ENDROOT
BRANCH   1  15
HETATM   15  C5  UNL     1      28.271  58.404  91.396  1.00  0.00     0.072 A 
HETATM   16  C4  UNL     1      29.189  57.386  91.375  1.00  0.00     0.132 A 
HETATM   17  C3  UNL     1      28.959  56.126  91.904  1.00  0.00     0.053 A 
HETATM   18  F1  UNL     1      30.435  57.555  90.816  1.00  0.00    -0.205 F 
HETATM   19  C2  UNL     1      27.696  55.943  92.479  1.00  0.00    -0.017 A 
HETATM   20  C1  UNL     1      27.362  54.624  93.065  1.00  0.00     0.052 C 
HETATM   21  C21 UNL     1      26.767  56.952  92.504  1.00  0.00     0.161 A 
HETATM   22  C20 UNL     1      27.036  58.192  91.968  1.00  0.00     0.171 A 
HETATM   23  F4  UNL     1      25.525  56.768  93.065  1.00  0.00    -0.202 F 
HETATM   24  F3  UNL     1      26.091  59.187  92.001  1.00  0.00    -0.202 F 
ENDBRANCH   1  15
BRANCH   4  25
HETATM   25  N2  UNL     1      30.125  62.656  91.697  1.00  0.00    -0.386 NA
BRANCH  25  26
HETATM   26  C8  UNL     1      30.735  63.542  92.485  1.00  0.00     0.189 C 
BRANCH  26  27
HETATM   27  C9  UNL     1      31.796  62.997  93.440  1.00  0.00     0.331 C 
BRANCH  27  28
HETATM   28  N3  UNL     1      31.273  62.654  94.729  1.00  0.00     0.094 N 
HETATM   29  C10 UNL     1      29.994  63.323  94.892  1.00  0.00     0.273 C 
HETATM   30  C11 UNL     1      29.612  63.213  96.350  1.00  0.00     0.030 C 
HETATM   31  C12 UNL     1      29.236  61.752  96.573  1.00  0.00     0.003 C 
HETATM   32  C13 UNL     1      29.701  60.881  95.451  1.00  0.00     0.030 C 
HETATM   33  C14 UNL     1      31.064  61.241  94.923  1.00  0.00     0.273 C 
ENDBRANCH  27  28
ENDBRANCH  26  27
ENDBRANCH  25  26
ENDBRANCH   4  25
TORSDOF 5
ENDMDL
MODEL 3
REMARK VINA RESULT: -8.583157280      0.895      1.300
REMARK  5 active torsions:
REMARK  status: ('A' for Active; 'I' for Inactive)
REMARK    1  A    between atoms: C5_6  and  C6_7 
REMARK    2  A    between atoms: C7_10  and  N2_11 
REMARK    3  A    between atoms: N2_11  and  C8_12 
REMARK    4  A    between atoms: C8_12  and  C9_13 
REMARK    5  A    between atoms: C9_13  and  N3_14 
ROOT
HETATM    1  C6  UNL     1      28.283  59.321  90.145  1.00  0.00     0.066 A 
HETATM    2  N1  UNL     1      28.834  60.417  90.656  1.00  0.00    -0.314 N 
ATOM      3  H1  UNL     1      29.134  60.387  91.631  1.00  0.00     0.170 HD
HETATM    4  C7  UNL     1      29.029  61.584  89.963  1.00  0.00     0.259 A 
HETATM    5  N4  UNL     1      28.614  61.586  88.661  1.00  0.00    -0.315 N 
ATOM      6  H4  UNL     1      28.733  62.429  88.099  1.00  0.00     0.170 HD
HETATM    7  C15 UNL     1      28.057  60.510  88.110  1.00  0.00     0.054 A 
HETATM    8  C16 UNL     1      27.636  60.529  86.769  1.00  0.00     0.092 A 
HETATM    9  C17 UNL     1      27.064  59.397  86.236  1.00  0.00     0.190 A 
HETATM   10  F2  UNL     1      26.647  59.394  84.938  1.00  0.00    -0.186 F 
HETATM   11  N5  UNL     1      26.908  58.289  86.978  1.00  0.00    -0.342 N 
ATOM     12  H5  UNL     1      26.480  57.469  86.547  1.00  0.00     0.167 HD
HETATM   13  C18 UNL     1      27.289  58.215  88.257  1.00  0.00     0.106 A 
HETATM   14  C19 UNL     1      27.873  59.353  88.821  1.00  0.00     0.034 A 
ENDROOT
BRANCH   1  15
HETATM   15  C5  UNL     1      28.088  58.109  90.925  1.00  0.00     0.072 A 
HETATM   16  C4  UNL     1      27.019  58.040  91.780  1.00  0.00     0.132 A 
HETATM   17  C3  UNL     1      26.733  56.939  92.571  1.00  0.00     0.053 A 
HETATM   18  F1  UNL     1      26.135  59.086  91.911  1.00  0.00    -0.205 F 
HETATM   19  C2  UNL     1      27.624  55.866  92.446  1.00  0.00    -0.017 A 
HETATM   20  C1  UNL     1      27.396  54.648  93.258  1.00  0.00     0.052 C 
HETATM   21  C21 UNL     1      28.698  55.924  91.594  1.00  0.00     0.161 A 
HETATM   22  C20 UNL     1      28.947  57.038  90.823  1.00  0.00     0.171 A 
HETATM   23  F4  UNL     1      29.574  54.871  91.475  1.00  0.00    -0.202 F 
HETATM   24  F3  UNL     1      30.029  57.075  89.981  1.00  0.00    -0.202 F 
ENDBRANCH   1  15
BRANCH   4  25
HETATM   25  N2  UNL     1      29.539  62.506  90.509  1.00  0.00    -0.386 NA
BRANCH  25  26
HETATM   26  C8  UNL     1      30.113  63.542  91.121  1.00  0.00     0.189 C 
BRANCH  26  27
HETATM   27  C9  UNL     1      30.951  63.232  92.360  1.00  0.00     0.331 C 
BRANCH  27  28
HETATM   28  N3  UNL     1      30.205  62.585  93.399  1.00  0.00     0.094 N 
HETATM   29  C10 UNL     1      30.788  61.274  93.626  1.00  0.00     0.273 C 
HETATM   30  C11 UNL     1      29.816  60.493  94.481  1.00  0.00     0.030 C 
HETATM   31  C12 UNL     1      29.889  61.118  95.871  1.00  0.00     0.003 C 
HETATM   32  C13 UNL     1      30.565  62.450  95.846  1.00  0.00     0.030 C 
HETATM   33  C14 UNL     1      30.205  63.296  94.653  1.00  0.00     0.273 C 
ENDBRANCH  27  28
ENDBRANCH  26  27
ENDBRANCH  25  26
ENDBRANCH   4  25
TORSDOF 5
ENDMDL
MODEL 4
REMARK VINA RESULT: -8.413957692      1.868      2.986
REMARK  5 active torsions:
REMARK  status: ('A' for Active; 'I' for Inactive)
REMARK    1  A    between atoms: C5_6  and  C6_7 
REMARK    2  A    between atoms: C7_10  and  N2_11 
REMARK    3  A    between atoms: N2_11  and  C8_12 
REMARK    4  A    between atoms: C8_12  and  C9_13 
REMARK    5  A    between atoms: C9_13  and  N3_14 
ROOT
HETATM    1  C6  UNL     1      28.580  57.558  91.580  1.00  0.00     0.066 A 
HETATM    2  N1  UNL     1      29.003  58.364  92.548  1.00  0.00    -0.314 N 
ATOM      3  H1  UNL     1      29.530  57.949  93.316  1.00  0.00     0.170 HD
HETATM    4  C7  UNL     1      28.778  59.717  92.584  1.00  0.00     0.259 A 
HETATM    5  N4  UNL     1      28.068  60.237  91.539  1.00  0.00    -0.315 N 
ATOM      6  H4  UNL     1      27.871  61.237  91.517  1.00  0.00     0.170 HD
HETATM    7  C15 UNL     1      27.627  59.464  90.549  1.00  0.00     0.054 A 
HETATM    8  C16 UNL     1      26.897  60.015  89.482  1.00  0.00     0.092 A 
HETATM    9  C17 UNL     1      26.458  59.184  88.478  1.00  0.00     0.190 A 
HETATM   10  F2  UNL     1      25.747  59.696  87.434  1.00  0.00    -0.186 F 
HETATM   11  N5  UNL     1      26.718  57.866  88.510  1.00  0.00    -0.342 N 
ATOM     12  H5  UNL     1      26.376  57.282  87.747  1.00  0.00     0.167 HD
HETATM   13  C18 UNL     1      27.406  57.289  89.501  1.00  0.00     0.106 A 
HETATM   14  C19 UNL     1      27.863  58.114  90.533  1.00  0.00     0.034 A 
ENDROOT
BRANCH   1  15
HETATM   15  C5  UNL     1      28.834  56.126  91.592  1.00  0.00     0.072 A 
HETATM   16  C4  UNL     1      28.010  55.315  92.329  1.00  0.00     0.132 A 
HETATM   17  C3  UNL     1      28.153  53.940  92.414  1.00  0.00     0.053 A 
HETATM   18  F1  UNL     1      26.956  55.828  93.049  1.00  0.00    -0.205 F 
HETATM   19  C2  UNL     1      29.221  53.405  91.684  1.00  0.00    -0.017 A 
HETATM   20  C1  UNL     1      29.452  51.943  91.721  1.00  0.00     0.052 C 
HETATM   21  C21 UNL     1      30.054  54.206  90.944  1.00  0.00     0.161 A 
HETATM   22  C20 UNL     1      29.876  55.570  90.884  1.00  0.00     0.171 A 
HETATM   23  F4  UNL     1      31.105  53.679  90.230  1.00  0.00    -0.202 F 
HETATM   24  F3  UNL     1      30.724  56.352  90.140  1.00  0.00    -0.202 F 
ENDBRANCH   1  15
BRANCH   4  25
HETATM   25  N2  UNL     1      29.205  60.353  93.491  1.00  0.00    -0.386 NA
BRANCH  25  26
HETATM   26  C8  UNL     1      29.686  61.066  94.511  1.00  0.00     0.189 C 
BRANCH  26  27
HETATM   27  C9  UNL     1      31.206  61.185  94.611  1.00  0.00     0.331 C 
BRANCH  27  28
HETATM   28  N3  UNL     1      31.709  62.427  94.105  1.00  0.00     0.094 N 
HETATM   29  C10 UNL     1      32.169  62.209  92.745  1.00  0.00     0.273 C 
HETATM   30  C11 UNL     1      32.975  63.424  92.343  1.00  0.00     0.030 C 
HETATM   31  C12 UNL     1      31.964  64.551  92.160  1.00  0.00     0.003 C 
HETATM   32  C13 UNL     1      30.640  64.215  92.764  1.00  0.00     0.030 C 
HETATM   33  C14 UNL     1      30.736  63.491  94.082  1.00  0.00     0.273 C 
ENDBRANCH  27  28
ENDBRANCH  26  27
ENDBRANCH  25  26
ENDBRANCH   4  25
TORSDOF 5
ENDMDL
MODEL 5
REMARK VINA RESULT: -8.380151508      1.599      2.313
REMARK  5 active torsions:
REMARK  status: ('A' for Active; 'I' for Inactive)
REMARK    1  A    between atoms: C5_6  and  C6_7 
REMARK    2  A    between atoms: C7_10  and  N2_11 
REMARK    3  A    between atoms: N2_11  and  C8_12 
REMARK    4  A    between atoms: C8_12  and  C9_13 
REMARK    5  A    between atoms: C9_13  and  N3_14 
ROOT
HETATM    1  C6  UNL     1      28.476  58.197  90.614  1.00  0.00     0.066 A 
HETATM    2  N1  UNL     1      29.151  59.216  91.137  1.00  0.00    -0.314 N 
ATOM      3  H1  UNL     1      29.813  59.013  91.886  1.00  0.00     0.170 HD
HETATM    4  C7  UNL     1      29.018  60.521  90.738  1.00  0.00     0.259 A 
HETATM    5  N4  UNL     1      28.121  60.754  89.733  1.00  0.00    -0.315 N 
ATOM      6  H4  UNL     1      27.982  61.707  89.398  1.00  0.00     0.170 HD
HETATM    7  C15 UNL     1      27.426  59.762  89.182  1.00  0.00     0.054 A 
HETATM    8  C16 UNL     1      26.507  60.019  88.149  1.00  0.00     0.092 A 
HETATM    9  C17 UNL     1      25.807  58.968  87.605  1.00  0.00     0.190 A 
HETATM   10  F2  UNL     1      24.910  59.194  86.604  1.00  0.00    -0.186 F 
HETATM   11  N5  UNL     1      25.992  57.713  88.048  1.00  0.00    -0.342 N 
ATOM     12  H5  UNL     1      25.455  56.959  87.620  1.00  0.00     0.167 HD
HETATM   13  C18 UNL     1      26.851  57.411  89.028  1.00  0.00     0.106 A 
HETATM   14  C19 UNL     1      27.575  58.464  89.596  1.00  0.00     0.034 A 
ENDROOT
BRANCH   1  15
HETATM   15  C5  UNL     1      28.644  56.829  91.080  1.00  0.00     0.072 A 
HETATM   16  C4  UNL     1      29.562  56.027  90.453  1.00  0.00     0.132 A 
HETATM   17  C3  UNL     1      29.809  54.711  90.809  1.00  0.00     0.053 A 
HETATM   18  F1  UNL     1      30.323  56.490  89.404  1.00  0.00    -0.205 F 
HETATM   19  C2  UNL     1      29.044  54.229  91.878  1.00  0.00    -0.017 A 
HETATM   20  C1  UNL     1      29.239  52.830  92.323  1.00  0.00     0.052 C 
HETATM   21  C21 UNL     1      28.121  55.021  92.512  1.00  0.00     0.161 A 
HETATM   22  C20 UNL     1      27.906  56.326  92.128  1.00  0.00     0.171 A 
HETATM   23  F4  UNL     1      27.367  54.544  93.559  1.00  0.00    -0.202 F 
HETATM   24  F3  UNL     1      26.975  57.100  92.774  1.00  0.00    -0.202 F 
ENDBRANCH   1  15
BRANCH   4  25
HETATM   25  N2  UNL     1      29.673  61.359  91.264  1.00  0.00    -0.386 NA
BRANCH  25  26
HETATM   26  C8  UNL     1      30.408  62.302  91.854  1.00  0.00     0.189 C 
BRANCH  26  27
HETATM   27  C9  UNL     1      31.549  61.824  92.751  1.00  0.00     0.331 C 
BRANCH  27  28
HETATM   28  N3  UNL     1      31.291  62.021  94.147  1.00  0.00     0.094 N 
HETATM   29  C10 UNL     1      30.283  63.057  94.280  1.00  0.00     0.273 C 
HETATM   30  C11 UNL     1      30.253  63.471  95.733  1.00  0.00     0.030 C 
HETATM   31  C12 UNL     1      29.613  62.308  96.484  1.00  0.00     0.003 C 
HETATM   32  C13 UNL     1      29.574  61.066  95.655  1.00  0.00     0.030 C 
HETATM   33  C14 UNL     1      30.813  60.843  94.828  1.00  0.00     0.273 C 
ENDBRANCH  27  28
ENDBRANCH  26  27
ENDBRANCH  25  26
ENDBRANCH   4  25
TORSDOF 5
ENDMDL
