MODEL 1
REMARK VINA RESULT: -5.362294392      0.000      0.000
REMARK  2 active torsions:
REMARK  status: ('A' for Active; 'I' for Inactive)
REMARK    1  A    between atoms: C2_2  and  C3_3 
REMARK    2  A    between atoms: C6_7  and  C7_8 
ROOT
HETATM    1  C3  UNL     1     -14.158   3.322  22.264  1.00  0.00     0.148 C 
HETATM    2  C4  UNL     1     -13.083   4.347  22.016  1.00  0.00     0.062 C 
HETATM    3  C5  UNL     1     -12.534   4.945  23.286  1.00  0.00     0.173 C 
HETATM    4  O1  UNL     1     -13.072   4.224  24.352  1.00  0.00    -0.361 OA
HETATM    5  C6  UNL     1     -14.458   4.405  24.287  1.00  0.00     0.263 C 
HETATM    6  O2  UNL     1     -15.039   3.687  23.272  1.00  0.00    -0.352 OA
ENDROOT
BRANCH   5   7
HETATM    7  C7  UNL     1     -15.110   4.196  25.631  1.00  0.00     0.033 C 
HETATM    8  C8  UNL     1     -14.460   3.126  26.446  1.00  0.00     0.014 C 
HETATM    9  C9  UNL     1     -15.118   5.499  26.396  1.00  0.00     0.014 C 
ENDBRANCH   5   7
BRANCH   1  10
HETATM   10  C2  UNL     1     -14.872   3.105  20.976  1.00  0.00    -0.005 C 
HETATM   11  C1  UNL     1     -16.094   2.648  20.885  1.00  0.00     0.009 C 
ENDBRANCH   1  10
TORSDOF 2
ENDMDL
MODEL 2
REMARK VINA RESULT: -5.343948594      1.616      4.058
REMARK  2 active torsions:
REMARK  status: ('A' for Active; 'I' for Inactive)
REMARK    1  A    between atoms: C2_2  and  C3_3 
REMARK    2  A    between atoms: C6_7  and  C7_8 
ROOT
HETATM    1  C3  UNL     1     -12.748   4.076  23.940  1.00  0.00     0.148 C 
HETATM    2  C4  UNL     1     -13.435   5.319  24.442  1.00  0.00     0.062 C 
HETATM    3  C5  UNL     1     -14.891   5.383  24.059  1.00  0.00     0.173 C 
HETATM    4  O1  UNL     1     -15.226   4.154  23.491  1.00  0.00    -0.361 OA
HETATM    5  C6  UNL     1     -14.427   4.020  22.350  1.00  0.00     0.263 C 
HETATM    6  O2  UNL     1     -13.120   3.729  22.650  1.00  0.00    -0.352 OA
ENDROOT
BRANCH   5   7
HETATM    7  C7  UNL     1     -15.045   3.079  21.346  1.00  0.00     0.033 C 
HETATM    8  C8  UNL     1     -14.608   1.661  21.514  1.00  0.00     0.014 C 
HETATM    9  C9  UNL     1     -16.551   3.171  21.427  1.00  0.00     0.014 C 
ENDBRANCH   5   7
BRANCH   1  10
HETATM   10  C2  UNL     1     -11.281   4.310  24.034  1.00  0.00    -0.005 C 
HETATM   11  C1  UNL     1     -10.732   5.496  24.088  1.00  0.00     0.009 C 
ENDBRANCH   1  10
TORSDOF 2
ENDMDL
MODEL 3
REMARK VINA RESULT: -5.333389082      1.709      4.328
REMARK  2 active torsions:
REMARK  status: ('A' for Active; 'I' for Inactive)
REMARK    1  A    between atoms: C2_2  and  C3_3 
REMARK    2  A    between atoms: C6_7  and  C7_8 
ROOT
HETATM    1  C3  UNL     1     -14.175   6.129  24.536  1.00  0.00     0.148 C 
HETATM    2  C4  UNL     1     -14.859   5.725  25.816  1.00  0.00     0.062 C 
HETATM    3  C5  UNL     1     -15.213   4.260  25.858  1.00  0.00     0.173 C 
HETATM    4  O1  UNL     1     -14.628   3.658  24.744  1.00  0.00    -0.361 OA
HETATM    5  C6  UNL     1     -15.203   4.268  23.623  1.00  0.00     0.263 C 
HETATM    6  O2  UNL     1     -14.731   5.538  23.410  1.00  0.00    -0.352 OA
ENDROOT
BRANCH   5   7
HETATM    7  C7  UNL     1     -15.128   3.379  22.407  1.00  0.00     0.033 C 
HETATM    8  C8  UNL     1     -16.428   3.251  21.684  1.00  0.00     0.014 C 
HETATM    9  C9  UNL     1     -14.062   3.894  21.469  1.00  0.00     0.014 C 
ENDBRANCH   5   7
BRANCH   1  10
HETATM   10  C2  UNL     1     -14.233   7.614  24.451  1.00  0.00    -0.005 C 
HETATM   11  C1  UNL     1     -14.907   8.368  25.281  1.00  0.00     0.009 C 
ENDBRANCH   1  10
TORSDOF 2
ENDMDL
MODEL 4
REMARK VINA RESULT: -5.292298813      1.160      3.970
REMARK  2 active torsions:
REMARK  status: ('A' for Active; 'I' for Inactive)
REMARK    1  A    between atoms: C2_2  and  C3_3 
REMARK    2  A    between atoms: C6_7  and  C7_8 
ROOT
HETATM    1  C3  UNL     1     -14.606   5.336  24.254  1.00  0.00     0.148 C 
HETATM    2  C4  UNL     1     -13.108   5.354  24.102  1.00  0.00     0.062 C 
HETATM    3  C5  UNL     1     -12.636   4.702  22.827  1.00  0.00     0.173 C 
HETATM    4  O1  UNL     1     -13.767   4.426  22.058  1.00  0.00    -0.361 OA
HETATM    5  C6  UNL     1     -14.540   3.532  22.807  1.00  0.00     0.263 C 
HETATM    6  O2  UNL     1     -15.180   4.137  23.859  1.00  0.00    -0.352 OA
ENDROOT
BRANCH   5   7
HETATM    7  C7  UNL     1     -15.453   2.714  21.928  1.00  0.00     0.033 C 
HETATM    8  C8  UNL     1     -16.872   3.181  21.948  1.00  0.00     0.014 C 
HETATM    9  C9  UNL     1     -14.926   2.717  20.512  1.00  0.00     0.014 C 
ENDBRANCH   5   7
BRANCH   1  10
HETATM   10  C2  UNL     1     -14.912   5.639  25.679  1.00  0.00    -0.005 C 
HETATM   11  C1  UNL     1     -15.271   4.738  26.556  1.00  0.00     0.009 C 
ENDBRANCH   1  10
TORSDOF 2
ENDMDL
MODEL 5
REMARK VINA RESULT: -5.289397256      1.143      3.806
REMARK  2 active torsions:
REMARK  status: ('A' for Active; 'I' for Inactive)
REMARK    1  A    between atoms: C2_2  and  C3_3 
REMARK    2  A    between atoms: C6_7  and  C7_8 
ROOT
HETATM    1  C3  UNL     1     -14.420   5.413  24.207  1.00  0.00     0.148 C 
HETATM    2  C4  UNL     1     -12.915   5.430  24.242  1.00  0.00     0.062 C 
HETATM    3  C5  UNL     1     -12.289   4.911  22.973  1.00  0.00     0.173 C 
HETATM    4  O1  UNL     1     -13.317   4.730  22.047  1.00  0.00    -0.361 OA
HETATM    5  C6  UNL     1     -14.174   3.770  22.597  1.00  0.00     0.263 C 
HETATM    6  O2  UNL     1     -14.940   4.268  23.620  1.00  0.00    -0.352 OA
ENDROOT
BRANCH   5   7
HETATM    7  C7  UNL     1     -14.970   3.060  21.531  1.00  0.00     0.033 C 
HETATM    8  C8  UNL     1     -14.697   1.593  21.465  1.00  0.00     0.014 C 
HETATM    9  C9  UNL     1     -16.444   3.303  21.754  1.00  0.00     0.014 C 
ENDBRANCH   5   7
BRANCH   1  10
HETATM   10  C2  UNL     1     -14.900   5.567  25.608  1.00  0.00    -0.005 C 
HETATM   11  C1  UNL     1     -15.283   4.571  26.363  1.00  0.00     0.009 C 
ENDBRANCH   1  10
TORSDOF 2
ENDMDL
