MODEL 1
REMARK VINA RESULT: -7.164897168      0.000      0.000
REMARK  4 active torsions:
REMARK  status: ('A' for Active; 'I' for Inactive)
REMARK    1  A    between atoms: N3_4  and  C2_6 
REMARK    2  A    between atoms: C2_6  and  C3_7 
REMARK    3  A    between atoms: C3_7  and  N4_8 
REMARK    4  A    between atoms: N4_8  and  C4_10 
ROOT
HETATM    1  N4  UNL     1      21.553  62.214  27.731  1.00  0.00    -0.375 N 
ATOM      2  H4  UNL     1      21.521  63.224  27.868  1.00  0.00     0.160 HD
ENDROOT
BRANCH   1   3
HETATM    3  C3  UNL     1      20.421  61.574  27.142  1.00  0.00     0.140 C 
BRANCH   3   4
HETATM    4  C2  UNL     1      19.326  61.244  28.115  1.00  0.00     0.141 C 
BRANCH   4   5
HETATM    5  N3  UNL     1      18.811  62.468  28.693  1.00  0.00    -0.365 N 
HETATM    6  C1  UNL     1      17.738  63.054  28.291  1.00  0.00     0.197 C 
HETATM    7  N1  UNL     1      16.936  62.572  27.239  1.00  0.00    -0.067 NA
HETATM    8  N2  UNL     1      17.349  64.265  28.963  1.00  0.00    -0.067 NA
ATOM      9  H3  UNL     1      19.329  62.891  29.463  1.00  0.00     0.161 HD
ENDBRANCH   4   5
ENDBRANCH   3   4
ENDBRANCH   1   3
BRANCH   1  10
HETATM   10  C4  UNL     1      22.731  61.510  28.139  1.00  0.00     0.125 C 
HETATM   11  N5  UNL     1      23.464  60.900  27.339  1.00  0.00    -0.345 N 
HETATM   12  C5  UNL     1      24.612  60.221  27.771  1.00  0.00     0.172 C 
ATOM     13  H5  UNL     1      23.225  60.895  26.348  1.00  0.00     0.167 HD
HETATM   14  S1  UNL     1      24.317  60.105  29.524  1.00  0.00     0.097 S 
HETATM   15  O1  UNL     1      25.668  60.431  30.423  1.00  0.00    -0.249 OA
HETATM   16  C6  UNL     1      23.138  61.471  29.567  1.00  0.00     0.335 C 
HETATM   17  F1  UNL     1      23.825  62.639  29.879  1.00  0.00    -0.227 F 
ENDBRANCH   1  10
TORSDOF 4
ENDMDL
MODEL 2
REMARK VINA RESULT: -6.909812310      1.287      1.641
REMARK  4 active torsions:
REMARK  status: ('A' for Active; 'I' for Inactive)
REMARK    1  A    between atoms: N3_4  and  C2_6 
REMARK    2  A    between atoms: C2_6  and  C3_7 
REMARK    3  A    between atoms: C3_7  and  N4_8 
REMARK    4  A    between atoms: N4_8  and  C4_10 
ROOT
HETATM    1  N4  UNL     1      21.465  62.064  27.570  1.00  0.00    -0.375 N 
ATOM      2  H4  UNL     1      21.538  63.003  27.179  1.00  0.00     0.160 HD
ENDROOT
BRANCH   1   3
HETATM    3  C3  UNL     1      20.449  61.197  27.067  1.00  0.00     0.140 C 
BRANCH   3   4
HETATM    4  C2  UNL     1      19.254  61.063  27.967  1.00  0.00     0.141 C 
BRANCH   4   5
HETATM    5  N3  UNL     1      18.952  62.350  28.560  1.00  0.00    -0.365 N 
HETATM    6  C1  UNL     1      17.909  63.046  28.267  1.00  0.00     0.197 C 
HETATM    7  N1  UNL     1      16.938  62.637  27.334  1.00  0.00    -0.067 NA
HETATM    8  N2  UNL     1      17.741  64.307  28.938  1.00  0.00    -0.067 NA
ATOM      9  H3  UNL     1      19.602  62.727  29.249  1.00  0.00     0.161 HD
ENDBRANCH   4   5
ENDBRANCH   3   4
ENDBRANCH   1   3
BRANCH   1  10
HETATM   10  C4  UNL     1      22.389  61.682  28.596  1.00  0.00     0.125 C 
HETATM   11  N5  UNL     1      22.089  61.672  29.804  1.00  0.00    -0.345 N 
HETATM   12  C5  UNL     1      23.016  61.291  30.784  1.00  0.00     0.172 C 
ATOM     13  H5  UNL     1      21.149  61.946  30.087  1.00  0.00     0.167 HD
HETATM   14  S1  UNL     1      24.549  61.402  29.884  1.00  0.00     0.097 S 
HETATM   15  O1  UNL     1      25.561  60.127  30.185  1.00  0.00    -0.249 OA
HETATM   16  C6  UNL     1      23.777  61.275  28.258  1.00  0.00     0.335 C 
HETATM   17  F1  UNL     1      23.781  59.941  27.869  1.00  0.00    -0.227 F 
ENDBRANCH   1  10
TORSDOF 4
ENDMDL
MODEL 3
REMARK VINA RESULT: -6.174764723      1.978      2.090
REMARK  4 active torsions:
REMARK  status: ('A' for Active; 'I' for Inactive)
REMARK    1  A    between atoms: N3_4  and  C2_6 
REMARK    2  A    between atoms: C2_6  and  C3_7 
REMARK    3  A    between atoms: C3_7  and  N4_8 
REMARK    4  A    between atoms: N4_8  and  C4_10 
ROOT
HETATM    1  N4  UNL     1      21.828  62.283  29.848  1.00  0.00    -0.375 N 
ATOM      2  H4  UNL     1      22.106  63.178  30.252  1.00  0.00     0.160 HD
ENDROOT
BRANCH   1   3
HETATM    3  C3  UNL     1      20.436  61.974  29.780  1.00  0.00     0.140 C 
BRANCH   3   4
HETATM    4  C2  UNL     1      19.790  62.333  28.474  1.00  0.00     0.141 C 
BRANCH   4   5
HETATM    5  N3  UNL     1      18.715  63.274  28.712  1.00  0.00    -0.365 N 
HETATM    6  C1  UNL     1      17.522  63.132  28.249  1.00  0.00     0.197 C 
HETATM    7  N1  UNL     1      17.122  62.042  27.454  1.00  0.00    -0.067 NA
HETATM    8  N2  UNL     1      16.558  64.149  28.570  1.00  0.00    -0.067 NA
ATOM      9  H3  UNL     1      18.914  64.098  29.280  1.00  0.00     0.161 HD
ENDBRANCH   4   5
ENDBRANCH   3   4
ENDBRANCH   1   3
BRANCH   1  10
HETATM   10  C4  UNL     1      22.854  61.401  29.379  1.00  0.00     0.125 C 
HETATM   11  N5  UNL     1      23.473  60.626  30.131  1.00  0.00    -0.345 N 
HETATM   12  C5  UNL     1      24.473  59.774  29.640  1.00  0.00     0.172 C 
ATOM     13  H5  UNL     1      23.249  60.611  31.126  1.00  0.00     0.167 HD
HETATM   14  S1  UNL     1      24.817  60.508  28.055  1.00  0.00     0.097 S 
HETATM   15  O1  UNL     1      24.986  59.383  26.853  1.00  0.00    -0.249 OA
HETATM   16  C6  UNL     1      23.237  61.373  27.944  1.00  0.00     0.335 C 
HETATM   17  F1  UNL     1      22.341  60.572  27.247  1.00  0.00    -0.227 F 
ENDBRANCH   1  10
TORSDOF 4
ENDMDL
MODEL 4
REMARK VINA RESULT: -6.120300569      3.887      6.269
REMARK  4 active torsions:
REMARK  status: ('A' for Active; 'I' for Inactive)
REMARK    1  A    between atoms: N3_4  and  C2_6 
REMARK    2  A    between atoms: C2_6  and  C3_7 
REMARK    3  A    between atoms: C3_7  and  N4_8 
REMARK    4  A    between atoms: N4_8  and  C4_10 
ROOT
HETATM    1  N4  UNL     1      21.351  61.345  29.365  1.00  0.00    -0.375 N 
ATOM      2  H4  UNL     1      21.604  60.518  28.824  1.00  0.00     0.160 HD
ENDROOT
BRANCH   1   3
HETATM    3  C3  UNL     1      22.212  61.749  30.429  1.00  0.00     0.140 C 
BRANCH   3   4
HETATM    4  C2  UNL     1      23.600  62.118  29.990  1.00  0.00     0.141 C 
BRANCH   4   5
HETATM    5  N3  UNL     1      23.920  61.415  28.765  1.00  0.00    -0.365 N 
HETATM    6  C1  UNL     1      24.530  60.282  28.728  1.00  0.00     0.197 C 
HETATM    7  N1  UNL     1      24.959  59.591  29.877  1.00  0.00    -0.067 NA
HETATM    8  N2  UNL     1      24.779  59.703  27.435  1.00  0.00    -0.067 NA
ATOM      9  H3  UNL     1      23.647  61.842  27.880  1.00  0.00     0.161 HD
ENDBRANCH   4   5
ENDBRANCH   3   4
ENDBRANCH   1   3
BRANCH   1  10
HETATM   10  C4  UNL     1      20.148  62.042  29.018  1.00  0.00     0.125 C 
HETATM   11  N5  UNL     1      19.807  63.109  29.559  1.00  0.00    -0.345 N 
HETATM   12  C5  UNL     1      18.624  63.768  29.197  1.00  0.00     0.172 C 
ATOM     13  H5  UNL     1      20.401  63.514  30.283  1.00  0.00     0.167 HD
HETATM   14  S1  UNL     1      17.752  62.479  28.331  1.00  0.00     0.097 S 
HETATM   15  O1  UNL     1      17.025  63.017  26.945  1.00  0.00    -0.249 OA
HETATM   16  C6  UNL     1      19.232  61.509  27.977  1.00  0.00     0.335 C 
HETATM   17  F1  UNL     1      19.708  61.869  26.722  1.00  0.00    -0.227 F 
ENDBRANCH   1  10
TORSDOF 4
ENDMDL
MODEL 5
REMARK VINA RESULT: -5.989760831      1.013      1.324
REMARK  4 active torsions:
REMARK  status: ('A' for Active; 'I' for Inactive)
REMARK    1  A    between atoms: N3_4  and  C2_6 
REMARK    2  A    between atoms: C2_6  and  C3_7 
REMARK    3  A    between atoms: C3_7  and  N4_8 
REMARK    4  A    between atoms: N4_8  and  C4_10 
ROOT
HETATM    1  N4  UNL     1      21.140  62.314  29.210  1.00  0.00    -0.375 N 
ATOM      2  H4  UNL     1      21.153  63.295  29.490  1.00  0.00     0.160 HD
ENDROOT
BRANCH   1   3
HETATM    3  C3  UNL     1      19.876  61.687  28.996  1.00  0.00     0.140 C 
BRANCH   3   4
HETATM    4  C2  UNL     1      19.250  62.002  27.668  1.00  0.00     0.141 C 
BRANCH   4   5
HETATM    5  N3  UNL     1      17.886  62.442  27.872  1.00  0.00    -0.365 N 
HETATM    6  C1  UNL     1      17.565  63.501  28.530  1.00  0.00     0.197 C 
HETATM    7  N1  UNL     1      18.507  64.357  29.132  1.00  0.00    -0.067 NA
HETATM    8  N2  UNL     1      16.167  63.813  28.649  1.00  0.00    -0.067 NA
ATOM      9  H3  UNL     1      17.135  61.881  27.471  1.00  0.00     0.161 HD
ENDBRANCH   4   5
ENDBRANCH   3   4
ENDBRANCH   1   3
BRANCH   1  10
HETATM   10  C4  UNL     1      22.392  61.636  29.053  1.00  0.00     0.125 C 
HETATM   11  N5  UNL     1      22.955  61.508  27.951  1.00  0.00    -0.345 N 
HETATM   12  C5  UNL     1      24.182  60.839  27.830  1.00  0.00     0.172 C 
ATOM     13  H5  UNL     1      22.516  61.897  27.117  1.00  0.00     0.167 HD
HETATM   14  S1  UNL     1      24.259  59.959  29.376  1.00  0.00     0.097 S 
HETATM   15  O1  UNL     1      25.760  60.018  30.071  1.00  0.00    -0.249 OA
HETATM   16  C6  UNL     1      23.087  61.040  30.222  1.00  0.00     0.335 C 
HETATM   17  F1  UNL     1      23.800  62.032  30.885  1.00  0.00    -0.227 F 
ENDBRANCH   1  10
TORSDOF 4
ENDMDL
