MODEL 1
REMARK VINA RESULT: -8.915218491      0.000      0.000
REMARK  17 active torsions:
REMARK  status: ('A' for Active; 'I' for Inactive)
REMARK    1  A    between atoms: N5_15  and  C6_16 
REMARK    2  A    between atoms: C6_16  and  O1_17 
REMARK    3  A    between atoms: N7_28  and  C12_29 
REMARK    4  A    between atoms: C12_29  and  C13_30 
REMARK    5  A    between atoms: C13_30  and  O3_31 
REMARK    6  A    between atoms: C13_30  and  C14_33 
REMARK    7  A    between atoms: C13_30  and  C17_44 
REMARK    8  A    between atoms: C14_33  and  O4_34 
REMARK    9  A    between atoms: C14_33  and  C15_36 
REMARK   10  A    between atoms: C15_36  and  N8_37 
REMARK   11  A    between atoms: C15_36  and  C16_41 
REMARK   12  A    between atoms: C16_41  and  O5_42 
REMARK   13  A    between atoms: C17_44  and  O6_45 
REMARK   14  A    between atoms: C17_44  and  C18_47 
REMARK   15  A    between atoms: C18_47  and  O7_48 
REMARK   16  A    between atoms: C18_47  and  C19_50 
REMARK   17  A    between atoms: C19_50  and  O8_51 
ROOT
HETATM    1  C6  UNL     1       2.866  18.924  14.391  1.00  0.00     0.150 C 
HETATM    2  C7  UNL     1       3.944  19.995  14.146  1.00  0.00     0.069 C 
HETATM    3  C8  UNL     1       4.890  18.813  13.973  1.00  0.00     0.031 C 
HETATM    4  C9  UNL     1       6.014  18.983  13.035  1.00  0.00     0.163 C 
HETATM    5 CL1  UNL     1       7.405  18.055  13.629  1.00  0.00    -0.116 Cl
HETATM    6  C10 UNL     1       5.711  18.692  11.622  1.00  0.00     0.198 C 
HETATM    7  O2  UNL     1       6.614  18.420  10.821  1.00  0.00    -0.289 OA
HETATM    8  C11 UNL     1       4.325  18.729  11.175  1.00  0.00     0.121 A 
HETATM    9  N6  UNL     1       3.702  19.012  10.025  1.00  0.00    -0.279 N 
ATOM     10  H6  UNL     1       4.189  19.284   9.172  1.00  0.00     0.189 HD
HETATM   11  N7  UNL     1       2.391  18.904  10.113  1.00  0.00    -0.230 N 
HETATM   12  N9  UNL     1       2.189  18.531  11.393  1.00  0.00    -0.285 N 
ATOM     13  H9  UNL     1       1.272  18.358  11.803  1.00  0.00     0.188 HD
HETATM   14  C20 UNL     1       3.341  18.418  12.053  1.00  0.00     0.068 A 
HETATM   15  C21 UNL     1       3.718  18.046  13.454  1.00  0.00     0.102 C 
ENDROOT
BRANCH  11  16
HETATM   16  C12 UNL     1       1.327  19.091   9.199  1.00  0.00     0.212 C 
BRANCH  16  17
HETATM   17  C13 UNL     1       1.240  18.116   8.037  1.00  0.00     0.133 C 
BRANCH  17  18
HETATM   18  O3  UNL     1       1.903  16.926   8.352  1.00  0.00    -0.383 OA
ATOM     19  H3  UNL     1       2.706  16.853   7.848  1.00  0.00     0.210 HD
ENDBRANCH  17  18
BRANCH  17  20
HETATM   20  C14 UNL     1      -0.251  17.684   8.117  1.00  0.00     0.189 C 
BRANCH  20  21
HETATM   21  O4  UNL     1      -0.443  16.349   7.922  1.00  0.00    -0.390 OA
ATOM     22  H4  UNL     1      -1.079  15.965   8.515  1.00  0.00     0.210 HD
ENDBRANCH  20  21
BRANCH  20  23
HETATM   23  C15 UNL     1      -1.036  18.233   9.222  1.00  0.00     0.238 C 
BRANCH  23  24
HETATM   24  N8  UNL     1      -1.574  17.358  10.202  1.00  0.00    -0.070 N 
ATOM     25  H83 UNL     1      -2.431  16.944   9.833  1.00  0.00     0.274 HD
ATOM     26  H82 UNL     1      -0.970  16.539  10.274  1.00  0.00     0.274 HD
ATOM     27  H81 UNL     1      -1.761  17.708  11.142  1.00  0.00     0.274 HD
ENDBRANCH  23  24
BRANCH  23  28
HETATM   28  C16 UNL     1      -2.264  18.906   8.565  1.00  0.00     0.199 C 
BRANCH  28  29
HETATM   29  O5  UNL     1      -2.120  18.962   7.200  1.00  0.00    -0.399 OA
ATOM     30  H5  UNL     1      -2.407  19.803   6.864  1.00  0.00     0.209 HD
ENDBRANCH  28  29
ENDBRANCH  23  28
ENDBRANCH  20  23
ENDBRANCH  17  20
BRANCH  17  31
HETATM   31  C17 UNL     1       1.463  18.669   6.703  1.00  0.00     0.187 C 
BRANCH  31  32
HETATM   32  O6  UNL     1       0.753  19.889   6.586  1.00  0.00    -0.390 OA
ATOM     33  H6  UNL     1       0.950  20.434   7.338  1.00  0.00     0.210 HD
ENDBRANCH  31  32
BRANCH  31  34
HETATM   34  C18 UNL     1       2.812  18.859   6.157  1.00  0.00     0.173 C 
BRANCH  34  35
HETATM   35  O7  UNL     1       3.862  18.540   6.997  1.00  0.00    -0.391 OA
ATOM     36  H7  UNL     1       4.434  17.840   6.706  1.00  0.00     0.210 HD
ENDBRANCH  34  35
BRANCH  34  37
HETATM   37  C19 UNL     1       2.992  17.866   4.969  1.00  0.00     0.198 C 
BRANCH  37  38
HETATM   38  O8  UNL     1       2.535  16.625   5.342  1.00  0.00    -0.398 OA
ATOM     39  H8  UNL     1       3.239  15.993   5.260  1.00  0.00     0.209 HD
ENDBRANCH  37  38
ENDBRANCH  34  37
ENDBRANCH  31  34
ENDBRANCH  17  31
ENDBRANCH  16  17
ENDBRANCH  11  16
BRANCH   1  40
HETATM   40  N5  UNL     1       2.849  18.472  15.749  1.00  0.00    -0.293 N 
HETATM   41  C3  UNL     1       1.902  17.653  16.281  1.00  0.00     0.143 A 
HETATM   42  N3  UNL     1       0.803  17.068  15.762  1.00  0.00    -0.336 N 
HETATM   43  C4  UNL     1       2.197  17.427  17.601  1.00  0.00     0.122 A 
HETATM   44  C2  UNL     1       0.006  16.282  16.504  1.00  0.00     0.183 A 
ATOM     45  H3  UNL     1       0.572  17.226  14.781  1.00  0.00     0.168 HD
HETATM   46  N2  UNL     1       0.277  16.055  17.781  1.00  0.00    -0.337 N 
HETATM   47  C1  UNL     1       1.356  16.607  18.355  1.00  0.00     0.131 A 
ATOM     48  H2  UNL     1      -0.339  15.456  18.331  1.00  0.00     0.168 HD
HETATM   49  N1  UNL     1       1.668  16.422  19.590  1.00  0.00    -0.383 N 
ATOM     50  H12 UNL     1       1.053  15.822  20.141  1.00  0.00     0.157 HD
ATOM     51  H11 UNL     1       2.488  16.841  20.027  1.00  0.00     0.157 HD
HETATM   52  N4  UNL     1       3.308  18.103  17.865  1.00  0.00    -0.346 N 
HETATM   53  C5  UNL     1       3.707  18.737  16.748  1.00  0.00     0.188 A 
ATOM     54  H4  UNL     1       3.782  18.136  18.769  1.00  0.00     0.167 HD
ENDBRANCH   1  40
BRANCH   1  55
HETATM   55  O1  UNL     1       1.638  19.226  13.835  1.00  0.00    -0.369 OA
ATOM     56  H1  UNL     1       1.572  20.069  13.403  1.00  0.00     0.212 HD
ENDBRANCH   1  55
TORSDOF 17
ENDMDL
MODEL 2
REMARK VINA RESULT: -8.292742508      4.364      7.183
REMARK  17 active torsions:
REMARK  status: ('A' for Active; 'I' for Inactive)
REMARK    1  A    between atoms: N5_15  and  C6_16 
REMARK    2  A    between atoms: C6_16  and  O1_17 
REMARK    3  A    between atoms: N7_28  and  C12_29 
REMARK    4  A    between atoms: C12_29  and  C13_30 
REMARK    5  A    between atoms: C13_30  and  O3_31 
REMARK    6  A    between atoms: C13_30  and  C14_33 
REMARK    7  A    between atoms: C13_30  and  C17_44 
REMARK    8  A    between atoms: C14_33  and  O4_34 
REMARK    9  A    between atoms: C14_33  and  C15_36 
REMARK   10  A    between atoms: C15_36  and  N8_37 
REMARK   11  A    between atoms: C15_36  and  C16_41 
REMARK   12  A    between atoms: C16_41  and  O5_42 
REMARK   13  A    between atoms: C17_44  and  O6_45 
REMARK   14  A    between atoms: C17_44  and  C18_47 
REMARK   15  A    between atoms: C18_47  and  O7_48 
REMARK   16  A    between atoms: C18_47  and  C19_50 
REMARK   17  A    between atoms: C19_50  and  O8_51 
ROOT
HETATM    1  C6  UNL     1       5.539  21.047  17.182  1.00  0.00     0.150 C 
HETATM    2  C7  UNL     1       4.127  20.734  17.706  1.00  0.00     0.069 C 
HETATM    3  C8  UNL     1       3.768  22.118  17.178  1.00  0.00     0.031 C 
HETATM    4  C9  UNL     1       2.392  22.314  16.685  1.00  0.00     0.163 C 
HETATM    5 CL1  UNL     1       1.893  23.983  17.022  1.00  0.00    -0.116 Cl
HETATM    6  C10 UNL     1       2.161  21.935  15.279  1.00  0.00     0.198 C 
HETATM    7  O2  UNL     1       1.204  22.395  14.646  1.00  0.00    -0.289 OA
HETATM    8  C11 UNL     1       3.082  21.005  14.639  1.00  0.00     0.121 A 
HETATM    9  N6  UNL     1       2.988  20.086  13.670  1.00  0.00    -0.279 N 
ATOM     10  H6  UNL     1       2.122  19.880  13.171  1.00  0.00     0.189 HD
HETATM   11  N7  UNL     1       4.131  19.476  13.430  1.00  0.00    -0.230 N 
HETATM   12  N9  UNL     1       4.985  20.050  14.300  1.00  0.00    -0.285 N 
ATOM     13  H9  UNL     1       5.972  19.807  14.383  1.00  0.00     0.188 HD
HETATM   14  C20 UNL     1       4.376  20.976  15.039  1.00  0.00     0.068 A 
HETATM   15  C21 UNL     1       4.811  21.906  16.130  1.00  0.00     0.102 C 
ENDROOT
BRANCH  11  16
HETATM   16  C12 UNL     1       4.532  18.462  12.528  1.00  0.00     0.212 C 
BRANCH  16  17
HETATM   17  C13 UNL     1       5.277  18.907  11.281  1.00  0.00     0.133 C 
BRANCH  17  18
HETATM   18  O3  UNL     1       5.613  20.261  11.375  1.00  0.00    -0.383 OA
ATOM     19  H3  UNL     1       6.052  20.548  10.582  1.00  0.00     0.210 HD
ENDBRANCH  17  18
BRANCH  17  20
HETATM   20  C14 UNL     1       6.654  18.218  11.489  1.00  0.00     0.189 C 
BRANCH  20  21
HETATM   21  O4  UNL     1       7.028  17.420  10.449  1.00  0.00    -0.390 OA
ATOM     22  H4  UNL     1       7.072  16.498  10.673  1.00  0.00     0.210 HD
ENDBRANCH  20  21
BRANCH  20  23
HETATM   23  C15 UNL     1       7.737  19.056  12.002  1.00  0.00     0.238 C 
BRANCH  23  24
HETATM   24  N8  UNL     1       8.892  19.274  11.205  1.00  0.00    -0.070 N 
ATOM     25  H83 UNL     1       8.750  18.832  10.297  1.00  0.00     0.274 HD
ATOM     26  H82 UNL     1       8.927  20.260  10.946  1.00  0.00     0.274 HD
ATOM     27  H81 UNL     1       9.808  18.999  11.560  1.00  0.00     0.274 HD
ENDBRANCH  23  24
BRANCH  23  28
HETATM   28  C16 UNL     1       8.254  18.338  13.271  1.00  0.00     0.199 C 
BRANCH  28  29
HETATM   29  O5  UNL     1       7.607  18.799  14.391  1.00  0.00    -0.399 OA
ATOM     30  H5  UNL     1       7.845  18.286  15.155  1.00  0.00     0.209 HD
ENDBRANCH  28  29
ENDBRANCH  23  28
ENDBRANCH  20  23
ENDBRANCH  17  20
BRANCH  17  31
HETATM   31  C17 UNL     1       4.745  18.442  10.002  1.00  0.00     0.187 C 
BRANCH  31  32
HETATM   32  O6  UNL     1       4.292  17.107  10.151  1.00  0.00    -0.390 OA
ATOM     33  H6  UNL     1       4.271  16.692   9.297  1.00  0.00     0.210 HD
ENDBRANCH  31  32
BRANCH  31  34
HETATM   34  C18 UNL     1       3.730  19.199   9.260  1.00  0.00     0.173 C 
BRANCH  34  35
HETATM   35  O7  UNL     1       3.863  19.216   7.885  1.00  0.00    -0.391 OA
ATOM     36  H7  UNL     1       4.557  19.764   7.537  1.00  0.00     0.210 HD
ENDBRANCH  34  35
BRANCH  34  37
HETATM   37  C19 UNL     1       2.357  18.494   9.476  1.00  0.00     0.198 C 
BRANCH  37  38
HETATM   38  O8  UNL     1       2.100  17.665   8.411  1.00  0.00    -0.398 OA
ATOM     39  H8  UNL     1       2.590  17.964   7.654  1.00  0.00     0.209 HD
ENDBRANCH  37  38
ENDBRANCH  34  37
ENDBRANCH  31  34
ENDBRANCH  17  31
ENDBRANCH  16  17
ENDBRANCH  11  16
BRANCH   1  40
HETATM   40  N5  UNL     1       6.308  21.809  18.118  1.00  0.00    -0.293 N 
HETATM   41  C3  UNL     1       7.447  22.489  17.812  1.00  0.00     0.143 A 
HETATM   42  N3  UNL     1       8.136  22.650  16.665  1.00  0.00    -0.336 N 
HETATM   43  C4  UNL     1       7.917  23.102  18.946  1.00  0.00     0.122 A 
HETATM   44  C2  UNL     1       9.258  23.387  16.613  1.00  0.00     0.183 A 
ATOM     45  H3  UNL     1       7.797  22.200  15.814  1.00  0.00     0.168 HD
HETATM   46  N2  UNL     1       9.726  23.985  17.700  1.00  0.00    -0.337 N 
HETATM   47  C1  UNL     1       9.085  23.865  18.871  1.00  0.00     0.131 A 
ATOM     48  H2  UNL     1      10.580  24.540  17.644  1.00  0.00     0.168 HD
HETATM   49  N1  UNL     1       9.493  24.422  19.957  1.00  0.00    -0.383 N 
ATOM     50  H12 UNL     1      10.346  24.979  19.903  1.00  0.00     0.157 HD
ATOM     51  H11 UNL     1       9.006  24.331  20.848  1.00  0.00     0.157 HD
HETATM   52  N4  UNL     1       7.075  22.796  19.925  1.00  0.00    -0.346 N 
HETATM   53  C5  UNL     1       6.100  22.013  19.429  1.00  0.00     0.188 A 
ATOM     54  H4  UNL     1       7.155  23.103  20.895  1.00  0.00     0.167 HD
ENDBRANCH   1  40
BRANCH   1  55
HETATM   55  O1  UNL     1       6.177  19.965  16.608  1.00  0.00    -0.369 OA
ATOM     56  H1  UNL     1       6.515  19.312  17.210  1.00  0.00     0.212 HD
ENDBRANCH   1  55
TORSDOF 17
ENDMDL
MODEL 3
REMARK VINA RESULT: -8.282374918      4.425      6.960
REMARK  17 active torsions:
REMARK  status: ('A' for Active; 'I' for Inactive)
REMARK    1  A    between atoms: N5_15  and  C6_16 
REMARK    2  A    between atoms: C6_16  and  O1_17 
REMARK    3  A    between atoms: N7_28  and  C12_29 
REMARK    4  A    between atoms: C12_29  and  C13_30 
REMARK    5  A    between atoms: C13_30  and  O3_31 
REMARK    6  A    between atoms: C13_30  and  C14_33 
REMARK    7  A    between atoms: C13_30  and  C17_44 
REMARK    8  A    between atoms: C14_33  and  O4_34 
REMARK    9  A    between atoms: C14_33  and  C15_36 
REMARK   10  A    between atoms: C15_36  and  N8_37 
REMARK   11  A    between atoms: C15_36  and  C16_41 
REMARK   12  A    between atoms: C16_41  and  O5_42 
REMARK   13  A    between atoms: C17_44  and  O6_45 
REMARK   14  A    between atoms: C17_44  and  C18_47 
REMARK   15  A    between atoms: C18_47  and  O7_48 
REMARK   16  A    between atoms: C18_47  and  C19_50 
REMARK   17  A    between atoms: C19_50  and  O8_51 
ROOT
HETATM    1  C6  UNL     1       5.327  21.446  16.976  1.00  0.00     0.150 C 
HETATM    2  C7  UNL     1       4.014  20.849  17.511  1.00  0.00     0.069 C 
HETATM    3  C8  UNL     1       3.511  22.288  17.502  1.00  0.00     0.031 C 
HETATM    4  C9  UNL     1       2.075  22.497  17.243  1.00  0.00     0.163 C 
HETATM    5 CL1  UNL     1       1.527  23.917  18.156  1.00  0.00    -0.116 Cl
HETATM    6  C10 UNL     1       1.689  22.563  15.822  1.00  0.00     0.198 C 
HETATM    7  O2  UNL     1       0.633  23.105  15.475  1.00  0.00    -0.289 OA
HETATM    8  C11 UNL     1       2.572  21.976  14.823  1.00  0.00     0.121 A 
HETATM    9  N6  UNL     1       2.408  21.407  13.623  1.00  0.00    -0.279 N 
ATOM     10  H6  UNL     1       1.500  21.287  13.175  1.00  0.00     0.189 HD
HETATM   11  N7  UNL     1       3.544  21.017  13.081  1.00  0.00    -0.230 N 
HETATM   12  N9  UNL     1       4.468  21.365  13.999  1.00  0.00    -0.285 N 
ATOM     13  H9  UNL     1       5.470  21.204  13.897  1.00  0.00     0.188 HD
HETATM   14  C20 UNL     1       3.906  21.946  15.058  1.00  0.00     0.068 A 
HETATM   15  C21 UNL     1       4.423  22.520  16.342  1.00  0.00     0.102 C 
ENDROOT
BRANCH  11  16
HETATM   16  C12 UNL     1       3.885  20.385  11.862  1.00  0.00     0.212 C 
BRANCH  16  17
HETATM   17  C13 UNL     1       4.485  18.992  11.954  1.00  0.00     0.133 C 
BRANCH  17  18
HETATM   18  O3  UNL     1       3.756  18.209  12.855  1.00  0.00    -0.383 OA
ATOM     19  H3  UNL     1       4.210  17.390  13.022  1.00  0.00     0.210 HD
ENDBRANCH  17  18
BRANCH  17  20
HETATM   20  C14 UNL     1       4.060  18.388  10.587  1.00  0.00     0.189 C 
BRANCH  20  21
HETATM   21  O4  UNL     1       5.013  17.594  10.021  1.00  0.00    -0.390 OA
ATOM     22  H4  UNL     1       4.680  17.033   9.331  1.00  0.00     0.210 HD
ENDBRANCH  20  21
BRANCH  20  23
HETATM   23  C15 UNL     1       2.710  17.831  10.505  1.00  0.00     0.238 C 
BRANCH  23  24
HETATM   24  N8  UNL     1       2.530  16.423  10.540  1.00  0.00    -0.070 N 
ATOM     25  H83 UNL     1       1.694  16.189  10.004  1.00  0.00     0.274 HD
ATOM     26  H82 UNL     1       3.260  15.988   9.975  1.00  0.00     0.274 HD
ATOM     27  H81 UNL     1       2.485  15.943  11.439  1.00  0.00     0.274 HD
ENDBRANCH  23  24
BRANCH  23  28
HETATM   28  C16 UNL     1       2.161  18.273   9.129  1.00  0.00     0.199 C 
BRANCH  28  29
HETATM   29  O5  UNL     1       3.184  18.469   8.234  1.00  0.00    -0.399 OA
ATOM     30  H5  UNL     1       3.281  19.391   8.027  1.00  0.00     0.209 HD
ENDBRANCH  28  29
ENDBRANCH  23  28
ENDBRANCH  20  23
ENDBRANCH  17  20
BRANCH  17  31
HETATM   31  C17 UNL     1       5.942  18.912  12.032  1.00  0.00     0.187 C 
BRANCH  31  32
HETATM   32  O6  UNL     1       6.500  20.036  11.373  1.00  0.00    -0.390 OA
ATOM     33  H6  UNL     1       7.250  19.754  10.864  1.00  0.00     0.210 HD
ENDBRANCH  31  32
BRANCH  31  34
HETATM   34  C18 UNL     1       6.643  18.725  13.308  1.00  0.00     0.173 C 
BRANCH  34  35
HETATM   35  O7  UNL     1       5.847  18.498  14.415  1.00  0.00    -0.391 OA
ATOM     36  H7  UNL     1       6.150  18.871  15.234  1.00  0.00     0.210 HD
ENDBRANCH  34  35
BRANCH  34  37
HETATM   37  C19 UNL     1       7.486  17.418  13.202  1.00  0.00     0.198 C 
BRANCH  37  38
HETATM   38  O8  UNL     1       7.400  16.925  11.922  1.00  0.00    -0.398 OA
ATOM     39  H8  UNL     1       6.751  16.232  11.895  1.00  0.00     0.209 HD
ENDBRANCH  37  38
ENDBRANCH  34  37
ENDBRANCH  31  34
ENDBRANCH  17  31
ENDBRANCH  16  17
ENDBRANCH  11  16
BRANCH   1  40
HETATM   40  N5  UNL     1       6.164  21.942  18.025  1.00  0.00    -0.293 N 
HETATM   41  C3  UNL     1       7.332  22.614  17.832  1.00  0.00     0.143 A 
HETATM   42  N3  UNL     1       7.998  22.988  16.721  1.00  0.00    -0.336 N 
HETATM   43  C4  UNL     1       7.867  22.937  19.052  1.00  0.00     0.122 A 
HETATM   44  C2  UNL     1       9.160  23.661  16.788  1.00  0.00     0.183 A 
ATOM     45  H3  UNL     1       7.611  22.755  15.806  1.00  0.00     0.168 HD
HETATM   46  N2  UNL     1       9.691  23.979  17.960  1.00  0.00    -0.337 N 
HETATM   47  C1  UNL     1       9.076  23.637  19.101  1.00  0.00     0.131 A 
ATOM     48  H2  UNL     1      10.574  24.489  17.994  1.00  0.00     0.168 HD
HETATM   49  N1  UNL     1       9.545  23.919  20.265  1.00  0.00    -0.383 N 
ATOM     50  H12 UNL     1      10.427  24.430  20.301  1.00  0.00     0.157 HD
ATOM     51  H11 UNL     1       9.077  23.659  21.134  1.00  0.00     0.157 HD
HETATM   52  N4  UNL     1       7.036  22.466  19.973  1.00  0.00    -0.346 N 
HETATM   53  C5  UNL     1       6.004  21.863  19.356  1.00  0.00     0.188 A 
ATOM     54  H4  UNL     1       7.160  22.547  20.982  1.00  0.00     0.167 HD
ENDBRANCH   1  40
BRANCH   1  55
HETATM   55  O1  UNL     1       5.948  20.668  16.019  1.00  0.00    -0.369 OA
ATOM     56  H1  UNL     1       6.246  19.813  16.304  1.00  0.00     0.212 HD
ENDBRANCH   1  55
TORSDOF 17
ENDMDL
MODEL 4
REMARK VINA RESULT: -8.267212157      2.872      5.166
REMARK  17 active torsions:
REMARK  status: ('A' for Active; 'I' for Inactive)
REMARK    1  A    between atoms: N5_15  and  C6_16 
REMARK    2  A    between atoms: C6_16  and  O1_17 
REMARK    3  A    between atoms: N7_28  and  C12_29 
REMARK    4  A    between atoms: C12_29  and  C13_30 
REMARK    5  A    between atoms: C13_30  and  O3_31 
REMARK    6  A    between atoms: C13_30  and  C14_33 
REMARK    7  A    between atoms: C13_30  and  C17_44 
REMARK    8  A    between atoms: C14_33  and  O4_34 
REMARK    9  A    between atoms: C14_33  and  C15_36 
REMARK   10  A    between atoms: C15_36  and  N8_37 
REMARK   11  A    between atoms: C15_36  and  C16_41 
REMARK   12  A    between atoms: C16_41  and  O5_42 
REMARK   13  A    between atoms: C17_44  and  O6_45 
REMARK   14  A    between atoms: C17_44  and  C18_47 
REMARK   15  A    between atoms: C18_47  and  O7_48 
REMARK   16  A    between atoms: C18_47  and  C19_50 
REMARK   17  A    between atoms: C19_50  and  O8_51 
ROOT
HETATM    1  C6  UNL     1       3.946  18.326  13.570  1.00  0.00     0.150 C 
HETATM    2  C7  UNL     1       2.952  18.101  14.722  1.00  0.00     0.069 C 
HETATM    3  C8  UNL     1       2.870  19.621  14.772  1.00  0.00     0.031 C 
HETATM    4  C9  UNL     1       1.585  20.213  15.187  1.00  0.00     0.163 C 
HETATM    5 CL1  UNL     1       1.902  21.720  16.069  1.00  0.00    -0.116 Cl
HETATM    6  C10 UNL     1       0.592  20.393  14.112  1.00  0.00     0.198 C 
HETATM    7  O2  UNL     1      -0.334  21.204  14.232  1.00  0.00    -0.289 OA
HETATM    8  C11 UNL     1       0.717  19.599  12.896  1.00  0.00     0.121 A 
HETATM    9  N6  UNL     1      -0.135  19.106  11.990  1.00  0.00    -0.279 N 
ATOM     10  H6  UNL     1      -1.145  19.240  12.033  1.00  0.00     0.189 HD
HETATM   11  N7  UNL     1       0.470  18.429  11.034  1.00  0.00    -0.230 N 
HETATM   12  N9  UNL     1       1.774  18.507  11.368  1.00  0.00    -0.285 N 
ATOM     13  H9  UNL     1       2.531  18.082  10.832  1.00  0.00     0.188 HD
HETATM   14  C20 UNL     1       1.947  19.208  12.487  1.00  0.00     0.068 A 
HETATM   15  C21 UNL     1       3.138  19.610  13.303  1.00  0.00     0.102 C 
ENDROOT
BRANCH  11  16
HETATM   16  C12 UNL     1       0.020  17.739   9.884  1.00  0.00     0.212 C 
BRANCH  16  17
HETATM   17  C13 UNL     1       0.169  18.454   8.552  1.00  0.00     0.133 C 
BRANCH  17  18
HETATM   18  O3  UNL     1       1.154  19.442   8.640  1.00  0.00    -0.383 OA
ATOM     19  H3  UNL     1       1.715  19.282   9.390  1.00  0.00     0.210 HD
ENDBRANCH  17  18
BRANCH  17  20
HETATM   20  C14 UNL     1       0.881  17.365   7.702  1.00  0.00     0.189 C 
BRANCH  20  21
HETATM   21  O4  UNL     1       0.032  16.649   6.911  1.00  0.00    -0.390 OA
ATOM     22  H4  UNL     1      -0.244  15.826   7.296  1.00  0.00     0.210 HD
ENDBRANCH  20  21
BRANCH  20  23
HETATM   23  C15 UNL     1       2.116  17.762   7.027  1.00  0.00     0.238 C 
BRANCH  23  24
HETATM   24  N8  UNL     1       2.543  19.115   7.085  1.00  0.00    -0.070 N 
ATOM     25  H83 UNL     1       3.402  19.161   7.634  1.00  0.00     0.274 HD
ATOM     26  H82 UNL     1       2.879  19.390   6.162  1.00  0.00     0.274 HD
ATOM     27  H81 UNL     1       1.902  19.831   7.425  1.00  0.00     0.274 HD
ENDBRANCH  23  24
BRANCH  23  28
HETATM   28  C16 UNL     1       1.877  17.480   5.525  1.00  0.00     0.199 C 
BRANCH  28  29
HETATM   29  O5  UNL     1       2.617  16.402   5.106  1.00  0.00    -0.399 OA
ATOM     30  H5  UNL     1       2.117  15.860   4.506  1.00  0.00     0.209 HD
ENDBRANCH  28  29
ENDBRANCH  23  28
ENDBRANCH  20  23
ENDBRANCH  17  20
BRANCH  17  31
HETATM   31  C17 UNL     1      -1.068  18.808   7.858  1.00  0.00     0.187 C 
BRANCH  31  32
HETATM   32  O6  UNL     1      -2.129  18.842   8.798  1.00  0.00    -0.390 OA
ATOM     33  H6  UNL     1      -2.224  19.729   9.124  1.00  0.00     0.210 HD
ENDBRANCH  31  32
BRANCH  31  34
HETATM   34  C18 UNL     1      -1.166  19.996   7.002  1.00  0.00     0.173 C 
BRANCH  34  35
HETATM   35  O7  UNL     1       0.001  20.402   6.385  1.00  0.00    -0.391 OA
ATOM     36  H7  UNL     1       0.503  21.072   6.834  1.00  0.00     0.210 HD
ENDBRANCH  34  35
BRANCH  34  37
HETATM   37  C19 UNL     1      -2.099  19.646   5.804  1.00  0.00     0.198 C 
BRANCH  37  38
HETATM   38  O8  UNL     1      -2.368  18.298   5.817  1.00  0.00    -0.398 OA
ATOM     39  H8  UNL     1      -1.800  17.870   6.447  1.00  0.00     0.209 HD
ENDBRANCH  37  38
ENDBRANCH  34  37
ENDBRANCH  31  34
ENDBRANCH  17  31
ENDBRANCH  16  17
ENDBRANCH  11  16
BRANCH   1  40
HETATM   40  N5  UNL     1       5.276  18.568  14.041  1.00  0.00    -0.293 N 
HETATM   41  C3  UNL     1       6.351  18.803  13.240  1.00  0.00     0.143 A 
HETATM   42  N3  UNL     1       6.494  18.877  11.902  1.00  0.00    -0.336 N 
HETATM   43  C4  UNL     1       7.459  18.992  14.025  1.00  0.00     0.122 A 
HETATM   44  C2  UNL     1       7.685  19.127  11.333  1.00  0.00     0.183 A 
ATOM     45  H3  UNL     1       5.678  18.739  11.305  1.00  0.00     0.168 HD
HETATM   46  N2  UNL     1       8.766  19.311  12.078  1.00  0.00    -0.337 N 
HETATM   47  C1  UNL     1       8.689  19.251  13.415  1.00  0.00     0.131 A 
ATOM     48  H2  UNL     1       9.664  19.499  11.630  1.00  0.00     0.168 HD
HETATM   49  N1  UNL     1       9.704  19.420  14.187  1.00  0.00    -0.383 N 
ATOM     50  H12 UNL     1      10.602  19.610  13.741  1.00  0.00     0.157 HD
ATOM     51  H11 UNL     1       9.645  19.375  15.204  1.00  0.00     0.157 HD
HETATM   52  N4  UNL     1       7.062  18.871  15.285  1.00  0.00    -0.346 N 
HETATM   53  C5  UNL     1       5.741  18.615  15.300  1.00  0.00     0.188 A 
ATOM     54  H4  UNL     1       7.659  18.958  16.108  1.00  0.00     0.167 HD
ENDBRANCH   1  40
BRANCH   1  55
HETATM   55  O1  UNL     1       3.824  17.418  12.537  1.00  0.00    -0.369 OA
ATOM     56  H1  UNL     1       3.045  17.499  12.000  1.00  0.00     0.212 HD
ENDBRANCH   1  55
TORSDOF 17
ENDMDL
MODEL 5
REMARK VINA RESULT: -8.230877338      1.722      2.693
REMARK  17 active torsions:
REMARK  status: ('A' for Active; 'I' for Inactive)
REMARK    1  A    between atoms: N5_15  and  C6_16 
REMARK    2  A    between atoms: C6_16  and  O1_17 
REMARK    3  A    between atoms: N7_28  and  C12_29 
REMARK    4  A    between atoms: C12_29  and  C13_30 
REMARK    5  A    between atoms: C13_30  and  O3_31 
REMARK    6  A    between atoms: C13_30  and  C14_33 
REMARK    7  A    between atoms: C13_30  and  C17_44 
REMARK    8  A    between atoms: C14_33  and  O4_34 
REMARK    9  A    between atoms: C14_33  and  C15_36 
REMARK   10  A    between atoms: C15_36  and  N8_37 
REMARK   11  A    between atoms: C15_36  and  C16_41 
REMARK   12  A    between atoms: C16_41  and  O5_42 
REMARK   13  A    between atoms: C17_44  and  O6_45 
REMARK   14  A    between atoms: C17_44  and  C18_47 
REMARK   15  A    between atoms: C18_47  and  O7_48 
REMARK   16  A    between atoms: C18_47  and  C19_50 
REMARK   17  A    between atoms: C19_50  and  O8_51 
ROOT
HETATM    1  C6  UNL     1       2.989  19.966  13.538  1.00  0.00     0.150 C 
HETATM    2  C7  UNL     1       4.228  20.726  13.034  1.00  0.00     0.069 C 
HETATM    3  C8  UNL     1       4.944  19.390  13.181  1.00  0.00     0.031 C 
HETATM    4  C9  UNL     1       6.044  19.108  12.241  1.00  0.00     0.163 C 
HETATM    5 CL1  UNL     1       7.273  18.130  13.067  1.00  0.00    -0.116 Cl
HETATM    6  C10 UNL     1       5.641  18.524  10.949  1.00  0.00     0.198 C 
HETATM    7  O2  UNL     1       6.451  17.898  10.254  1.00  0.00    -0.289 OA
HETATM    8  C11 UNL     1       4.267  18.694  10.496  1.00  0.00     0.121 A 
HETATM    9  N6  UNL     1       3.660  18.780   9.306  1.00  0.00    -0.279 N 
ATOM     10  H6  UNL     1       4.154  18.731   8.416  1.00  0.00     0.189 HD
HETATM   11  N7  UNL     1       2.355  18.935   9.407  1.00  0.00    -0.230 N 
HETATM   12  N9  UNL     1       2.139  18.945  10.738  1.00  0.00    -0.285 N 
ATOM     13  H9  UNL     1       1.222  19.051  11.171  1.00  0.00     0.188 HD
HETATM   14  C20 UNL     1       3.277  18.801  11.415  1.00  0.00     0.068 A 
HETATM   15  C21 UNL     1       3.637  18.739  12.868  1.00  0.00     0.102 C 
ENDROOT
BRANCH  11  16
HETATM   16  C12 UNL     1       1.306  19.069   8.467  1.00  0.00     0.212 C 
BRANCH  16  17
HETATM   17  C13 UNL     1       1.222  18.014   7.376  1.00  0.00     0.133 C 
BRANCH  17  18
HETATM   18  O3  UNL     1       1.633  16.773   7.870  1.00  0.00    -0.383 OA
ATOM     19  H3  UNL     1       2.370  16.446   7.367  1.00  0.00     0.210 HD
ENDBRANCH  17  18
BRANCH  17  20
HETATM   20  C14 UNL     1      -0.316  17.821   7.261  1.00  0.00     0.189 C 
BRANCH  20  21
HETATM   21  O4  UNL     1      -0.723  16.538   7.479  1.00  0.00    -0.390 OA
ATOM     22  H4  UNL     1      -0.408  15.923   6.827  1.00  0.00     0.210 HD
ENDBRANCH  20  21
BRANCH  20  23
HETATM   23  C15 UNL     1      -1.155  18.821   7.921  1.00  0.00     0.238 C 
BRANCH  23  24
HETATM   24  N8  UNL     1      -1.907  18.457   9.070  1.00  0.00    -0.070 N 
ATOM     25  H83 UNL     1      -2.309  17.532   8.915  1.00  0.00     0.274 HD
ATOM     26  H82 UNL     1      -1.261  18.270   9.836  1.00  0.00     0.274 HD
ATOM     27  H81 UNL     1      -2.642  19.078   9.408  1.00  0.00     0.274 HD
ENDBRANCH  23  24
BRANCH  23  28
HETATM   28  C16 UNL     1      -2.207  19.242   6.868  1.00  0.00     0.199 C 
BRANCH  28  29
HETATM   29  O5  UNL     1      -2.312  18.297   5.877  1.00  0.00    -0.399 OA
ATOM     30  H5  UNL     1      -3.181  18.304   5.494  1.00  0.00     0.209 HD
ENDBRANCH  28  29
ENDBRANCH  23  28
ENDBRANCH  20  23
ENDBRANCH  17  20
BRANCH  17  31
HETATM   31  C17 UNL     1       1.713  18.400   6.055  1.00  0.00     0.187 C 
BRANCH  31  32
HETATM   32  O6  UNL     1       1.669  19.813   5.943  1.00  0.00    -0.390 OA
ATOM     33  H6  UNL     1       1.596  20.189   6.811  1.00  0.00     0.210 HD
ENDBRANCH  31  32
BRANCH  31  34
HETATM   34  C18 UNL     1       3.004  17.931   5.539  1.00  0.00     0.173 C 
BRANCH  34  35
HETATM   35  O7  UNL     1       2.998  17.414   4.258  1.00  0.00    -0.391 OA
ATOM     36  H7  UNL     1       3.633  16.731   4.078  1.00  0.00     0.210 HD
ENDBRANCH  34  35
BRANCH  34  37
HETATM   37  C19 UNL     1       3.948  19.166   5.421  1.00  0.00     0.198 C 
BRANCH  37  38
HETATM   38  O8  UNL     1       4.444  19.479   6.664  1.00  0.00    -0.398 OA
ATOM     39  H8  UNL     1       4.433  20.422   6.778  1.00  0.00     0.209 HD
ENDBRANCH  37  38
ENDBRANCH  34  37
ENDBRANCH  31  34
ENDBRANCH  17  31
ENDBRANCH  16  17
ENDBRANCH  11  16
BRANCH   1  40
HETATM   40  N5  UNL     1       2.945  19.888  14.966  1.00  0.00    -0.293 N 
HETATM   41  C3  UNL     1       3.226  20.921  15.807  1.00  0.00     0.143 A 
HETATM   42  N3  UNL     1       3.591  22.201  15.593  1.00  0.00    -0.336 N 
HETATM   43  C4  UNL     1       3.084  20.492  17.102  1.00  0.00     0.122 A 
HETATM   44  C2  UNL     1       3.816  23.050  16.610  1.00  0.00     0.183 A 
ATOM     45  H3  UNL     1       3.700  22.534  14.635  1.00  0.00     0.168 HD
HETATM   46  N2  UNL     1       3.685  22.650  17.867  1.00  0.00    -0.337 N 
HETATM   47  C1  UNL     1       3.323  21.390  18.146  1.00  0.00     0.131 A 
ATOM     48  H2  UNL     1       3.860  23.307  18.628  1.00  0.00     0.168 HD
HETATM   49  N1  UNL     1       3.180  20.948  19.345  1.00  0.00    -0.383 N 
ATOM     50  H12 UNL     1       3.354  21.603  20.107  1.00  0.00     0.157 HD
ATOM     51  H11 UNL     1       2.904  19.989  19.558  1.00  0.00     0.157 HD
HETATM   52  N4  UNL     1       2.724  19.216  17.047  1.00  0.00    -0.346 N 
HETATM   53  C5  UNL     1       2.638  18.846  15.756  1.00  0.00     0.188 A 
ATOM     54  H4  UNL     1       2.542  18.615  17.851  1.00  0.00     0.167 HD
ENDBRANCH   1  40
BRANCH   1  55
HETATM   55  O1  UNL     1       1.813  20.331  12.912  1.00  0.00    -0.369 OA
ATOM     56  H1  UNL     1       1.010  20.096  13.362  1.00  0.00     0.212 HD
ENDBRANCH   1  55
TORSDOF 17
ENDMDL
