MODEL 1
REMARK VINA RESULT: -9.270679104      0.000      0.000
REMARK  18 active torsions:
REMARK  status: ('A' for Active; 'I' for Inactive)
REMARK    1  A    between atoms: N1_2  and  C2_5 
REMARK    2  A    between atoms: C3_7  and  C4_8 
REMARK    3  A    between atoms: C5_12  and  N3_13 
REMARK    4  A    between atoms: C6_19  and  N5_20 
REMARK    5  A    between atoms: N6_24  and  C7_25 
REMARK    6  A    between atoms: C8_28  and  C9_29 
REMARK    7  A    between atoms: C9_29  and  N8_30 
REMARK    8  A    between atoms: C9_29  and  N9_34 
REMARK    9  A    between atoms: C10_38  and  C11_39 
REMARK   10  A    between atoms: C11_39  and  O4_40 
REMARK   11  A    between atoms: C11_39  and  N10_42 
REMARK   12  A    between atoms: N10_42  and  C12_45 
REMARK   13  A    between atoms: C12_45  and  C13_46 
REMARK   14  A    between atoms: C13_46  and  C14_48 
REMARK   15  A    between atoms: C14_48  and  C15_50 
REMARK   16  A    between atoms: C15_50  and  O6_53 
REMARK   17  A    between atoms: C18_56  and  O8_57 
REMARK   18  A    between atoms: C20_60  and  N11_61 
ROOT
HETATM    1  C2  UNL     1       2.956  17.155  17.646  1.00  0.00     0.334 C 
HETATM    2  O1  UNL     1       3.709  17.811  18.586  1.00  0.00    -0.313 OA
HETATM    3  C3  UNL     1       4.129  19.035  18.053  1.00  0.00     0.261 C 
HETATM    4  O3  UNL     1       5.484  19.049  18.047  1.00  0.00    -0.297 OA
HETATM    5  C6  UNL     1       6.160  19.078  16.850  1.00  0.00     0.436 C 
HETATM    6  N6  UNL     1       5.635  18.259  15.824  1.00  0.00    -0.270 N 
HETATM    7  C18 UNL     1       4.577  17.267  15.841  1.00  0.00     0.238 C 
HETATM    8  C19 UNL     1       3.270  17.804  16.303  1.00  0.00     0.127 C 
HETATM    9  C20 UNL     1       3.434  19.246  16.756  1.00  0.00     0.266 C 
ENDROOT
BRANCH   6  10
HETATM   10  C7  UNL     1       6.238  18.421  14.522  1.00  0.00     0.232 A 
HETATM   11  N7  UNL     1       7.572  18.573  14.317  1.00  0.00    -0.320 N 
HETATM   12  C8  UNL     1       7.826  18.695  12.983  1.00  0.00     0.104 A 
ATOM     13  H7  UNL     1       8.279  18.592  15.052  1.00  0.00     0.169 HD
HETATM   14  C10 UNL     1       6.598  18.613  12.378  1.00  0.00     0.139 A 
HETATM   15  O7  UNL     1       5.694  18.454  13.341  1.00  0.00    -0.277 OA
BRANCH  12  16
HETATM   16  C9  UNL     1       9.200  18.835  12.449  1.00  0.00     0.430 C 
BRANCH  16  17
HETATM   17  N8  UNL     1       9.254  19.262  11.092  1.00  0.00    -0.045 N 
ATOM     18  H83 UNL     1       8.328  19.223  10.668  1.00  0.00     0.277 HD
ATOM     19  H82 UNL     1       9.425  20.266  11.040  1.00  0.00     0.277 HD
ATOM     20  H81 UNL     1       9.931  18.754  10.523  1.00  0.00     0.277 HD
ENDBRANCH  16  17
BRANCH  16  21
HETATM   21  N9  UNL     1      10.012  19.673  13.335  1.00  0.00    -0.045 N 
ATOM     22  H93 UNL     1      10.978  19.350  13.380  1.00  0.00     0.277 HD
ATOM     23  H92 UNL     1      10.178  20.597  12.936  1.00  0.00     0.277 HD
ATOM     24  H91 UNL     1       9.587  19.730  14.260  1.00  0.00     0.277 HD
ENDBRANCH  16  21
ENDBRANCH  12  16
BRANCH  14  25
HETATM   25  C11 UNL     1       6.377  18.692  10.934  1.00  0.00     0.379 C 
BRANCH  25  26
HETATM   26  O4  UNL     1       6.677  17.382  10.429  1.00  0.00    -0.365 OA
ATOM     27  H4  UNL     1       6.547  17.436   9.489  1.00  0.00     0.212 HD
ENDBRANCH  25  26
BRANCH  25  28
HETATM   28  N10 UNL     1       5.109  19.105  10.437  1.00  0.00    -0.040 N 
ATOM     29 2H10 UNL     1       4.667  19.771  11.071  1.00  0.00     0.280 HD
ATOM     30 1H10 UNL     1       5.215  19.703   9.618  1.00  0.00     0.280 HD
BRANCH  28  31
HETATM   31  C12 UNL     1       4.225  17.993  10.156  1.00  0.00     0.281 C 
BRANCH  31  32
HETATM   32  C13 UNL     1       2.899  18.544   9.646  1.00  0.00     0.268 C 
HETATM   33  F1  UNL     1       2.735  19.825  10.185  1.00  0.00    -0.239 F 
BRANCH  32  34
HETATM   34  C14 UNL     1       3.016  18.731   8.148  1.00  0.00     0.195 C 
HETATM   35  O5  UNL     1       4.036  19.146   7.650  1.00  0.00    -0.291 OA
BRANCH  34  36
HETATM   36  C15 UNL     1       1.857  18.406   7.294  1.00  0.00     0.114 C 
HETATM   37  C16 UNL     1       1.529  19.513   6.339  1.00  0.00     0.054 C 
HETATM   38  C17 UNL     1       0.625  18.345   8.259  1.00  0.00     0.054 C 
BRANCH  36  39
HETATM   39  O6  UNL     1       1.990  17.163   6.681  1.00  0.00    -0.383 OA
ATOM     40  H6  UNL     1       1.153  16.724   6.579  1.00  0.00     0.211 HD
ENDBRANCH  36  39
ENDBRANCH  34  36
ENDBRANCH  32  34
ENDBRANCH  31  32
ENDBRANCH  28  31
ENDBRANCH  25  28
ENDBRANCH  14  25
ENDBRANCH   6  10
BRANCH   5  41
HETATM   41  N5  UNL     1       6.494  20.434  16.458  1.00  0.00    -0.034 N 
ATOM     42  H53 UNL     1       5.662  21.022  16.406  1.00  0.00     0.279 HD
ATOM     43  H52 UNL     1       6.989  20.926  17.202  1.00  0.00     0.279 HD
ATOM     44  H51 UNL     1       7.020  20.454  15.585  1.00  0.00     0.279 HD
ENDBRANCH   5  41
BRANCH   7  45
HETATM   45  O8  UNL     1       5.057  16.235  16.659  1.00  0.00    -0.376 OA
ATOM     46  H8  UNL     1       5.576  15.685  16.084  1.00  0.00     0.212 HD
ENDBRANCH   7  45
BRANCH   3  47
HETATM   47  C4  UNL     1       3.655  20.066  19.026  1.00  0.00     0.171 A 
HETATM   48  N2  UNL     1       2.977  19.851  20.166  1.00  0.00    -0.240 N 
HETATM   49  O2  UNL     1       2.761  21.007  20.747  1.00  0.00    -0.200 OA
ATOM     50  H2  UNL     1       2.680  18.942  20.520  1.00  0.00     0.196 HD
HETATM   51  C5  UNL     1       3.265  21.985  20.040  1.00  0.00     0.242 A 
HETATM   52  N4  UNL     1       3.818  21.415  18.982  1.00  0.00    -0.304 N 
ATOM     53  H4  UNL     1       4.299  21.919  18.237  1.00  0.00     0.171 HD
BRANCH  51  54
HETATM   54  N3  UNL     1       3.258  23.256  20.276  1.00  0.00    -0.364 N 
ATOM     55  H32 UNL     1       3.133  23.677  21.197  1.00  0.00     0.159 HD
ATOM     56  H31 UNL     1       3.366  24.035  19.627  1.00  0.00     0.159 HD
ENDBRANCH  51  54
ENDBRANCH   3  47
BRANCH   1  57
HETATM   57  N1  UNL     1       1.545  17.128  17.915  1.00  0.00    -0.052 N 
HETATM   58  C1  UNL     1       0.889  16.468  16.805  1.00  0.00     0.270 C 
ATOM     59  H12 UNL     1       1.163  18.054  18.105  1.00  0.00     0.279 HD
ATOM     60  H11 UNL     1       1.324  16.701  18.814  1.00  0.00     0.279 HD
ENDBRANCH   1  57
BRANCH   9  61
HETATM   61  N11 UNL     1       2.117  19.812  16.835  1.00  0.00    -0.069 N 
ATOM     62 3H11 UNL     1       1.942  20.153  17.780  1.00  0.00     0.275 HD
ATOM     63 2H11 UNL     1       2.084  20.688  16.314  1.00  0.00     0.275 HD
ATOM     64 1H11 UNL     1       1.352  19.204  16.540  1.00  0.00     0.275 HD
ENDBRANCH   9  61
TORSDOF 18
ENDMDL
MODEL 2
REMARK VINA RESULT: -9.208113150      2.226      3.521
REMARK  18 active torsions:
REMARK  status: ('A' for Active; 'I' for Inactive)
REMARK    1  A    between atoms: N1_2  and  C2_5 
REMARK    2  A    between atoms: C3_7  and  C4_8 
REMARK    3  A    between atoms: C5_12  and  N3_13 
REMARK    4  A    between atoms: C6_19  and  N5_20 
REMARK    5  A    between atoms: N6_24  and  C7_25 
REMARK    6  A    between atoms: C8_28  and  C9_29 
REMARK    7  A    between atoms: C9_29  and  N8_30 
REMARK    8  A    between atoms: C9_29  and  N9_34 
REMARK    9  A    between atoms: C10_38  and  C11_39 
REMARK   10  A    between atoms: C11_39  and  O4_40 
REMARK   11  A    between atoms: C11_39  and  N10_42 
REMARK   12  A    between atoms: N10_42  and  C12_45 
REMARK   13  A    between atoms: C12_45  and  C13_46 
REMARK   14  A    between atoms: C13_46  and  C14_48 
REMARK   15  A    between atoms: C14_48  and  C15_50 
REMARK   16  A    between atoms: C15_50  and  O6_53 
REMARK   17  A    between atoms: C18_56  and  O8_57 
REMARK   18  A    between atoms: C20_60  and  N11_61 
ROOT
HETATM    1  C2  UNL     1       3.793  22.222  17.416  1.00  0.00     0.334 C 
HETATM    2  O1  UNL     1       2.840  21.305  17.778  1.00  0.00    -0.313 OA
HETATM    3  C3  UNL     1       3.328  20.021  17.517  1.00  0.00     0.261 C 
HETATM    4  O3  UNL     1       2.491  19.424  16.633  1.00  0.00    -0.297 OA
HETATM    5  C6  UNL     1       2.943  19.107  15.374  1.00  0.00     0.436 C 
HETATM    6  N6  UNL     1       3.769  20.072  14.753  1.00  0.00    -0.270 N 
HETATM    7  C18 UNL     1       4.121  21.424  15.146  1.00  0.00     0.238 C 
HETATM    8  C19 UNL     1       4.762  21.502  16.486  1.00  0.00     0.127 C 
HETATM    9  C20 UNL     1       4.761  20.130  17.141  1.00  0.00     0.266 C 
ENDROOT
BRANCH   6  10
HETATM   10  C7  UNL     1       4.382  19.667  13.510  1.00  0.00     0.232 A 
HETATM   11  N7  UNL     1       5.711  19.430  13.362  1.00  0.00    -0.320 N 
HETATM   12  C8  UNL     1       5.976  19.059  12.077  1.00  0.00     0.104 A 
ATOM     13  H7  UNL     1       6.408  19.516  14.102  1.00  0.00     0.169 HD
HETATM   14  C10 UNL     1       4.760  19.078  11.443  1.00  0.00     0.139 A 
HETATM   15  O7  UNL     1       3.852  19.449  12.343  1.00  0.00    -0.277 OA
BRANCH  12  16
HETATM   16  C9  UNL     1       7.338  18.698  11.622  1.00  0.00     0.430 C 
BRANCH  16  17
HETATM   17  N8  UNL     1       8.188  19.815  11.389  1.00  0.00    -0.045 N 
ATOM     18  H83 UNL     1       7.636  20.644  11.170  1.00  0.00     0.277 HD
ATOM     19  H82 UNL     1       8.621  20.122  12.260  1.00  0.00     0.277 HD
ATOM     20  H81 UNL     1       8.897  19.656  10.673  1.00  0.00     0.277 HD
ENDBRANCH  16  17
BRANCH  16  21
HETATM   21  N9  UNL     1       7.936  17.714  12.527  1.00  0.00    -0.045 N 
ATOM     22  H93 UNL     1       7.444  16.822  12.496  1.00  0.00     0.277 HD
ATOM     23  H92 UNL     1       8.847  17.397  12.194  1.00  0.00     0.277 HD
ATOM     24  H91 UNL     1       7.988  18.087  13.475  1.00  0.00     0.277 HD
ENDBRANCH  16  21
ENDBRANCH  12  16
BRANCH  14  25
HETATM   25  C11 UNL     1       4.552  18.744  10.034  1.00  0.00     0.379 C 
BRANCH  25  26
HETATM   26  O4  UNL     1       4.627  17.311   9.966  1.00  0.00    -0.365 OA
ATOM     27  H4  UNL     1       3.929  16.994  10.527  1.00  0.00     0.212 HD
ENDBRANCH  25  26
BRANCH  25  28
HETATM   28  N10 UNL     1       3.371  19.182   9.372  1.00  0.00    -0.040 N 
ATOM     29 2H10 UNL     1       2.536  18.851   9.857  1.00  0.00     0.280 HD
ATOM     30 1H10 UNL     1       3.240  20.187   9.486  1.00  0.00     0.280 HD
BRANCH  28  31
HETATM   31  C12 UNL     1       3.339  18.811   7.973  1.00  0.00     0.281 C 
BRANCH  31  32
HETATM   32  C13 UNL     1       1.885  18.751   7.520  1.00  0.00     0.268 C 
HETATM   33  F1  UNL     1       1.876  18.460   6.152  1.00  0.00    -0.239 F 
BRANCH  32  34
HETATM   34  C14 UNL     1       1.231  17.570   8.206  1.00  0.00     0.195 C 
HETATM   35  O5  UNL     1       1.871  16.828   8.913  1.00  0.00    -0.291 OA
BRANCH  34  36
HETATM   36  C15 UNL     1      -0.208  17.325   7.991  1.00  0.00     0.114 C 
HETATM   37  C16 UNL     1      -0.957  18.586   7.685  1.00  0.00     0.054 C 
HETATM   38  C17 UNL     1      -0.771  16.864   9.379  1.00  0.00     0.054 C 
BRANCH  36  39
HETATM   39  O6  UNL     1      -0.435  16.306   7.071  1.00  0.00    -0.383 OA
ATOM     40  H6  UNL     1      -0.667  16.643   6.213  1.00  0.00     0.211 HD
ENDBRANCH  36  39
ENDBRANCH  34  36
ENDBRANCH  32  34
ENDBRANCH  31  32
ENDBRANCH  28  31
ENDBRANCH  25  28
ENDBRANCH  14  25
ENDBRANCH   6  10
BRANCH   5  41
HETATM   41  N5  UNL     1       3.422  17.739  15.308  1.00  0.00    -0.034 N 
ATOM     42  H53 UNL     1       4.400  17.673  15.590  1.00  0.00     0.279 HD
ATOM     43  H52 UNL     1       3.007  17.163  16.039  1.00  0.00     0.279 HD
ATOM     44  H51 UNL     1       3.271  17.333  14.384  1.00  0.00     0.279 HD
ENDBRANCH   5  41
BRANCH   7  45
HETATM   45  O8  UNL     1       2.923  22.148  15.077  1.00  0.00    -0.376 OA
ATOM     46  H8  UNL     1       3.085  22.941  15.575  1.00  0.00     0.212 HD
ENDBRANCH   7  45
BRANCH   3  47
HETATM   47  C4  UNL     1       3.225  19.294  18.820  1.00  0.00     0.171 A 
HETATM   48  N2  UNL     1       2.981  19.829  20.028  1.00  0.00    -0.240 N 
HETATM   49  O2  UNL     1       2.953  18.862  20.914  1.00  0.00    -0.200 OA
ATOM     50  H2  UNL     1       2.841  20.820  20.223  1.00  0.00     0.196 HD
HETATM   51  C5  UNL     1       3.172  17.704  20.347  1.00  0.00     0.242 A 
HETATM   52  N4  UNL     1       3.338  17.960  19.060  1.00  0.00    -0.304 N 
ATOM     53  H4  UNL     1       3.525  17.255  18.348  1.00  0.00     0.171 HD
BRANCH  51  54
HETATM   54  N3  UNL     1       3.222  16.527  20.880  1.00  0.00    -0.364 N 
ATOM     55  H32 UNL     1       2.469  16.096  21.414  1.00  0.00     0.159 HD
ATOM     56  H31 UNL     1       3.981  15.845  20.870  1.00  0.00     0.159 HD
ENDBRANCH  51  54
ENDBRANCH   3  47
BRANCH   1  57
HETATM   57  N1  UNL     1       4.470  22.854  18.514  1.00  0.00    -0.052 N 
HETATM   58  C1  UNL     1       3.467  23.359  19.429  1.00  0.00     0.270 C 
ATOM     59  H12 UNL     1       5.125  23.575  18.211  1.00  0.00     0.279 HD
ATOM     60  H11 UNL     1       5.144  22.239  18.969  1.00  0.00     0.279 HD
ENDBRANCH   1  57
BRANCH   9  61
HETATM   61  N11 UNL     1       5.693  20.186  18.231  1.00  0.00    -0.069 N 
ATOM     62 3H11 UNL     1       5.836  21.155  18.515  1.00  0.00     0.275 HD
ATOM     63 2H11 UNL     1       5.263  19.808  19.075  1.00  0.00     0.275 HD
ATOM     64 1H11 UNL     1       6.595  19.737  18.070  1.00  0.00     0.275 HD
ENDBRANCH   9  61
TORSDOF 18
ENDMDL
MODEL 3
REMARK VINA RESULT: -9.139536788      0.959      1.222
REMARK  18 active torsions:
REMARK  status: ('A' for Active; 'I' for Inactive)
REMARK    1  A    between atoms: N1_2  and  C2_5 
REMARK    2  A    between atoms: C3_7  and  C4_8 
REMARK    3  A    between atoms: C5_12  and  N3_13 
REMARK    4  A    between atoms: C6_19  and  N5_20 
REMARK    5  A    between atoms: N6_24  and  C7_25 
REMARK    6  A    between atoms: C8_28  and  C9_29 
REMARK    7  A    between atoms: C9_29  and  N8_30 
REMARK    8  A    between atoms: C9_29  and  N9_34 
REMARK    9  A    between atoms: C10_38  and  C11_39 
REMARK   10  A    between atoms: C11_39  and  O4_40 
REMARK   11  A    between atoms: C11_39  and  N10_42 
REMARK   12  A    between atoms: N10_42  and  C12_45 
REMARK   13  A    between atoms: C12_45  and  C13_46 
REMARK   14  A    between atoms: C13_46  and  C14_48 
REMARK   15  A    between atoms: C14_48  and  C15_50 
REMARK   16  A    between atoms: C15_50  and  O6_53 
REMARK   17  A    between atoms: C18_56  and  O8_57 
REMARK   18  A    between atoms: C20_60  and  N11_61 
ROOT
HETATM    1  C2  UNL     1       2.768  17.318  17.535  1.00  0.00     0.334 C 
HETATM    2  O1  UNL     1       3.547  17.937  18.479  1.00  0.00    -0.313 OA
HETATM    3  C3  UNL     1       4.022  19.142  17.952  1.00  0.00     0.261 C 
HETATM    4  O3  UNL     1       5.377  19.096  17.950  1.00  0.00    -0.297 OA
HETATM    5  C6  UNL     1       6.057  19.099  16.754  1.00  0.00     0.436 C 
HETATM    6  N6  UNL     1       5.499  18.308  15.724  1.00  0.00    -0.270 N 
HETATM    7  C18 UNL     1       4.398  17.363  15.735  1.00  0.00     0.238 C 
HETATM    8  C19 UNL     1       3.114  17.957  16.196  1.00  0.00     0.127 C 
HETATM    9  C20 UNL     1       3.341  19.388  16.654  1.00  0.00     0.266 C 
ENDROOT
BRANCH   6  10
HETATM   10  C7  UNL     1       6.112  18.447  14.424  1.00  0.00     0.232 A 
HETATM   11  N7  UNL     1       7.443  18.636  14.230  1.00  0.00    -0.320 N 
HETATM   12  C8  UNL     1       7.709  18.724  12.895  1.00  0.00     0.104 A 
ATOM     13  H7  UNL     1       8.140  18.703  14.972  1.00  0.00     0.169 HD
HETATM   14  C10 UNL     1       6.492  18.581  12.280  1.00  0.00     0.139 A 
HETATM   15  O7  UNL     1       5.582  18.423  13.238  1.00  0.00    -0.277 OA
BRANCH  12  16
HETATM   16  C9  UNL     1       9.084  18.892  12.372  1.00  0.00     0.430 C 
BRANCH  16  17
HETATM   17  N8  UNL     1       9.141  19.279  11.004  1.00  0.00    -0.045 N 
ATOM     18  H83 UNL     1       8.232  19.620  10.691  1.00  0.00     0.277 HD
ATOM     19  H82 UNL     1       9.690  20.132  10.896  1.00  0.00     0.277 HD
ATOM     20  H81 UNL     1       9.484  18.550  10.379  1.00  0.00     0.277 HD
ENDBRANCH  16  17
BRANCH  16  21
HETATM   21  N9  UNL     1       9.858  19.781  13.241  1.00  0.00    -0.045 N 
ATOM     22  H93 UNL     1       9.274  20.212  13.958  1.00  0.00     0.277 HD
ATOM     23  H92 UNL     1      10.489  19.261  13.851  1.00  0.00     0.277 HD
ATOM     24  H91 UNL     1      10.355  20.478  12.687  1.00  0.00     0.277 HD
ENDBRANCH  16  21
ENDBRANCH  12  16
BRANCH  14  25
HETATM   25  C11 UNL     1       6.286  18.605  10.831  1.00  0.00     0.379 C 
BRANCH  25  26
HETATM   26  O4  UNL     1       6.734  17.325  10.359  1.00  0.00    -0.365 OA
ATOM     27  H4  UNL     1       7.082  17.483   9.490  1.00  0.00     0.212 HD
ENDBRANCH  25  26
BRANCH  25  28
HETATM   28  N10 UNL     1       4.988  18.868  10.308  1.00  0.00    -0.040 N 
ATOM     29 2H10 UNL     1       4.602  19.726  10.704  1.00  0.00     0.280 HD
ATOM     30 1H10 UNL     1       5.039  19.147   9.329  1.00  0.00     0.280 HD
BRANCH  28  31
HETATM   31  C12 UNL     1       4.075  17.758  10.485  1.00  0.00     0.281 C 
BRANCH  31  32
HETATM   32  C13 UNL     1       2.670  18.314  10.677  1.00  0.00     0.268 C 
HETATM   33  F1  UNL     1       2.772  19.704  10.796  1.00  0.00    -0.239 F 
BRANCH  32  34
HETATM   34  C14 UNL     1       1.888  18.057   9.404  1.00  0.00     0.195 C 
HETATM   35  O5  UNL     1       2.449  17.964   8.338  1.00  0.00    -0.291 OA
BRANCH  34  36
HETATM   36  C15 UNL     1       0.420  17.931   9.480  1.00  0.00     0.114 C 
HETATM   37  C16 UNL     1      -0.044  16.538   9.180  1.00  0.00     0.054 C 
HETATM   38  C17 UNL     1      -0.140  18.792   8.297  1.00  0.00     0.054 C 
BRANCH  36  39
HETATM   39  O6  UNL     1      -0.090  18.443  10.669  1.00  0.00    -0.383 OA
ATOM     40  H6  UNL     1      -0.677  19.175  10.520  1.00  0.00     0.211 HD
ENDBRANCH  36  39
ENDBRANCH  34  36
ENDBRANCH  32  34
ENDBRANCH  31  32
ENDBRANCH  28  31
ENDBRANCH  25  28
ENDBRANCH  14  25
ENDBRANCH   6  10
BRANCH   5  41
HETATM   41  N5  UNL     1       6.452  20.440  16.369  1.00  0.00    -0.034 N 
ATOM     42  H53 UNL     1       7.363  20.444  15.912  1.00  0.00     0.279 HD
ATOM     43  H52 UNL     1       5.885  20.788  15.595  1.00  0.00     0.279 HD
ATOM     44  H51 UNL     1       6.430  21.081  17.163  1.00  0.00     0.279 HD
ENDBRANCH   5  41
BRANCH   7  45
HETATM   45  O8  UNL     1       4.829  16.309  16.550  1.00  0.00    -0.376 OA
ATOM     46  H8  UNL     1       4.807  16.655  17.435  1.00  0.00     0.212 HD
ENDBRANCH   7  45
BRANCH   3  47
HETATM   47  C4  UNL     1       3.592  20.189  18.928  1.00  0.00     0.171 A 
HETATM   48  N2  UNL     1       2.955  19.995  20.095  1.00  0.00    -0.240 N 
HETATM   49  O2  UNL     1       2.769  21.161  20.668  1.00  0.00    -0.200 OA
ATOM     50  H2  UNL     1       2.666  19.094  20.472  1.00  0.00     0.196 HD
HETATM   51  C5  UNL     1       3.253  22.125  19.928  1.00  0.00     0.242 A 
HETATM   52  N4  UNL     1       3.762  21.537  18.859  1.00  0.00    -0.304 N 
ATOM     53  H4  UNL     1       4.218  22.027  18.089  1.00  0.00     0.171 HD
BRANCH  51  54
HETATM   54  N3  UNL     1       3.263  23.400  20.147  1.00  0.00    -0.364 N 
ATOM     55  H32 UNL     1       3.636  23.844  20.985  1.00  0.00     0.159 HD
ATOM     56  H31 UNL     1       2.919  24.159  19.560  1.00  0.00     0.159 HD
ENDBRANCH  51  54
ENDBRANCH   3  47
BRANCH   1  57
HETATM   57  N1  UNL     1       1.357  17.352  17.800  1.00  0.00    -0.052 N 
HETATM   58  C1  UNL     1       0.684  16.617  16.750  1.00  0.00     0.270 C 
ATOM     59  H12 UNL     1       1.000  18.302  17.908  1.00  0.00     0.279 HD
ATOM     60  H11 UNL     1       1.122  17.011  18.732  1.00  0.00     0.279 HD
ENDBRANCH   1  57
BRANCH   9  61
HETATM   61  N11 UNL     1       2.050  20.012  16.731  1.00  0.00    -0.069 N 
ATOM     62 3H11 UNL     1       1.648  20.092  15.798  1.00  0.00     0.275 HD
ATOM     63 2H11 UNL     1       1.383  19.375  17.166  1.00  0.00     0.275 HD
ATOM     64 1H11 UNL     1       2.020  20.918  17.200  1.00  0.00     0.275 HD
ENDBRANCH   9  61
TORSDOF 18
ENDMDL
MODEL 4
REMARK VINA RESULT: -9.049799266      2.463      3.777
REMARK  18 active torsions:
REMARK  status: ('A' for Active; 'I' for Inactive)
REMARK    1  A    between atoms: N1_2  and  C2_5 
REMARK    2  A    between atoms: C3_7  and  C4_8 
REMARK    3  A    between atoms: C5_12  and  N3_13 
REMARK    4  A    between atoms: C6_19  and  N5_20 
REMARK    5  A    between atoms: N6_24  and  C7_25 
REMARK    6  A    between atoms: C8_28  and  C9_29 
REMARK    7  A    between atoms: C9_29  and  N8_30 
REMARK    8  A    between atoms: C9_29  and  N9_34 
REMARK    9  A    between atoms: C10_38  and  C11_39 
REMARK   10  A    between atoms: C11_39  and  O4_40 
REMARK   11  A    between atoms: C11_39  and  N10_42 
REMARK   12  A    between atoms: N10_42  and  C12_45 
REMARK   13  A    between atoms: C12_45  and  C13_46 
REMARK   14  A    between atoms: C13_46  and  C14_48 
REMARK   15  A    between atoms: C14_48  and  C15_50 
REMARK   16  A    between atoms: C15_50  and  O6_53 
REMARK   17  A    between atoms: C18_56  and  O8_57 
REMARK   18  A    between atoms: C20_60  and  N11_61 
ROOT
HETATM    1  C2  UNL     1       3.958  22.175  17.325  1.00  0.00     0.334 C 
HETATM    2  O1  UNL     1       2.930  21.355  17.715  1.00  0.00    -0.313 OA
HETATM    3  C3  UNL     1       3.259  20.034  17.390  1.00  0.00     0.261 C 
HETATM    4  O3  UNL     1       2.315  19.563  16.537  1.00  0.00    -0.297 OA
HETATM    5  C6  UNL     1       2.662  19.243  15.246  1.00  0.00     0.436 C 
HETATM    6  N6  UNL     1       3.555  20.134  14.607  1.00  0.00    -0.270 N 
HETATM    7  C18 UNL     1       4.074  21.425  15.018  1.00  0.00     0.238 C 
HETATM    8  C19 UNL     1       4.790  21.386  16.322  1.00  0.00     0.127 C 
HETATM    9  C20 UNL     1       4.673  20.000  16.936  1.00  0.00     0.266 C 
ENDROOT
BRANCH   6  10
HETATM   10  C7  UNL     1       4.053  19.708  13.321  1.00  0.00     0.232 A 
HETATM   11  N7  UNL     1       5.370  19.662  12.994  1.00  0.00    -0.320 N 
HETATM   12  C8  UNL     1       5.516  19.213  11.715  1.00  0.00     0.104 A 
ATOM     13  H7  UNL     1       6.137  19.924  13.614  1.00  0.00     0.169 HD
HETATM   14  C10 UNL     1       4.239  18.986  11.270  1.00  0.00     0.139 A 
HETATM   15  O7  UNL     1       3.412  19.300  12.265  1.00  0.00    -0.277 OA
BRANCH  12  16
HETATM   16  C9  UNL     1       6.844  19.020  11.090  1.00  0.00     0.430 C 
BRANCH  16  17
HETATM   17  N8  UNL     1       7.896  19.731  11.732  1.00  0.00    -0.045 N 
ATOM     18  H83 UNL     1       7.728  20.736  11.686  1.00  0.00     0.277 HD
ATOM     19  H82 UNL     1       7.855  19.595  12.742  1.00  0.00     0.277 HD
ATOM     20  H81 UNL     1       8.826  19.507  11.378  1.00  0.00     0.277 HD
ENDBRANCH  16  17
BRANCH  16  21
HETATM   21  N9  UNL     1       7.138  17.592  10.943  1.00  0.00    -0.045 N 
ATOM     22  H93 UNL     1       6.819  17.054  11.748  1.00  0.00     0.277 HD
ATOM     23  H92 UNL     1       6.555  17.156  10.228  1.00  0.00     0.277 HD
ATOM     24  H91 UNL     1       8.132  17.449  10.761  1.00  0.00     0.277 HD
ENDBRANCH  16  21
ENDBRANCH  12  16
BRANCH  14  25
HETATM   25  C11 UNL     1       3.900  18.489   9.936  1.00  0.00     0.379 C 
BRANCH  25  26
HETATM   26  O4  UNL     1       4.364  17.130   9.905  1.00  0.00    -0.365 OA
ATOM     27  H4  UNL     1       3.589  16.601   9.751  1.00  0.00     0.212 HD
ENDBRANCH  25  26
BRANCH  25  28
HETATM   28  N10 UNL     1       2.549  18.531   9.490  1.00  0.00    -0.040 N 
ATOM     29 2H10 UNL     1       2.091  19.391   9.793  1.00  0.00     0.280 HD
ATOM     30 1H10 UNL     1       2.501  18.667   8.480  1.00  0.00     0.280 HD
BRANCH  28  31
HETATM   31  C12 UNL     1       1.786  17.368   9.894  1.00  0.00     0.281 C 
BRANCH  31  32
HETATM   32  C13 UNL     1       0.801  17.026   8.783  1.00  0.00     0.268 C 
HETATM   33  F1  UNL     1       0.163  15.830   9.132  1.00  0.00    -0.239 F 
BRANCH  32  34
HETATM   34  C14 UNL     1      -0.277  18.090   8.769  1.00  0.00     0.195 C 
HETATM   35  O5  UNL     1      -0.721  18.539   9.799  1.00  0.00    -0.291 OA
BRANCH  34  36
HETATM   36  C15 UNL     1      -0.791  18.570   7.473  1.00  0.00     0.114 C 
HETATM   37  C16 UNL     1       0.049  19.672   6.903  1.00  0.00     0.054 C 
HETATM   38  C17 UNL     1      -2.166  19.252   7.789  1.00  0.00     0.054 C 
BRANCH  36  39
HETATM   39  O6  UNL     1      -1.020  17.527   6.581  1.00  0.00    -0.383 OA
ATOM     40  H6  UNL     1      -0.317  16.888   6.589  1.00  0.00     0.211 HD
ENDBRANCH  36  39
ENDBRANCH  34  36
ENDBRANCH  32  34
ENDBRANCH  31  32
ENDBRANCH  28  31
ENDBRANCH  25  28
ENDBRANCH  14  25
ENDBRANCH   6  10
BRANCH   5  41
HETATM   41  N5  UNL     1       2.983  17.835  15.114  1.00  0.00    -0.034 N 
ATOM     42  H53 UNL     1       3.947  17.699  14.810  1.00  0.00     0.279 HD
ATOM     43  H52 UNL     1       3.038  17.378  16.024  1.00  0.00     0.279 HD
ATOM     44  H51 UNL     1       2.326  17.357  14.497  1.00  0.00     0.279 HD
ENDBRANCH   5  41
BRANCH   7  45
HETATM   45  O8  UNL     1       2.962  22.277  15.038  1.00  0.00    -0.376 OA
ATOM     46  H8  UNL     1       2.379  21.908  15.692  1.00  0.00     0.212 HD
ENDBRANCH   7  45
BRANCH   3  47
HETATM   47  C4  UNL     1       3.146  19.278  18.674  1.00  0.00     0.171 A 
HETATM   48  N2  UNL     1       2.996  19.794  19.906  1.00  0.00    -0.240 N 
HETATM   49  O2  UNL     1       2.921  18.805  20.766  1.00  0.00    -0.200 OA
ATOM     50  H2  UNL     1       2.949  20.786  20.135  1.00  0.00     0.196 HD
HETATM   51  C5  UNL     1       3.018  17.652  20.158  1.00  0.00     0.242 A 
HETATM   52  N4  UNL     1       3.155  17.933  18.873  1.00  0.00    -0.304 N 
ATOM     53  H4  UNL     1       3.253  17.237  18.134  1.00  0.00     0.171 HD
BRANCH  51  54
HETATM   54  N3  UNL     1       2.989  16.458  20.654  1.00  0.00    -0.364 N 
ATOM     55  H32 UNL     1       2.167  16.018  21.068  1.00  0.00     0.159 HD
ATOM     56  H31 UNL     1       3.738  15.770  20.727  1.00  0.00     0.159 HD
ENDBRANCH  51  54
ENDBRANCH   3  47
BRANCH   1  57
HETATM   57  N1  UNL     1       4.758  22.691  18.401  1.00  0.00    -0.052 N 
HETATM   58  C1  UNL     1       3.869  23.293  19.373  1.00  0.00     0.270 C 
ATOM     59  H12 UNL     1       5.484  23.332  18.080  1.00  0.00     0.279 HD
ATOM     60  H11 UNL     1       5.370  21.986  18.811  1.00  0.00     0.279 HD
ENDBRANCH   1  57
BRANCH   9  61
HETATM   61  N11 UNL     1       5.663  19.917  17.972  1.00  0.00    -0.069 N 
ATOM     62 3H11 UNL     1       6.122  20.820  18.086  1.00  0.00     0.275 HD
ATOM     63 2H11 UNL     1       5.207  19.827  18.880  1.00  0.00     0.275 HD
ATOM     64 1H11 UNL     1       6.364  19.184  17.862  1.00  0.00     0.275 HD
ENDBRANCH   9  61
TORSDOF 18
ENDMDL
MODEL 5
REMARK VINA RESULT: -8.871432507      1.930      2.473
REMARK  18 active torsions:
REMARK  status: ('A' for Active; 'I' for Inactive)
REMARK    1  A    between atoms: N1_2  and  C2_5 
REMARK    2  A    between atoms: C3_7  and  C4_8 
REMARK    3  A    between atoms: C5_12  and  N3_13 
REMARK    4  A    between atoms: C6_19  and  N5_20 
REMARK    5  A    between atoms: N6_24  and  C7_25 
REMARK    6  A    between atoms: C8_28  and  C9_29 
REMARK    7  A    between atoms: C9_29  and  N8_30 
REMARK    8  A    between atoms: C9_29  and  N9_34 
REMARK    9  A    between atoms: C10_38  and  C11_39 
REMARK   10  A    between atoms: C11_39  and  O4_40 
REMARK   11  A    between atoms: C11_39  and  N10_42 
REMARK   12  A    between atoms: N10_42  and  C12_45 
REMARK   13  A    between atoms: C12_45  and  C13_46 
REMARK   14  A    between atoms: C13_46  and  C14_48 
REMARK   15  A    between atoms: C14_48  and  C15_50 
REMARK   16  A    between atoms: C15_50  and  O6_53 
REMARK   17  A    between atoms: C18_56  and  O8_57 
REMARK   18  A    between atoms: C20_60  and  N11_61 
ROOT
HETATM    1  C2  UNL     1       3.054  17.003  17.698  1.00  0.00     0.334 C 
HETATM    2  O1  UNL     1       3.790  17.694  18.626  1.00  0.00    -0.313 OA
HETATM    3  C3  UNL     1       4.170  18.923  18.075  1.00  0.00     0.261 C 
HETATM    4  O3  UNL     1       5.524  18.979  18.063  1.00  0.00    -0.297 OA
HETATM    5  C6  UNL     1       6.194  19.012  16.863  1.00  0.00     0.436 C 
HETATM    6  N6  UNL     1       5.691  18.164  15.850  1.00  0.00    -0.270 N 
HETATM    7  C18 UNL     1       4.664  17.140  15.884  1.00  0.00     0.238 C 
HETATM    8  C19 UNL     1       3.342  17.643  16.346  1.00  0.00     0.127 C 
HETATM    9  C20 UNL     1       3.464  19.095  16.779  1.00  0.00     0.266 C 
ENDROOT
BRANCH   6  10
HETATM   10  C7  UNL     1       6.284  18.327  14.543  1.00  0.00     0.232 A 
HETATM   11  N7  UNL     1       7.605  18.557  14.333  1.00  0.00    -0.320 N 
HETATM   12  C8  UNL     1       7.852  18.658  12.996  1.00  0.00     0.104 A 
ATOM     13  H7  UNL     1       8.309  18.642  15.067  1.00  0.00     0.169 HD
HETATM   14  C10 UNL     1       6.633  18.480  12.395  1.00  0.00     0.139 A 
HETATM   15  O7  UNL     1       5.739  18.291  13.363  1.00  0.00    -0.277 OA
BRANCH  12  16
HETATM   16  C9  UNL     1       9.215  18.870  12.457  1.00  0.00     0.430 C 
BRANCH  16  17
HETATM   17  N8  UNL     1       9.240  19.349  11.117  1.00  0.00    -0.045 N 
ATOM     18  H83 UNL     1       8.386  19.085  10.627  1.00  0.00     0.277 HD
ATOM     19  H82 UNL     1       9.143  20.364  11.098  1.00  0.00     0.277 HD
ATOM     20  H81 UNL     1      10.062  19.058  10.587  1.00  0.00     0.277 HD
ENDBRANCH  16  17
BRANCH  16  21
HETATM   21  N9  UNL     1      10.003  19.703  13.367  1.00  0.00    -0.045 N 
ATOM     22  H93 UNL     1       9.529  20.581  13.583  1.00  0.00     0.277 HD
ATOM     23  H92 UNL     1      10.033  19.312  14.309  1.00  0.00     0.277 HD
ATOM     24  H91 UNL     1      10.938  19.859  12.991  1.00  0.00     0.277 HD
ENDBRANCH  16  21
ENDBRANCH  12  16
BRANCH  14  25
HETATM   25  C11 UNL     1       6.408  18.504  10.949  1.00  0.00     0.379 C 
BRANCH  25  26
HETATM   26  O4  UNL     1       7.003  17.296  10.450  1.00  0.00    -0.365 OA
ATOM     27  H4  UNL     1       6.426  16.595  10.729  1.00  0.00     0.212 HD
ENDBRANCH  25  26
BRANCH  25  28
HETATM   28  N10 UNL     1       5.082  18.615  10.444  1.00  0.00    -0.040 N 
ATOM     29 2H10 UNL     1       5.086  18.736   9.431  1.00  0.00     0.280 HD
ATOM     30 1H10 UNL     1       4.593  17.721  10.501  1.00  0.00     0.280 HD
BRANCH  28  31
HETATM   31  C12 UNL     1       4.320  19.664  11.088  1.00  0.00     0.281 C 
BRANCH  31  32
HETATM   32  C13 UNL     1       2.949  19.111  11.457  1.00  0.00     0.268 C 
HETATM   33  F1  UNL     1       3.089  17.738  11.682  1.00  0.00    -0.239 F 
BRANCH  32  34
HETATM   34  C14 UNL     1       2.543  19.716  12.785  1.00  0.00     0.195 C 
HETATM   35  O5  UNL     1       3.331  20.349  13.447  1.00  0.00    -0.291 OA
BRANCH  34  36
HETATM   36  C15 UNL     1       1.165  19.515  13.271  1.00  0.00     0.114 C 
HETATM   37  C16 UNL     1       0.193  19.311  12.149  1.00  0.00     0.054 C 
HETATM   38  C17 UNL     1       0.739  20.879  13.913  1.00  0.00     0.054 C 
BRANCH  36  39
HETATM   39  O6  UNL     1       1.094  18.532  14.254  1.00  0.00    -0.383 OA
ATOM     40  H6  UNL     1       0.826  17.692  13.902  1.00  0.00     0.211 HD
ENDBRANCH  36  39
ENDBRANCH  34  36
ENDBRANCH  32  34
ENDBRANCH  31  32
ENDBRANCH  28  31
ENDBRANCH  25  28
ENDBRANCH  14  25
ENDBRANCH   6  10
BRANCH   5  41
HETATM   41  N5  UNL     1       6.485  20.373  16.452  1.00  0.00    -0.034 N 
ATOM     42  H53 UNL     1       6.395  21.025  17.231  1.00  0.00     0.279 HD
ATOM     43  H52 UNL     1       7.477  20.499  16.254  1.00  0.00     0.279 HD
ATOM     44  H51 UNL     1       5.909  20.656  15.660  1.00  0.00     0.279 HD
ENDBRANCH   5  41
BRANCH   7  45
HETATM   45  O8  UNL     1       5.178  16.135  16.714  1.00  0.00    -0.376 OA
ATOM     46  H8  UNL     1       5.123  16.488  17.594  1.00  0.00     0.212 HD
ENDBRANCH   7  45
BRANCH   3  47
HETATM   47  C4  UNL     1       3.669  19.952  19.037  1.00  0.00     0.171 A 
HETATM   48  N2  UNL     1       2.966  19.734  20.162  1.00  0.00    -0.240 N 
HETATM   49  O2  UNL     1       2.731  20.889  20.737  1.00  0.00    -0.200 OA
ATOM     50  H2  UNL     1       2.667  18.824  20.509  1.00  0.00     0.196 HD
HETATM   51  C5  UNL     1       3.245  21.869  20.040  1.00  0.00     0.242 A 
HETATM   52  N4  UNL     1       3.825  21.302  18.995  1.00  0.00    -0.304 N 
ATOM     53  H4  UNL     1       4.319  21.808  18.261  1.00  0.00     0.171 HD
BRANCH  51  54
HETATM   54  N3  UNL     1       3.226  23.141  20.275  1.00  0.00    -0.364 N 
ATOM     55  H32 UNL     1       3.672  23.593  21.072  1.00  0.00     0.159 HD
ATOM     56  H31 UNL     1       2.784  23.890  19.743  1.00  0.00     0.159 HD
ENDBRANCH  51  54
ENDBRANCH   3  47
BRANCH   1  57
HETATM   57  N1  UNL     1       1.646  16.936  17.973  1.00  0.00    -0.052 N 
HETATM   58  C1  UNL     1       1.002  16.266  16.863  1.00  0.00     0.270 C 
ATOM     59  H12 UNL     1       1.239  17.851  18.172  1.00  0.00     0.279 HD
ATOM     60  H11 UNL     1       1.440  16.498  18.871  1.00  0.00     0.279 HD
ENDBRANCH   1  57
BRANCH   9  61
HETATM   61  N11 UNL     1       2.130  19.622  16.856  1.00  0.00    -0.069 N 
ATOM     62 3H11 UNL     1       2.114  20.576  16.498  1.00  0.00     0.275 HD
ATOM     63 2H11 UNL     1       1.535  19.158  16.170  1.00  0.00     0.275 HD
ATOM     64 1H11 UNL     1       1.690  19.589  17.775  1.00  0.00     0.275 HD
ENDBRANCH   9  61
TORSDOF 18
ENDMDL
