MODEL 1
REMARK VINA RESULT: -8.726587916      0.000      0.000
REMARK  13 active torsions:
REMARK  status: ('A' for Active; 'I' for Inactive)
REMARK    1  A    between atoms: C2_2  and  C4_4 
REMARK    2  A    between atoms: C4_4  and  C5_5 
REMARK    3  A    between atoms: C7_10  and  C8_11 
REMARK    4  A    between atoms: C8_11  and  C9_12 
REMARK    5  A    between atoms: C9_12  and  N2_13 
REMARK    6  A    between atoms: C16_24  and  O2_25 
REMARK    7  A    between atoms: C17_27  and  C18_28 
REMARK    8  A    between atoms: C21_33  and  C22_34 
REMARK    9  A    between atoms: C22_34  and  C23_35 
REMARK   10  A    between atoms: C23_35  and  C25_37 
REMARK   11  A    between atoms: C25_37  and  N7_38 
REMARK   12  A    between atoms: N7_38  and  C28_41 
REMARK   13  A    between atoms: C28_41  and  C29_42 
ROOT
HETATM    1  C5  UNL     1      19.351  30.583  14.509  1.00  0.00     0.177 C 
HETATM    2  N1  UNL     1      18.513  31.045  15.599  1.00  0.00    -0.344 N 
ATOM      3  H1  UNL     1      18.512  30.485  16.451  1.00  0.00     0.163 HD
HETATM    4  C6  UNL     1      17.697  32.199  15.591  1.00  0.00     0.248 C 
HETATM    5  O1  UNL     1      16.480  32.002  15.959  1.00  0.00    -0.268 OA
HETATM    6  C7  UNL     1      18.047  33.548  15.231  1.00  0.00     0.009 C 
HETATM    7  C11 UNL     1      19.083  34.231  15.732  1.00  0.00     0.011 C 
HETATM    8  C12 UNL     1      20.027  33.688  16.745  1.00  0.00     0.109 C 
HETATM    9  C13 UNL     1      19.455  34.014  18.150  1.00  0.00     0.031 C 
HETATM   10  C14 UNL     1      19.545  35.523  18.095  1.00  0.00     0.022 C 
HETATM   11  C15 UNL     1      20.697  35.856  17.174  1.00  0.00     0.125 C 
HETATM   12  N5  UNL     1      21.200  34.524  16.793  1.00  0.00    -0.356 N 
HETATM   13  C16 UNL     1      22.537  34.132  16.553  1.00  0.00     0.137 C 
HETATM   14  C17 UNL     1      23.101  33.516  15.342  1.00  0.00     0.156 C 
HETATM   15  N6  UNL     1      22.314  32.661  14.583  1.00  0.00    -0.390 N 
ATOM     16  H6  UNL     1      21.513  33.035  14.075  1.00  0.00     0.156 HD
HETATM   17  C21 UNL     1      22.606  31.272  14.501  1.00  0.00     0.180 C 
HETATM   18  N9  UNL     1      21.785  30.441  15.381  1.00  0.00    -0.339 N 
ATOM     19  H9  UNL     1      22.177  30.227  16.298  1.00  0.00     0.164 HD
HETATM   20  C30 UNL     1      20.533  29.913  15.106  1.00  0.00     0.242 C 
HETATM   21  O4  UNL     1      20.336  28.676  15.396  1.00  0.00    -0.271 OA
ENDROOT
BRANCH  17  22
HETATM   22  C22 UNL     1      22.675  30.696  13.113  1.00  0.00     0.052 C 
BRANCH  22  23
HETATM   23  C23 UNL     1      23.638  29.570  12.903  1.00  0.00     0.011 C 
HETATM   24  C24 UNL     1      24.738  29.778  13.933  1.00  0.00     0.012 C 
BRANCH  23  25
HETATM   25  C25 UNL     1      24.106  29.313  11.558  1.00  0.00     0.246 C 
BRANCH  25  26
HETATM   26  N7  UNL     1      24.623  28.085  11.068  1.00  0.00    -0.050 N 
HETATM   27  C26 UNL     1      24.727  27.931   9.655  1.00  0.00     0.278 C 
HETATM   28  C27 UNL     1      25.901  27.757  11.731  1.00  0.00     0.278 C 
BRANCH  26  29
HETATM   29  C28 UNL     1      23.728  27.060  11.557  1.00  0.00     0.272 C 
BRANCH  29  30
HETATM   30  C29 UNL     1      23.346  25.982  10.685  1.00  0.00     0.278 C 
HETATM   31  N8  UNL     1      22.134  25.696  10.045  1.00  0.00    -0.057 NA
HETATM   32  O3  UNL     1      24.276  25.113  10.437  1.00  0.00    -0.270 OA
ENDBRANCH  29  30
ENDBRANCH  26  29
ENDBRANCH  25  26
ENDBRANCH  23  25
ENDBRANCH  22  23
ENDBRANCH  17  22
BRANCH  14  33
HETATM   33  C18 UNL     1      23.728  34.610  14.467  1.00  0.00     0.008 C 
HETATM   34  C19 UNL     1      23.131  35.921  14.853  1.00  0.00     0.012 C 
HETATM   35  C20 UNL     1      25.210  34.634  14.675  1.00  0.00     0.012 C 
ENDBRANCH  14  33
BRANCH  13  36
HETATM   36  O2  UNL     1      23.402  34.333  17.505  1.00  0.00    -0.348 OA
ATOM     37  H2  UNL     1      23.176  34.967  18.176  1.00  0.00     0.219 HD
ENDBRANCH  13  36
BRANCH   1  38
HETATM   38  C4  UNL     1      18.682  29.588  13.623  1.00  0.00     0.038 C 
BRANCH  38  39
HETATM   39  C2  UNL     1      19.033  29.609  12.188  1.00  0.00    -0.020 C 
HETATM   40  C1  UNL     1      17.790  29.151  11.405  1.00  0.00     0.009 C 
HETATM   41  C3  UNL     1      20.051  28.491  11.929  1.00  0.00     0.009 C 
ENDBRANCH  38  39
ENDBRANCH   1  38
BRANCH   6  42
HETATM   42  C8  UNL     1      17.183  34.274  14.231  1.00  0.00     0.063 C 
BRANCH  42  43
HETATM   43  C9  UNL     1      16.196  35.209  14.847  1.00  0.00     0.126 C 
BRANCH  43  44
HETATM   44  N2  UNL     1      16.574  35.673  16.158  1.00  0.00    -0.367 N 
HETATM   45  C10 UNL     1      15.908  35.331  17.183  1.00  0.00     0.196 C 
HETATM   46  N3  UNL     1      14.764  34.488  17.171  1.00  0.00    -0.067 NA
HETATM   47  N4  UNL     1      16.336  35.828  18.456  1.00  0.00    -0.067 NA
ATOM     48  H2  UNL     1      17.385  36.283  16.264  1.00  0.00     0.161 HD
ENDBRANCH  43  44
ENDBRANCH  42  43
ENDBRANCH   6  42
TORSDOF 13
ENDMDL
MODEL 2
REMARK VINA RESULT: -8.064443327      4.808      7.541
REMARK  13 active torsions:
REMARK  status: ('A' for Active; 'I' for Inactive)
REMARK    1  A    between atoms: C2_2  and  C4_4 
REMARK    2  A    between atoms: C4_4  and  C5_5 
REMARK    3  A    between atoms: C7_10  and  C8_11 
REMARK    4  A    between atoms: C8_11  and  C9_12 
REMARK    5  A    between atoms: C9_12  and  N2_13 
REMARK    6  A    between atoms: C16_24  and  O2_25 
REMARK    7  A    between atoms: C17_27  and  C18_28 
REMARK    8  A    between atoms: C21_33  and  C22_34 
REMARK    9  A    between atoms: C22_34  and  C23_35 
REMARK   10  A    between atoms: C23_35  and  C25_37 
REMARK   11  A    between atoms: C25_37  and  N7_38 
REMARK   12  A    between atoms: N7_38  and  C28_41 
REMARK   13  A    between atoms: C28_41  and  C29_42 
ROOT
HETATM    1  C5  UNL     1      19.655  37.451  17.731  1.00  0.00     0.177 C 
HETATM    2  N1  UNL     1      19.304  38.422  18.751  1.00  0.00    -0.344 N 
ATOM      3  H1  UNL     1      19.718  38.292  19.674  1.00  0.00     0.163 HD
HETATM    4  C6  UNL     1      18.442  39.530  18.585  1.00  0.00     0.248 C 
HETATM    5  O1  UNL     1      17.518  39.632  19.474  1.00  0.00    -0.268 OA
HETATM    6  C7  UNL     1      18.466  40.545  17.566  1.00  0.00     0.009 C 
HETATM    7  C11 UNL     1      19.538  41.274  17.234  1.00  0.00     0.011 C 
HETATM    8  C12 UNL     1      20.870  41.139  17.882  1.00  0.00     0.109 C 
HETATM    9  C13 UNL     1      20.906  42.099  19.100  1.00  0.00     0.031 C 
HETATM   10  C14 UNL     1      20.805  43.416  18.363  1.00  0.00     0.022 C 
HETATM   11  C15 UNL     1      21.425  43.200  17.001  1.00  0.00     0.125 C 
HETATM   12  N5  UNL     1      21.861  41.794  17.065  1.00  0.00    -0.356 N 
HETATM   13  C16 UNL     1      23.009  41.208  16.484  1.00  0.00     0.137 C 
HETATM   14  C17 UNL     1      23.078  40.073  15.550  1.00  0.00     0.156 C 
HETATM   15  N6  UNL     1      22.142  39.054  15.646  1.00  0.00    -0.390 N 
ATOM     16  H6  UNL     1      21.167  39.245  15.415  1.00  0.00     0.156 HD
HETATM   17  C21 UNL     1      22.517  37.748  16.061  1.00  0.00     0.180 C 
HETATM   18  N9  UNL     1      22.231  37.469  17.468  1.00  0.00    -0.339 N 
ATOM     19  H9  UNL     1      22.989  37.639  18.128  1.00  0.00     0.164 HD
HETATM   20  C30 UNL     1      21.042  36.997  18.003  1.00  0.00     0.242 C 
HETATM   21  O4  UNL     1      21.115  36.037  18.855  1.00  0.00    -0.271 OA
ENDROOT
BRANCH  17  22
HETATM   22  C22 UNL     1      22.061  36.620  15.176  1.00  0.00     0.052 C 
BRANCH  22  23
HETATM   23  C23 UNL     1      22.573  35.254  15.515  1.00  0.00     0.011 C 
HETATM   24  C24 UNL     1      23.926  35.145  14.828  1.00  0.00     0.012 C 
BRANCH  23  25
HETATM   25  C25 UNL     1      21.693  34.125  15.308  1.00  0.00     0.246 C 
BRANCH  25  26
HETATM   26  N7  UNL     1      21.501  33.035  16.198  1.00  0.00    -0.050 N 
HETATM   27  C26 UNL     1      22.498  32.813  17.192  1.00  0.00     0.278 C 
HETATM   28  C27 UNL     1      20.155  33.089  16.804  1.00  0.00     0.278 C 
BRANCH  26  29
HETATM   29  C28 UNL     1      21.439  31.856  15.366  1.00  0.00     0.272 C 
BRANCH  29  30
HETATM   30  C29 UNL     1      21.836  31.943  13.986  1.00  0.00     0.278 C 
HETATM   31  N8  UNL     1      21.090  32.159  12.821  1.00  0.00    -0.057 NA
HETATM   32  O3  UNL     1      23.106  31.801  13.764  1.00  0.00    -0.270 OA
ENDBRANCH  29  30
ENDBRANCH  26  29
ENDBRANCH  25  26
ENDBRANCH  23  25
ENDBRANCH  22  23
ENDBRANCH  17  22
BRANCH  14  33
HETATM   33  C18 UNL     1      23.164  40.610  14.114  1.00  0.00     0.008 C 
HETATM   34  C19 UNL     1      22.025  40.048  13.332  1.00  0.00     0.012 C 
HETATM   35  C20 UNL     1      23.097  42.104  14.130  1.00  0.00     0.012 C 
ENDBRANCH  14  33
BRANCH  13  36
HETATM   36  O2  UNL     1      24.166  41.719  16.794  1.00  0.00    -0.348 OA
ATOM     37  H2  UNL     1      24.730  41.990  16.079  1.00  0.00     0.219 HD
ENDBRANCH  13  36
BRANCH   1  38
HETATM   38  C4  UNL     1      18.787  36.240  17.738  1.00  0.00     0.038 C 
BRANCH  38  39
HETATM   39  C2  UNL     1      17.430  36.370  17.168  1.00  0.00    -0.020 C 
HETATM   40  C1  UNL     1      16.428  36.154  18.315  1.00  0.00     0.009 C 
HETATM   41  C3  UNL     1      17.182  35.169  16.245  1.00  0.00     0.009 C 
ENDBRANCH  38  39
ENDBRANCH   1  38
BRANCH   6  42
HETATM   42  C8  UNL     1      17.193  40.842  16.814  1.00  0.00     0.063 C 
BRANCH  42  43
HETATM   43  C9  UNL     1      16.900  42.299  16.669  1.00  0.00     0.126 C 
BRANCH  43  44
HETATM   44  N2  UNL     1      15.539  42.653  16.982  1.00  0.00    -0.367 N 
HETATM   45  C10 UNL     1      15.226  43.055  18.144  1.00  0.00     0.196 C 
HETATM   46  N3  UNL     1      16.130  43.202  19.230  1.00  0.00    -0.067 NA
HETATM   47  N4  UNL     1      13.855  43.389  18.390  1.00  0.00    -0.067 NA
ATOM     48  H2  UNL     1      14.820  42.580  16.262  1.00  0.00     0.161 HD
ENDBRANCH  43  44
ENDBRANCH  42  43
ENDBRANCH   6  42
TORSDOF 13
ENDMDL
MODEL 3
REMARK VINA RESULT: -8.057808783      4.807      7.508
REMARK  13 active torsions:
REMARK  status: ('A' for Active; 'I' for Inactive)
REMARK    1  A    between atoms: C2_2  and  C4_4 
REMARK    2  A    between atoms: C4_4  and  C5_5 
REMARK    3  A    between atoms: C7_10  and  C8_11 
REMARK    4  A    between atoms: C8_11  and  C9_12 
REMARK    5  A    between atoms: C9_12  and  N2_13 
REMARK    6  A    between atoms: C16_24  and  O2_25 
REMARK    7  A    between atoms: C17_27  and  C18_28 
REMARK    8  A    between atoms: C21_33  and  C22_34 
REMARK    9  A    between atoms: C22_34  and  C23_35 
REMARK   10  A    between atoms: C23_35  and  C25_37 
REMARK   11  A    between atoms: C25_37  and  N7_38 
REMARK   12  A    between atoms: N7_38  and  C28_41 
REMARK   13  A    between atoms: C28_41  and  C29_42 
ROOT
HETATM    1  C5  UNL     1      19.352  37.677  18.125  1.00  0.00     0.177 C 
HETATM    2  N1  UNL     1      19.158  38.792  19.033  1.00  0.00    -0.344 N 
ATOM      3  H1  UNL     1      19.623  38.737  19.939  1.00  0.00     0.163 HD
HETATM    4  C6  UNL     1      18.385  39.948  18.778  1.00  0.00     0.248 C 
HETATM    5  O1  UNL     1      17.537  40.243  19.700  1.00  0.00    -0.268 OA
HETATM    6  C7  UNL     1      18.425  40.825  17.639  1.00  0.00     0.009 C 
HETATM    7  C11 UNL     1      19.530  41.405  17.155  1.00  0.00     0.011 C 
HETATM    8  C12 UNL     1      20.887  41.225  17.736  1.00  0.00     0.109 C 
HETATM    9  C13 UNL     1      21.090  42.317  18.818  1.00  0.00     0.031 C 
HETATM   10  C14 UNL     1      21.051  43.540  17.927  1.00  0.00     0.022 C 
HETATM   11  C15 UNL     1      21.554  43.103  16.569  1.00  0.00     0.125 C 
HETATM   12  N5  UNL     1      21.871  41.680  16.786  1.00  0.00    -0.356 N 
HETATM   13  C16 UNL     1      22.921  40.924  16.217  1.00  0.00     0.137 C 
HETATM   14  C17 UNL     1      22.827  39.683  15.432  1.00  0.00     0.156 C 
HETATM   15  N6  UNL     1      21.816  38.775  15.711  1.00  0.00    -0.390 N 
ATOM     16  H6  UNL     1      20.847  39.027  15.515  1.00  0.00     0.156 HD
HETATM   17  C21 UNL     1      22.106  37.499  16.266  1.00  0.00     0.180 C 
HETATM   18  N9  UNL     1      21.896  37.420  17.712  1.00  0.00    -0.339 N 
ATOM     19  H9  UNL     1      22.710  37.597  18.299  1.00  0.00     0.164 HD
HETATM   20  C30 UNL     1      20.710  37.131  18.371  1.00  0.00     0.242 C 
HETATM   21  O4  UNL     1      20.761  36.278  19.331  1.00  0.00    -0.271 OA
ENDROOT
BRANCH  17  22
HETATM   22  C22 UNL     1      21.494  36.320  15.560  1.00  0.00     0.052 C 
BRANCH  22  23
HETATM   23  C23 UNL     1      22.289  35.052  15.562  1.00  0.00     0.011 C 
HETATM   24  C24 UNL     1      23.692  35.450  15.131  1.00  0.00     0.012 C 
BRANCH  23  25
HETATM   25  C25 UNL     1      21.744  33.903  14.872  1.00  0.00     0.246 C 
BRANCH  25  26
HETATM   26  N7  UNL     1      21.801  32.554  15.311  1.00  0.00    -0.050 N 
HETATM   27  C26 UNL     1      22.801  31.716  14.735  1.00  0.00     0.278 C 
HETATM   28  C27 UNL     1      21.843  32.488  16.786  1.00  0.00     0.278 C 
BRANCH  26  29
HETATM   29  C28 UNL     1      20.512  31.983  14.994  1.00  0.00     0.272 C 
BRANCH  29  30
HETATM   30  C29 UNL     1      19.869  32.336  13.757  1.00  0.00     0.278 C 
HETATM   31  N8  UNL     1      20.276  32.180  12.427  1.00  0.00    -0.057 NA
HETATM   32  O3  UNL     1      18.705  32.896  13.877  1.00  0.00    -0.270 OA
ENDBRANCH  29  30
ENDBRANCH  26  29
ENDBRANCH  25  26
ENDBRANCH  23  25
ENDBRANCH  22  23
ENDBRANCH  17  22
BRANCH  14  33
HETATM   33  C18 UNL     1      22.858  40.031  13.937  1.00  0.00     0.008 C 
HETATM   34  C19 UNL     1      21.461  39.998  13.416  1.00  0.00     0.012 C 
HETATM   35  C20 UNL     1      23.450  41.392  13.750  1.00  0.00     0.012 C 
ENDBRANCH  14  33
BRANCH  13  36
HETATM   36  O2  UNL     1      24.137  41.358  16.391  1.00  0.00    -0.348 OA
ATOM     37  H2  UNL     1      24.769  41.175  15.706  1.00  0.00     0.219 HD
ENDBRANCH  13  36
BRANCH   1  38
HETATM   38  C4  UNL     1      18.386  36.562  18.336  1.00  0.00     0.038 C 
BRANCH  38  39
HETATM   39  C2  UNL     1      17.876  35.866  17.137  1.00  0.00    -0.020 C 
HETATM   40  C1  UNL     1      16.409  35.494  17.411  1.00  0.00     0.009 C 
HETATM   41  C3  UNL     1      18.577  34.504  17.040  1.00  0.00     0.009 C 
ENDBRANCH  38  39
ENDBRANCH   1  38
BRANCH   6  42
HETATM   42  C8  UNL     1      17.132  41.147  16.932  1.00  0.00     0.063 C 
BRANCH  42  43
HETATM   43  C9  UNL     1      16.518  42.442  17.351  1.00  0.00     0.126 C 
BRANCH  43  44
HETATM   44  N2  UNL     1      15.793  42.366  18.595  1.00  0.00    -0.367 N 
HETATM   45  C10 UNL     1      14.642  42.888  18.706  1.00  0.00     0.196 C 
HETATM   46  N3  UNL     1      13.952  43.576  17.672  1.00  0.00    -0.067 NA
HETATM   47  N4  UNL     1      13.977  42.779  19.970  1.00  0.00    -0.067 NA
ATOM     48  H2  UNL     1      16.211  41.889  19.394  1.00  0.00     0.161 HD
ENDBRANCH  43  44
ENDBRANCH  42  43
ENDBRANCH   6  42
TORSDOF 13
ENDMDL
MODEL 4
REMARK VINA RESULT: -7.945282361      5.047      7.704
REMARK  13 active torsions:
REMARK  status: ('A' for Active; 'I' for Inactive)
REMARK    1  A    between atoms: C2_2  and  C4_4 
REMARK    2  A    between atoms: C4_4  and  C5_5 
REMARK    3  A    between atoms: C7_10  and  C8_11 
REMARK    4  A    between atoms: C8_11  and  C9_12 
REMARK    5  A    between atoms: C9_12  and  N2_13 
REMARK    6  A    between atoms: C16_24  and  O2_25 
REMARK    7  A    between atoms: C17_27  and  C18_28 
REMARK    8  A    between atoms: C21_33  and  C22_34 
REMARK    9  A    between atoms: C22_34  and  C23_35 
REMARK   10  A    between atoms: C23_35  and  C25_37 
REMARK   11  A    between atoms: C25_37  and  N7_38 
REMARK   12  A    between atoms: N7_38  and  C28_41 
REMARK   13  A    between atoms: C28_41  and  C29_42 
ROOT
HETATM    1  C5  UNL     1      19.399  37.717  18.150  1.00  0.00     0.177 C 
HETATM    2  N1  UNL     1      19.215  38.833  19.059  1.00  0.00    -0.344 N 
ATOM      3  H1  UNL     1      19.687  38.777  19.961  1.00  0.00     0.163 HD
HETATM    4  C6  UNL     1      18.443  39.990  18.810  1.00  0.00     0.248 C 
HETATM    5  O1  UNL     1      17.604  40.288  19.738  1.00  0.00    -0.268 OA
HETATM    6  C7  UNL     1      18.476  40.867  17.670  1.00  0.00     0.009 C 
HETATM    7  C11 UNL     1      19.578  41.444  17.177  1.00  0.00     0.011 C 
HETATM    8  C12 UNL     1      20.940  41.261  17.746  1.00  0.00     0.109 C 
HETATM    9  C13 UNL     1      21.154  42.353  18.826  1.00  0.00     0.031 C 
HETATM   10  C14 UNL     1      21.111  43.575  17.935  1.00  0.00     0.022 C 
HETATM   11  C15 UNL     1      21.602  43.137  16.573  1.00  0.00     0.125 C 
HETATM   12  N5  UNL     1      21.916  41.713  16.787  1.00  0.00    -0.356 N 
HETATM   13  C16 UNL     1      22.960  40.954  16.210  1.00  0.00     0.137 C 
HETATM   14  C17 UNL     1      22.856  39.713  15.427  1.00  0.00     0.156 C 
HETATM   15  N6  UNL     1      21.845  38.807  15.715  1.00  0.00    -0.390 N 
ATOM     16  H6  UNL     1      20.875  39.062  15.527  1.00  0.00     0.156 HD
HETATM   17  C21 UNL     1      22.136  37.531  16.268  1.00  0.00     0.180 C 
HETATM   18  N9  UNL     1      21.938  37.454  17.715  1.00  0.00    -0.339 N 
ATOM     19  H9  UNL     1      22.758  37.629  18.296  1.00  0.00     0.164 HD
HETATM   20  C30 UNL     1      20.758  37.168  18.385  1.00  0.00     0.242 C 
HETATM   21  O4  UNL     1      20.814  36.315  19.345  1.00  0.00    -0.271 OA
ENDROOT
BRANCH  17  22
HETATM   22  C22 UNL     1      21.516  36.354  15.567  1.00  0.00     0.052 C 
BRANCH  22  23
HETATM   23  C23 UNL     1      22.306  35.082  15.568  1.00  0.00     0.011 C 
HETATM   24  C24 UNL     1      23.709  35.475  15.131  1.00  0.00     0.012 C 
BRANCH  23  25
HETATM   25  C25 UNL     1      21.754  33.935  14.880  1.00  0.00     0.246 C 
BRANCH  25  26
HETATM   26  N7  UNL     1      21.821  32.584  15.311  1.00  0.00    -0.050 N 
HETATM   27  C26 UNL     1      22.817  31.753  14.721  1.00  0.00     0.278 C 
HETATM   28  C27 UNL     1      21.878  32.511  16.785  1.00  0.00     0.278 C 
BRANCH  26  29
HETATM   29  C28 UNL     1      20.531  32.010  15.004  1.00  0.00     0.272 C 
BRANCH  29  30
HETATM   30  C29 UNL     1      19.887  32.344  13.762  1.00  0.00     0.278 C 
HETATM   31  N8  UNL     1      20.297  32.176  12.434  1.00  0.00    -0.057 NA
HETATM   32  O3  UNL     1      18.720  32.898  13.873  1.00  0.00    -0.270 OA
ENDBRANCH  29  30
ENDBRANCH  26  29
ENDBRANCH  25  26
ENDBRANCH  23  25
ENDBRANCH  22  23
ENDBRANCH  17  22
BRANCH  14  33
HETATM   33  C18 UNL     1      22.876  40.060  13.932  1.00  0.00     0.008 C 
HETATM   34  C19 UNL     1      21.477  40.007  13.417  1.00  0.00     0.012 C 
HETATM   35  C20 UNL     1      23.448  41.429  13.740  1.00  0.00     0.012 C 
ENDBRANCH  14  33
BRANCH  13  36
HETATM   36  O2  UNL     1      24.178  41.385  16.374  1.00  0.00    -0.348 OA
ATOM     37  H2  UNL     1      24.663  41.052  17.120  1.00  0.00     0.219 HD
ENDBRANCH  13  36
BRANCH   1  38
HETATM   38  C4  UNL     1      18.431  36.604  18.370  1.00  0.00     0.038 C 
BRANCH  38  39
HETATM   39  C2  UNL     1      17.872  35.942  17.174  1.00  0.00    -0.020 C 
HETATM   40  C1  UNL     1      16.416  35.563  17.498  1.00  0.00     0.009 C 
HETATM   41  C3  UNL     1      18.567  34.584  17.011  1.00  0.00     0.009 C 
ENDBRANCH  38  39
ENDBRANCH   1  38
BRANCH   6  42
HETATM   42  C8  UNL     1      17.178  41.192  16.973  1.00  0.00     0.063 C 
BRANCH  42  43
HETATM   43  C9  UNL     1      16.535  42.454  17.447  1.00  0.00     0.126 C 
BRANCH  43  44
HETATM   44  N2  UNL     1      16.064  43.303  16.382  1.00  0.00    -0.367 N 
HETATM   45  C10 UNL     1      16.665  44.386  16.103  1.00  0.00     0.196 C 
HETATM   46  N3  UNL     1      17.820  44.875  16.770  1.00  0.00    -0.067 NA
HETATM   47  N4  UNL     1      16.144  45.184  15.035  1.00  0.00    -0.067 NA
ATOM     48  H2  UNL     1      15.240  43.031  15.846  1.00  0.00     0.161 HD
ENDBRANCH  43  44
ENDBRANCH  42  43
ENDBRANCH   6  42
TORSDOF 13
ENDMDL
MODEL 5
REMARK VINA RESULT: -7.883389099      2.099      9.742
REMARK  13 active torsions:
REMARK  status: ('A' for Active; 'I' for Inactive)
REMARK    1  A    between atoms: C2_2  and  C4_4 
REMARK    2  A    between atoms: C4_4  and  C5_5 
REMARK    3  A    between atoms: C7_10  and  C8_11 
REMARK    4  A    between atoms: C8_11  and  C9_12 
REMARK    5  A    between atoms: C9_12  and  N2_13 
REMARK    6  A    between atoms: C16_24  and  O2_25 
REMARK    7  A    between atoms: C17_27  and  C18_28 
REMARK    8  A    between atoms: C21_33  and  C22_34 
REMARK    9  A    between atoms: C22_34  and  C23_35 
REMARK   10  A    between atoms: C23_35  and  C25_37 
REMARK   11  A    between atoms: C25_37  and  N7_38 
REMARK   12  A    between atoms: N7_38  and  C28_41 
REMARK   13  A    between atoms: C28_41  and  C29_42 
ROOT
HETATM    1  C5  UNL     1      21.858  30.560  14.399  1.00  0.00     0.177 C 
HETATM    2  N1  UNL     1      22.749  29.426  14.243  1.00  0.00    -0.344 N 
ATOM      3  H1  UNL     1      22.842  28.798  15.042  1.00  0.00     0.163 HD
HETATM    4  C6  UNL     1      23.501  29.110  13.089  1.00  0.00     0.248 C 
HETATM    5  O1  UNL     1      24.750  28.890  13.302  1.00  0.00    -0.268 OA
HETATM    6  C7  UNL     1      23.055  29.002  11.725  1.00  0.00     0.009 C 
HETATM    7  C11 UNL     1      22.025  28.255  11.312  1.00  0.00     0.011 C 
HETATM    8  C12 UNL     1      21.188  27.418  12.213  1.00  0.00     0.109 C 
HETATM    9  C13 UNL     1      21.845  26.016  12.304  1.00  0.00     0.031 C 
HETATM   10  C14 UNL     1      21.672  25.582  10.865  1.00  0.00     0.022 C 
HETATM   11  C15 UNL     1      20.439  26.286  10.344  1.00  0.00     0.125 C 
HETATM   12  N5  UNL     1      19.980  27.044  11.522  1.00  0.00    -0.356 N 
HETATM   13  C16 UNL     1      18.651  27.324  11.915  1.00  0.00     0.137 C 
HETATM   14  C17 UNL     1      18.032  28.636  12.160  1.00  0.00     0.156 C 
HETATM   15  N6  UNL     1      18.803  29.669  12.673  1.00  0.00    -0.390 N 
ATOM     16  H6  UNL     1      19.545  30.073  12.100  1.00  0.00     0.156 HD
HETATM   17  C21 UNL     1      18.579  30.173  13.982  1.00  0.00     0.180 C 
HETATM   18  N9  UNL     1      19.506  29.648  14.986  1.00  0.00    -0.339 N 
ATOM     19  H9  UNL     1      19.195  28.828  15.505  1.00  0.00     0.164 HD
HETATM   20  C30 UNL     1      20.760  30.145  15.308  1.00  0.00     0.242 C 
HETATM   21  O4  UNL     1      21.042  30.275  16.556  1.00  0.00    -0.271 OA
ENDROOT
BRANCH  17  22
HETATM   22  C22 UNL     1      18.438  31.666  14.097  1.00  0.00     0.052 C 
BRANCH  22  23
HETATM   23  C23 UNL     1      17.915  32.192  15.397  1.00  0.00     0.011 C 
HETATM   24  C24 UNL     1      16.631  31.419  15.661  1.00  0.00     0.012 C 
BRANCH  23  25
HETATM   25  C25 UNL     1      17.806  33.625  15.560  1.00  0.00     0.246 C 
BRANCH  25  26
HETATM   26  N7  UNL     1      16.607  34.360  15.755  1.00  0.00    -0.050 N 
HETATM   27  C26 UNL     1      15.865  34.729  14.595  1.00  0.00     0.278 C 
HETATM   28  C27 UNL     1      15.740  33.689  16.744  1.00  0.00     0.278 C 
BRANCH  26  29
HETATM   29  C28 UNL     1      16.997  35.575  16.433  1.00  0.00     0.272 C 
BRANCH  29  30
HETATM   30  C29 UNL     1      17.421  35.513  17.805  1.00  0.00     0.278 C 
HETATM   31  N8  UNL     1      18.644  35.144  18.380  1.00  0.00    -0.057 NA
HETATM   32  O3  UNL     1      16.526  35.857  18.679  1.00  0.00    -0.270 OA
ENDBRANCH  29  30
ENDBRANCH  26  29
ENDBRANCH  25  26
ENDBRANCH  23  25
ENDBRANCH  22  23
ENDBRANCH  17  22
BRANCH  14  33
HETATM   33  C18 UNL     1      17.285  29.081  10.895  1.00  0.00     0.008 C 
HETATM   34  C19 UNL     1      17.909  28.411   9.718  1.00  0.00     0.012 C 
HETATM   35  C20 UNL     1      15.841  28.703  11.003  1.00  0.00     0.012 C 
ENDBRANCH  14  33
BRANCH  13  36
HETATM   36  O2  UNL     1      17.850  26.312  12.088  1.00  0.00    -0.348 OA
ATOM     37  H2  UNL     1      18.174  25.578  12.597  1.00  0.00     0.219 HD
ENDBRANCH  13  36
BRANCH   1  38
HETATM   38  C4  UNL     1      22.510  31.751  15.014  1.00  0.00     0.038 C 
BRANCH  38  39
HETATM   39  C2  UNL     1      22.317  33.054  14.346  1.00  0.00    -0.020 C 
HETATM   40  C1  UNL     1      23.611  33.864  14.537  1.00  0.00     0.009 C 
HETATM   41  C3  UNL     1      21.275  33.851  15.143  1.00  0.00     0.009 C 
ENDBRANCH  38  39
ENDBRANCH   1  38
BRANCH   6  42
HETATM   42  C8  UNL     1      23.803  29.764  10.660  1.00  0.00     0.063 C 
BRANCH  42  43
HETATM   43  C9  UNL     1      24.734  28.922   9.853  1.00  0.00     0.126 C 
BRANCH  43  44
HETATM   44  N2  UNL     1      24.508  27.506   9.992  1.00  0.00    -0.367 N 
HETATM   45  C10 UNL     1      25.354  26.769  10.585  1.00  0.00     0.196 C 
HETATM   46  N3  UNL     1      26.572  27.223  11.160  1.00  0.00    -0.067 NA
HETATM   47  N4  UNL     1      25.069  25.370  10.686  1.00  0.00    -0.067 NA
ATOM     48  H2  UNL     1      23.657  27.091   9.610  1.00  0.00     0.161 HD
ENDBRANCH  43  44
ENDBRANCH  42  43
ENDBRANCH   6  42
TORSDOF 13
ENDMDL
