MODEL 1
REMARK VINA RESULT: -6.574209980      0.000      0.000
REMARK  13 active torsions:
REMARK  status: ('A' for Active; 'I' for Inactive)
REMARK    1  A    between atoms: C2_2  and  C3_3 
REMARK    2  A    between atoms: C5_8  and  C6_9 
REMARK    3  A    between atoms: C6_9  and  C7_10 
REMARK    4  A    between atoms: C11_17  and  C12_18 
REMARK    5  A    between atoms: C12_18  and  C13_19 
REMARK    6  A    between atoms: C13_19  and  C14_20 
REMARK    7  A    between atoms: C14_20  and  N3_21 
REMARK    8  A    between atoms: C17_30  and  C18_31 
REMARK    9  A    between atoms: C18_31  and  C19_32 
REMARK   10  A    between atoms: C24_40  and  C25_41 
REMARK   11  A    between atoms: C25_41  and  N8_42 
REMARK   12  A    between atoms: N8_42  and  N9_43 
REMARK   13  A    between atoms: N10_46  and  C26_47 
ROOT
HETATM    1  C3  UNL     1      21.439  41.736  19.455  1.00  0.00     0.176 C 
HETATM    2  N1  UNL     1      20.170  42.433  19.307  1.00  0.00    -0.346 N 
ATOM      3  H1  UNL     1      20.154  43.424  19.548  1.00  0.00     0.163 HD
HETATM    4  C4  UNL     1      18.969  41.864  18.864  1.00  0.00     0.241 C 
HETATM    5  O1  UNL     1      18.292  42.387  17.946  1.00  0.00    -0.271 OA
HETATM    6  C5  UNL     1      18.407  40.594  19.453  1.00  0.00     0.177 C 
HETATM    7  N2  UNL     1      17.643  39.880  18.448  1.00  0.00    -0.346 N 
ATOM      8  H2  UNL     1      16.671  40.174  18.359  1.00  0.00     0.163 HD
HETATM    9  C10 UNL     1      18.023  38.865  17.594  1.00  0.00     0.241 C 
HETATM   10  O2  UNL     1      17.980  39.166  16.331  1.00  0.00    -0.271 OA
HETATM   11  C11 UNL     1      18.469  37.488  17.873  1.00  0.00     0.176 C 
HETATM   12  N6  UNL     1      19.725  37.349  18.551  1.00  0.00    -0.346 N 
ATOM     13  H6  UNL     1      19.804  37.817  19.455  1.00  0.00     0.163 HD
HETATM   14  C16 UNL     1      20.868  36.640  18.112  1.00  0.00     0.241 C 
HETATM   15  O3  UNL     1      21.443  35.792  18.896  1.00  0.00    -0.271 OA
HETATM   16  C17 UNL     1      21.518  36.768  16.785  1.00  0.00     0.177 C 
HETATM   17  N7  UNL     1      21.341  38.071  16.188  1.00  0.00    -0.348 N 
ATOM     18  H7  UNL     1      20.613  38.185  15.482  1.00  0.00     0.163 HD
HETATM   19  C22 UNL     1      22.142  39.223  16.537  1.00  0.00     0.220 C 
HETATM   20  O4  UNL     1      22.102  40.240  15.777  1.00  0.00    -0.274 OA
HETATM   21  C23 UNL     1      22.946  39.123  17.752  1.00  0.00     0.134 C 
HETATM   22  C24 UNL     1      23.975  40.168  17.990  1.00  0.00     0.150 C 
HETATM   23  N10 UNL     1      23.581  41.533  17.989  1.00  0.00    -0.336 N 
HETATM   24  C29 UNL     1      22.344  42.099  18.351  1.00  0.00     0.243 C 
HETATM   25  O5  UNL     1      21.970  43.075  17.597  1.00  0.00    -0.271 OA
ENDROOT
BRANCH  11  26
HETATM   26  C12 UNL     1      17.453  36.695  18.680  1.00  0.00     0.036 C 
BRANCH  26  27
HETATM   27  C13 UNL     1      16.522  35.905  17.807  1.00  0.00     0.022 C 
BRANCH  27  28
HETATM   28  C14 UNL     1      17.404  35.224  16.750  1.00  0.00     0.122 C 
BRANCH  28  29
HETATM   29  N3  UNL     1      16.641  35.262  15.525  1.00  0.00    -0.367 N 
HETATM   30  C15 UNL     1      15.992  34.225  15.154  1.00  0.00     0.196 C 
HETATM   31  N4  UNL     1      15.253  34.281  13.955  1.00  0.00    -0.067 NA
HETATM   32  N5  UNL     1      16.030  33.056  15.949  1.00  0.00    -0.067 NA
ATOM     33  H3  UNL     1      16.619  36.111  14.959  1.00  0.00     0.161 HD
ENDBRANCH  28  29
ENDBRANCH  27  28
ENDBRANCH  26  27
ENDBRANCH  11  26
BRANCH   6  34
HETATM   34  C6  UNL     1      17.463  41.112  20.543  1.00  0.00     0.038 C 
BRANCH  34  35
HETATM   35  C7  UNL     1      16.125  40.463  20.536  1.00  0.00    -0.020 C 
HETATM   36  C8  UNL     1      15.857  39.872  21.903  1.00  0.00     0.009 C 
HETATM   37  C9  UNL     1      15.103  41.536  20.205  1.00  0.00     0.009 C 
ENDBRANCH  34  35
ENDBRANCH   6  34
BRANCH  16  38
HETATM   38  C18 UNL     1      21.084  35.658  15.819  1.00  0.00     0.038 C 
BRANCH  38  39
HETATM   39  C19 UNL     1      22.306  34.733  15.716  1.00  0.00    -0.020 C 
HETATM   40  C20 UNL     1      21.975  33.501  14.910  1.00  0.00     0.009 C 
HETATM   41  C21 UNL     1      23.355  35.535  14.957  1.00  0.00     0.009 C 
ENDBRANCH  38  39
ENDBRANCH  16  38
BRANCH   1  42
HETATM   42  C2  UNL     1      21.970  42.188  20.804  1.00  0.00     0.030 C 
HETATM   43  C1  UNL     1      22.245  41.038  21.719  1.00  0.00     0.007 C 
ENDBRANCH   1  42
BRANCH  22  44
HETATM   44  C25 UNL     1      24.700  39.734  19.236  1.00  0.00     0.206 C 
BRANCH  44  45
HETATM   45  N8  UNL     1      25.930  39.536  19.132  1.00  0.00    -0.348 NA
BRANCH  45  46
HETATM   46  N9  UNL     1      27.172  39.633  19.057  1.00  0.00    -0.281 N 
ATOM     47  H92 UNL     1      27.301  39.123  19.930  1.00  0.00     0.191 HD
ATOM     48  H91 UNL     1      28.136  39.832  18.791  1.00  0.00     0.191 HD
ENDBRANCH  45  46
ENDBRANCH  44  45
ENDBRANCH  22  44
BRANCH  23  49
HETATM   49  C26 UNL     1      24.611  42.484  17.518  1.00  0.00     0.080 C 
HETATM   50  C27 UNL     1      25.340  42.964  18.771  1.00  0.00     0.032 C 
HETATM   51  C28 UNL     1      25.624  41.858  16.614  1.00  0.00     0.032 C 
ENDBRANCH  23  49
TORSDOF 13
ENDMDL
MODEL 2
REMARK VINA RESULT: -6.207635177      2.259      6.262
REMARK  13 active torsions:
REMARK  status: ('A' for Active; 'I' for Inactive)
REMARK    1  A    between atoms: C2_2  and  C3_3 
REMARK    2  A    between atoms: C5_8  and  C6_9 
REMARK    3  A    between atoms: C6_9  and  C7_10 
REMARK    4  A    between atoms: C11_17  and  C12_18 
REMARK    5  A    between atoms: C12_18  and  C13_19 
REMARK    6  A    between atoms: C13_19  and  C14_20 
REMARK    7  A    between atoms: C14_20  and  N3_21 
REMARK    8  A    between atoms: C17_30  and  C18_31 
REMARK    9  A    between atoms: C18_31  and  C19_32 
REMARK   10  A    between atoms: C24_40  and  C25_41 
REMARK   11  A    between atoms: C25_41  and  N8_42 
REMARK   12  A    between atoms: N8_42  and  N9_43 
REMARK   13  A    between atoms: N10_46  and  C26_47 
ROOT
HETATM    1  C3  UNL     1      23.104  40.789  16.314  1.00  0.00     0.176 C 
HETATM    2  N1  UNL     1      23.939  39.613  16.506  1.00  0.00    -0.346 N 
ATOM      3  H1  UNL     1      24.930  39.706  16.283  1.00  0.00     0.163 HD
HETATM    4  C4  UNL     1      23.503  38.365  16.970  1.00  0.00     0.241 C 
HETATM    5  O1  UNL     1      24.082  37.775  17.914  1.00  0.00    -0.271 OA
HETATM    6  C5  UNL     1      22.318  37.647  16.374  1.00  0.00     0.177 C 
HETATM    7  N2  UNL     1      21.677  36.830  17.386  1.00  0.00    -0.346 N 
ATOM      8  H2  UNL     1      22.079  35.900  17.505  1.00  0.00     0.163 HD
HETATM    9  C10 UNL     1      20.608  37.109  18.213  1.00  0.00     0.241 C 
HETATM   10  O2  UNL     1      20.887  37.131  19.482  1.00  0.00    -0.271 OA
HETATM   11  C11 UNL     1      19.195  37.387  17.899  1.00  0.00     0.176 C 
HETATM   12  N6  UNL     1      18.926  38.603  17.187  1.00  0.00    -0.346 N 
ATOM     13  H6  UNL     1      19.399  38.714  16.290  1.00  0.00     0.163 HD
HETATM   14  C16 UNL     1      18.081  39.666  17.584  1.00  0.00     0.241 C 
HETATM   15  O3  UNL     1      17.188  40.121  16.772  1.00  0.00    -0.271 OA
HETATM   16  C17 UNL     1      18.107  40.357  18.897  1.00  0.00     0.177 C 
HETATM   17  N7  UNL     1      19.410  40.346  19.520  1.00  0.00    -0.348 N 
ATOM     18  H7  UNL     1      19.593  39.653  20.246  1.00  0.00     0.163 HD
HETATM   19  C22 UNL     1      20.469  41.266  19.170  1.00  0.00     0.220 C 
HETATM   20  O4  UNL     1      21.469  41.361  19.948  1.00  0.00    -0.274 OA
HETATM   21  C23 UNL     1      20.302  42.024  17.933  1.00  0.00     0.134 C 
HETATM   22  C24 UNL     1      21.226  43.162  17.686  1.00  0.00     0.150 C 
HETATM   23  N10 UNL     1      22.627  42.927  17.721  1.00  0.00    -0.336 N 
HETATM   24  C29 UNL     1      23.339  41.756  17.400  1.00  0.00     0.243 C 
HETATM   25  O5  UNL     1      24.336  41.515  18.180  1.00  0.00    -0.271 OA
ENDROOT
BRANCH  11  26
HETATM   26  C12 UNL     1      18.540  36.268  17.105  1.00  0.00     0.036 C 
BRANCH  26  27
HETATM   27  C13 UNL     1      18.526  34.968  17.856  1.00  0.00     0.022 C 
BRANCH  27  28
HETATM   28  C14 UNL     1      18.414  33.864  16.795  1.00  0.00     0.122 C 
BRANCH  28  29
HETATM   29  N3  UNL     1      19.474  32.931  17.092  1.00  0.00    -0.367 N 
HETATM   30  C15 UNL     1      19.469  31.776  16.545  1.00  0.00     0.196 C 
HETATM   31  N4  UNL     1      20.513  30.877  16.848  1.00  0.00    -0.067 NA
HETATM   32  N5  UNL     1      18.425  31.429  15.655  1.00  0.00    -0.067 NA
ATOM     33  H3  UNL     1      20.223  33.191  17.735  1.00  0.00     0.161 HD
ENDBRANCH  28  29
ENDBRANCH  27  28
ENDBRANCH  26  27
ENDBRANCH  11  26
BRANCH   6  34
HETATM   34  C6  UNL     1      22.962  36.743  15.318  1.00  0.00     0.038 C 
BRANCH  34  35
HETATM   35  C7  UNL     1      22.966  35.301  15.683  1.00  0.00    -0.020 C 
HETATM   36  C8  UNL     1      21.697  34.660  15.166  1.00  0.00     0.009 C 
HETATM   37  C9  UNL     1      24.188  34.675  15.035  1.00  0.00     0.009 C 
ENDBRANCH  34  35
ENDBRANCH   6  34
BRANCH  16  38
HETATM   38  C18 UNL     1      17.036  39.821  19.854  1.00  0.00     0.038 C 
BRANCH  38  39
HETATM   39  C19 UNL     1      16.472  41.072  20.545  1.00  0.00    -0.020 C 
HETATM   40  C20 UNL     1      16.262  42.183  19.546  1.00  0.00     0.009 C 
HETATM   41  C21 UNL     1      15.112  40.652  21.087  1.00  0.00     0.009 C 
ENDBRANCH  38  39
ENDBRANCH  16  38
BRANCH   1  42
HETATM   42  C2  UNL     1      23.519  41.338  14.960  1.00  0.00     0.030 C 
HETATM   43  C1  UNL     1      22.740  40.727  13.838  1.00  0.00     0.007 C 
ENDBRANCH   1  42
BRANCH  22  44
HETATM   44  C25 UNL     1      20.736  43.802  16.415  1.00  0.00     0.206 C 
BRANCH  44  45
HETATM   45  N8  UNL     1      19.608  44.341  16.455  1.00  0.00    -0.348 NA
BRANCH  45  46
HETATM   46  N9  UNL     1      18.482  44.815  16.205  1.00  0.00    -0.281 N 
ATOM     47  H92 UNL     1      18.429  44.318  15.317  1.00  0.00     0.191 HD
ATOM     48  H91 UNL     1      17.592  45.313  16.215  1.00  0.00     0.191 HD
ENDBRANCH  45  46
ENDBRANCH  44  45
ENDBRANCH  22  44
BRANCH  23  49
HETATM   49  C26 UNL     1      23.444  44.071  18.182  1.00  0.00     0.080 C 
HETATM   50  C27 UNL     1      23.941  44.766  16.916  1.00  0.00     0.032 C 
HETATM   51  C28 UNL     1      22.666  45.072  18.974  1.00  0.00     0.032 C 
ENDBRANCH  23  49
TORSDOF 13
ENDMDL
MODEL 3
REMARK VINA RESULT: -6.106957323      1.951      6.095
REMARK  13 active torsions:
REMARK  status: ('A' for Active; 'I' for Inactive)
REMARK    1  A    between atoms: C2_2  and  C3_3 
REMARK    2  A    between atoms: C5_8  and  C6_9 
REMARK    3  A    between atoms: C6_9  and  C7_10 
REMARK    4  A    between atoms: C11_17  and  C12_18 
REMARK    5  A    between atoms: C12_18  and  C13_19 
REMARK    6  A    between atoms: C13_19  and  C14_20 
REMARK    7  A    between atoms: C14_20  and  N3_21 
REMARK    8  A    between atoms: C17_30  and  C18_31 
REMARK    9  A    between atoms: C18_31  and  C19_32 
REMARK   10  A    between atoms: C24_40  and  C25_41 
REMARK   11  A    between atoms: C25_41  and  N8_42 
REMARK   12  A    between atoms: N8_42  and  N9_43 
REMARK   13  A    between atoms: N10_46  and  C26_47 
ROOT
HETATM    1  C3  UNL     1      23.102  40.772  16.281  1.00  0.00     0.176 C 
HETATM    2  N1  UNL     1      23.925  39.588  16.472  1.00  0.00    -0.346 N 
ATOM      3  H1  UNL     1      24.916  39.669  16.242  1.00  0.00     0.163 HD
HETATM    4  C4  UNL     1      23.479  38.346  16.943  1.00  0.00     0.241 C 
HETATM    5  O1  UNL     1      24.057  37.752  17.884  1.00  0.00    -0.271 OA
HETATM    6  C5  UNL     1      22.282  37.638  16.356  1.00  0.00     0.177 C 
HETATM    7  N2  UNL     1      21.638  36.832  17.375  1.00  0.00    -0.346 N 
ATOM      8  H2  UNL     1      22.031  35.898  17.494  1.00  0.00     0.163 HD
HETATM    9  C10 UNL     1      20.578  37.126  18.208  1.00  0.00     0.241 C 
HETATM   10  O2  UNL     1      20.865  37.149  19.475  1.00  0.00    -0.271 OA
HETATM   11  C11 UNL     1      19.166  37.418  17.901  1.00  0.00     0.176 C 
HETATM   12  N6  UNL     1      18.906  38.635  17.187  1.00  0.00    -0.346 N 
ATOM     13  H6  UNL     1      19.375  38.738  16.287  1.00  0.00     0.163 HD
HETATM   14  C16 UNL     1      18.076  39.708  17.586  1.00  0.00     0.241 C 
HETATM   15  O3  UNL     1      17.183  40.171  16.778  1.00  0.00    -0.271 OA
HETATM   16  C17 UNL     1      18.117  40.404  18.896  1.00  0.00     0.177 C 
HETATM   17  N7  UNL     1      19.424  40.380  19.512  1.00  0.00    -0.348 N 
ATOM     18  H7  UNL     1      19.604  39.687  20.238  1.00  0.00     0.163 HD
HETATM   19  C22 UNL     1      20.491  41.287  19.152  1.00  0.00     0.220 C 
HETATM   20  O4  UNL     1      21.497  41.374  19.923  1.00  0.00    -0.274 OA
HETATM   21  C23 UNL     1      20.324  42.043  17.913  1.00  0.00     0.134 C 
HETATM   22  C24 UNL     1      21.259  43.169  17.657  1.00  0.00     0.150 C 
HETATM   23  N10 UNL     1      22.658  42.920  17.684  1.00  0.00    -0.336 N 
HETATM   24  C29 UNL     1      23.355  41.740  17.363  1.00  0.00     0.243 C 
HETATM   25  O5  UNL     1      24.354  41.490  18.138  1.00  0.00    -0.271 OA
ENDROOT
BRANCH  11  26
HETATM   26  C12 UNL     1      18.494  36.304  17.116  1.00  0.00     0.036 C 
BRANCH  26  27
HETATM   27  C13 UNL     1      18.589  34.977  17.811  1.00  0.00     0.022 C 
BRANCH  27  28
HETATM   28  C14 UNL     1      18.373  33.911  16.727  1.00  0.00     0.122 C 
BRANCH  28  29
HETATM   29  N3  UNL     1      17.605  34.560  15.692  1.00  0.00    -0.367 N 
HETATM   30  C15 UNL     1      16.600  33.958  15.182  1.00  0.00     0.196 C 
HETATM   31  N4  UNL     1      15.861  34.608  14.171  1.00  0.00    -0.067 NA
HETATM   32  N5  UNL     1      16.253  32.665  15.640  1.00  0.00    -0.067 NA
ATOM     33  H3  UNL     1      17.863  35.493  15.369  1.00  0.00     0.161 HD
ENDBRANCH  28  29
ENDBRANCH  27  28
ENDBRANCH  26  27
ENDBRANCH  11  26
BRANCH   6  34
HETATM   34  C6  UNL     1      22.910  36.725  15.299  1.00  0.00     0.038 C 
BRANCH  34  35
HETATM   35  C7  UNL     1      22.904  35.285  15.671  1.00  0.00    -0.020 C 
HETATM   36  C8  UNL     1      21.613  34.659  15.192  1.00  0.00     0.009 C 
HETATM   37  C9  UNL     1      24.099  34.638  14.992  1.00  0.00     0.009 C 
ENDBRANCH  34  35
ENDBRANCH   6  34
BRANCH  16  38
HETATM   38  C18 UNL     1      17.046  39.883  19.862  1.00  0.00     0.038 C 
BRANCH  38  39
HETATM   39  C19 UNL     1      16.477  41.144  20.528  1.00  0.00    -0.020 C 
HETATM   40  C20 UNL     1      16.295  42.246  19.513  1.00  0.00     0.009 C 
HETATM   41  C21 UNL     1      15.103  40.739  21.046  1.00  0.00     0.009 C 
ENDBRANCH  38  39
ENDBRANCH  16  38
BRANCH   1  42
HETATM   42  C2  UNL     1      23.514  41.312  14.923  1.00  0.00     0.030 C 
HETATM   43  C1  UNL     1      22.677  40.757  13.815  1.00  0.00     0.007 C 
ENDBRANCH   1  42
BRANCH  22  44
HETATM   44  C25 UNL     1      20.768  43.811  16.387  1.00  0.00     0.206 C 
BRANCH  44  45
HETATM   45  N8  UNL     1      19.668  44.403  16.444  1.00  0.00    -0.348 NA
BRANCH  45  46
HETATM   46  N9  UNL     1      18.482  44.771  16.328  1.00  0.00    -0.281 N 
ATOM     47  H92 UNL     1      18.146  43.809  16.320  1.00  0.00     0.191 HD
ATOM     48  H91 UNL     1      17.611  45.293  16.237  1.00  0.00     0.191 HD
ENDBRANCH  45  46
ENDBRANCH  44  45
ENDBRANCH  22  44
BRANCH  23  49
HETATM   49  C26 UNL     1      23.490  44.056  18.136  1.00  0.00     0.080 C 
HETATM   50  C27 UNL     1      23.981  44.746  16.865  1.00  0.00     0.032 C 
HETATM   51  C28 UNL     1      22.729  45.065  18.936  1.00  0.00     0.032 C 
ENDBRANCH  23  49
TORSDOF 13
ENDMDL
MODEL 4
REMARK VINA RESULT: -5.923169711      1.777      2.049
REMARK  13 active torsions:
REMARK  status: ('A' for Active; 'I' for Inactive)
REMARK    1  A    between atoms: C2_2  and  C3_3 
REMARK    2  A    between atoms: C5_8  and  C6_9 
REMARK    3  A    between atoms: C6_9  and  C7_10 
REMARK    4  A    between atoms: C11_17  and  C12_18 
REMARK    5  A    between atoms: C12_18  and  C13_19 
REMARK    6  A    between atoms: C13_19  and  C14_20 
REMARK    7  A    between atoms: C14_20  and  N3_21 
REMARK    8  A    between atoms: C17_30  and  C18_31 
REMARK    9  A    between atoms: C18_31  and  C19_32 
REMARK   10  A    between atoms: C24_40  and  C25_41 
REMARK   11  A    between atoms: C25_41  and  N8_42 
REMARK   12  A    between atoms: N8_42  and  N9_43 
REMARK   13  A    between atoms: N10_46  and  C26_47 
ROOT
HETATM    1  C3  UNL     1      20.563  42.887  20.083  1.00  0.00     0.176 C 
HETATM    2  N1  UNL     1      19.339  43.507  19.600  1.00  0.00    -0.346 N 
ATOM      3  H1  UNL     1      19.196  44.492  19.825  1.00  0.00     0.163 HD
HETATM    4  C4  UNL     1      18.338  42.872  18.852  1.00  0.00     0.241 C 
HETATM    5  O1  UNL     1      17.899  43.365  17.786  1.00  0.00    -0.271 OA
HETATM    6  C5  UNL     1      17.720  41.561  19.273  1.00  0.00     0.177 C 
HETATM    7  N2  UNL     1      17.300  40.816  18.102  1.00  0.00    -0.346 N 
ATOM      8  H2  UNL     1      16.371  41.050  17.755  1.00  0.00     0.163 HD
HETATM    9  C10 UNL     1      17.958  39.838  17.383  1.00  0.00     0.241 C 
HETATM   10  O2  UNL     1      18.236  40.155  16.154  1.00  0.00    -0.271 OA
HETATM   11  C11 UNL     1      18.400  38.488  17.776  1.00  0.00     0.176 C 
HETATM   12  N6  UNL     1      19.435  38.417  18.765  1.00  0.00    -0.346 N 
ATOM     13  H6  UNL     1      19.240  38.875  19.656  1.00  0.00     0.163 HD
HETATM   14  C16 UNL     1      20.696  37.786  18.650  1.00  0.00     0.241 C 
HETATM   15  O3  UNL     1      21.094  36.964  19.561  1.00  0.00    -0.271 OA
HETATM   16  C17 UNL     1      21.668  37.973  17.545  1.00  0.00     0.177 C 
HETATM   17  N7  UNL     1      21.575  39.271  16.919  1.00  0.00    -0.348 N 
ATOM     18  H7  UNL     1      21.056  39.351  16.044  1.00  0.00     0.163 HD
HETATM   19  C22 UNL     1      22.179  40.465  17.467  1.00  0.00     0.220 C 
HETATM   20  O4  UNL     1      22.278  41.490  16.721  1.00  0.00    -0.274 OA
HETATM   21  C23 UNL     1      22.633  40.398  18.853  1.00  0.00     0.134 C 
HETATM   22  C24 UNL     1      23.493  41.501  19.356  1.00  0.00     0.150 C 
HETATM   23  N10 UNL     1      23.027  42.839  19.245  1.00  0.00    -0.336 N 
HETATM   24  C29 UNL     1      21.706  43.322  19.262  1.00  0.00     0.243 C 
HETATM   25  O5  UNL     1      21.485  44.284  18.432  1.00  0.00    -0.271 OA
ENDROOT
BRANCH  11  26
HETATM   26  C12 UNL     1      17.257  37.622  18.282  1.00  0.00     0.036 C 
BRANCH  26  27
HETATM   27  C13 UNL     1      17.619  36.166  18.323  1.00  0.00     0.022 C 
BRANCH  27  28
HETATM   28  C14 UNL     1      17.181  35.580  16.972  1.00  0.00     0.122 C 
BRANCH  28  29
HETATM   29  N3  UNL     1      18.402  35.227  16.288  1.00  0.00    -0.367 N 
HETATM   30  C15 UNL     1      18.562  34.034  15.859  1.00  0.00     0.196 C 
HETATM   31  N4  UNL     1      19.761  33.709  15.192  1.00  0.00    -0.067 NA
HETATM   32  N5  UNL     1      17.540  33.077  16.059  1.00  0.00    -0.067 NA
ATOM     33  H3  UNL     1      19.133  35.926  16.148  1.00  0.00     0.161 HD
ENDBRANCH  28  29
ENDBRANCH  27  28
ENDBRANCH  26  27
ENDBRANCH  11  26
BRANCH   6  34
HETATM   34  C6  UNL     1      16.489  42.003  20.069  1.00  0.00     0.038 C 
BRANCH  34  35
HETATM   35  C7  UNL     1      15.531  40.902  20.355  1.00  0.00    -0.020 C 
HETATM   36  C8  UNL     1      16.130  39.990  21.403  1.00  0.00     0.009 C 
HETATM   37  C9  UNL     1      14.250  41.537  20.864  1.00  0.00     0.009 C 
ENDBRANCH  34  35
ENDBRANCH   6  34
BRANCH  16  38
HETATM   38  C18 UNL     1      21.579  36.853  16.502  1.00  0.00     0.038 C 
BRANCH  38  39
HETATM   39  C19 UNL     1      22.888  36.065  16.665  1.00  0.00    -0.020 C 
HETATM   40  C20 UNL     1      22.636  34.754  17.367  1.00  0.00     0.009 C 
HETATM   41  C21 UNL     1      23.357  35.767  15.246  1.00  0.00     0.009 C 
ENDBRANCH  38  39
ENDBRANCH  16  38
BRANCH   1  42
HETATM   42  C2  UNL     1      20.685  43.352  21.524  1.00  0.00     0.030 C 
HETATM   43  C1  UNL     1      19.570  42.842  22.381  1.00  0.00     0.007 C 
ENDBRANCH   1  42
BRANCH  22  44
HETATM   44  C25 UNL     1      23.884  41.094  20.751  1.00  0.00     0.206 C 
BRANCH  44  45
HETATM   45  N8  UNL     1      22.955  40.773  21.525  1.00  0.00    -0.348 NA
BRANCH  45  46
HETATM   46  N9  UNL     1      22.215  40.237  22.374  1.00  0.00    -0.281 N 
ATOM     47  H92 UNL     1      22.926  40.320  23.100  1.00  0.00     0.191 HD
ATOM     48  H91 UNL     1      21.454  39.787  22.883  1.00  0.00     0.191 HD
ENDBRANCH  45  46
ENDBRANCH  44  45
ENDBRANCH  22  44
BRANCH  23  49
HETATM   49  C26 UNL     1      24.083  43.859  19.065  1.00  0.00     0.080 C 
HETATM   50  C27 UNL     1      24.390  44.394  20.462  1.00  0.00     0.032 C 
HETATM   51  C28 UNL     1      25.352  43.302  18.503  1.00  0.00     0.032 C 
ENDBRANCH  23  49
TORSDOF 13
ENDMDL
MODEL 5
REMARK VINA RESULT: -5.699683152      1.876      6.037
REMARK  13 active torsions:
REMARK  status: ('A' for Active; 'I' for Inactive)
REMARK    1  A    between atoms: C2_2  and  C3_3 
REMARK    2  A    between atoms: C5_8  and  C6_9 
REMARK    3  A    between atoms: C6_9  and  C7_10 
REMARK    4  A    between atoms: C11_17  and  C12_18 
REMARK    5  A    between atoms: C12_18  and  C13_19 
REMARK    6  A    between atoms: C13_19  and  C14_20 
REMARK    7  A    between atoms: C14_20  and  N3_21 
REMARK    8  A    between atoms: C17_30  and  C18_31 
REMARK    9  A    between atoms: C18_31  and  C19_32 
REMARK   10  A    between atoms: C24_40  and  C25_41 
REMARK   11  A    between atoms: C25_41  and  N8_42 
REMARK   12  A    between atoms: N8_42  and  N9_43 
REMARK   13  A    between atoms: N10_46  and  C26_47 
ROOT
HETATM    1  C3  UNL     1      23.060  38.816  16.715  1.00  0.00     0.176 C 
HETATM    2  N1  UNL     1      23.427  37.412  16.827  1.00  0.00    -0.346 N 
ATOM      3  H1  UNL     1      24.406  37.174  16.666  1.00  0.00     0.163 HD
HETATM    4  C4  UNL     1      22.556  36.360  17.135  1.00  0.00     0.241 C 
HETATM    5  O1  UNL     1      22.817  35.532  18.041  1.00  0.00    -0.271 OA
HETATM    6  C5  UNL     1      21.252  36.145  16.406  1.00  0.00     0.177 C 
HETATM    7  N2  UNL     1      20.288  35.523  17.292  1.00  0.00    -0.346 N 
ATOM      8  H2  UNL     1      20.339  34.505  17.335  1.00  0.00     0.163 HD
HETATM    9  C10 UNL     1      19.311  36.089  18.087  1.00  0.00     0.241 C 
HETATM   10  O2  UNL     1      19.473  35.911  19.364  1.00  0.00    -0.271 OA
HETATM   11  C11 UNL     1      18.109  36.862  17.730  1.00  0.00     0.176 C 
HETATM   12  N6  UNL     1      18.330  38.149  17.135  1.00  0.00    -0.346 N 
ATOM     13  H6  UNL     1      18.887  38.160  16.281  1.00  0.00     0.163 HD
HETATM   14  C16 UNL     1      17.867  39.403  17.596  1.00  0.00     0.241 C 
HETATM   15  O3  UNL     1      17.254  40.202  16.791  1.00  0.00    -0.271 OA
HETATM   16  C17 UNL     1      18.014  39.936  18.974  1.00  0.00     0.177 C 
HETATM   17  N7  UNL     1      19.178  39.425  19.660  1.00  0.00    -0.348 N 
ATOM     18  H7  UNL     1      19.052  38.655  20.318  1.00  0.00     0.163 HD
HETATM   19  C22 UNL     1      20.512  39.946  19.463  1.00  0.00     0.220 C 
HETATM   20  O4  UNL     1      21.415  39.627  20.298  1.00  0.00    -0.274 OA
HETATM   21  C23 UNL     1      20.718  40.811  18.304  1.00  0.00     0.134 C 
HETATM   22  C24 UNL     1      21.991  41.574  18.226  1.00  0.00     0.150 C 
HETATM   23  N10 UNL     1      23.221  40.868  18.310  1.00  0.00    -0.336 N 
HETATM   24  C29 UNL     1      23.517  39.552  17.906  1.00  0.00     0.243 C 
HETATM   25  O5  UNL     1      24.303  38.919  18.708  1.00  0.00    -0.271 OA
ENDROOT
BRANCH  11  26
HETATM   26  C12 UNL     1      17.183  36.106  16.792  1.00  0.00     0.036 C 
BRANCH  26  27
HETATM   27  C13 UNL     1      16.095  35.378  17.526  1.00  0.00     0.022 C 
BRANCH  27  28
HETATM   28  C14 UNL     1      15.406  34.481  16.488  1.00  0.00     0.122 C 
BRANCH  28  29
HETATM   29  N3  UNL     1      16.058  33.197  16.590  1.00  0.00    -0.367 N 
HETATM   30  C15 UNL     1      16.719  32.745  15.594  1.00  0.00     0.196 C 
HETATM   31  N4  UNL     1      17.349  31.489  15.712  1.00  0.00    -0.067 NA
HETATM   32  N5  UNL     1      16.804  33.510  14.407  1.00  0.00    -0.067 NA
ATOM     33  H3  UNL     1      15.991  32.654  17.451  1.00  0.00     0.161 HD
ENDBRANCH  28  29
ENDBRANCH  27  28
ENDBRANCH  26  27
ENDBRANCH  11  26
BRANCH   6  34
HETATM   34  C6  UNL     1      21.639  35.162  15.297  1.00  0.00     0.038 C 
BRANCH  34  35
HETATM   35  C7  UNL     1      21.331  33.743  15.619  1.00  0.00    -0.020 C 
HETATM   36  C8  UNL     1      20.404  33.188  14.560  1.00  0.00     0.009 C 
HETATM   37  C9  UNL     1      22.648  32.987  15.630  1.00  0.00     0.009 C 
ENDBRANCH  34  35
ENDBRANCH   6  34
BRANCH  16  38
HETATM   38  C18 UNL     1      16.748  39.729  19.812  1.00  0.00     0.038 C 
BRANCH  38  39
HETATM   39  C19 UNL     1      16.216  41.147  20.070  1.00  0.00    -0.020 C 
HETATM   40  C20 UNL     1      14.710  41.143  20.161  1.00  0.00     0.009 C 
HETATM   41  C21 UNL     1      16.778  41.547  21.428  1.00  0.00     0.009 C 
ENDBRANCH  38  39
ENDBRANCH  16  38
BRANCH   1  42
HETATM   42  C2  UNL     1      23.750  39.293  15.448  1.00  0.00     0.030 C 
HETATM   43  C1  UNL     1      22.823  40.041  14.545  1.00  0.00     0.007 C 
ENDBRANCH   1  42
BRANCH  22  44
HETATM   44  C25 UNL     1      21.857  42.443  17.005  1.00  0.00     0.206 C 
BRANCH  44  45
HETATM   45  N8  UNL     1      20.862  43.200  16.958  1.00  0.00    -0.348 NA
BRANCH  45  46
HETATM   46  N9  UNL     1      19.967  44.007  16.637  1.00  0.00    -0.281 N 
ATOM     47  H92 UNL     1      19.250  43.283  16.674  1.00  0.00     0.191 HD
ATOM     48  H91 UNL     1      19.419  44.825  16.371  1.00  0.00     0.191 HD
ENDBRANCH  45  46
ENDBRANCH  44  45
ENDBRANCH  22  44
BRANCH  23  49
HETATM   49  C26 UNL     1      24.336  41.617  18.929  1.00  0.00     0.080 C 
HETATM   50  C27 UNL     1      25.129  42.217  17.770  1.00  0.00     0.032 C 
HETATM   51  C28 UNL     1      23.878  42.744  19.798  1.00  0.00     0.032 C 
ENDBRANCH  23  49
TORSDOF 13
ENDMDL
