MODEL 1
REMARK VINA RESULT: -5.010441048      0.000      0.000
REMARK  10 active torsions:
REMARK  status: ('A' for Active; 'I' for Inactive)
REMARK    1  A    between atoms: C2_2  and  C3_3 
REMARK    2  A    between atoms: C12_17  and  C13_18 
REMARK    3  A    between atoms: C17_25  and  C18_26 
REMARK    4  A    between atoms: C18_26  and  C19_27 
REMARK    5  A    between atoms: C24_34  and  C25_35 
REMARK    6  A    between atoms: C25_35  and  C26_36 
REMARK    7  A    between atoms: C26_36  and  C27_37 
REMARK    8  A    between atoms: C27_37  and  C28_38 
REMARK    9  A    between atoms: C28_38  and  N5_39 
REMARK   10  A    between atoms: N8_46  and  C31_47 
ROOT
HETATM    1  C3  UNL     1      18.379  37.758  18.075  1.00  0.00    -0.024 A 
HETATM    2  C4  UNL     1      19.576  37.145  18.209  1.00  0.00    -0.025 A 
HETATM    3  C5  UNL     1      19.768  35.806  18.874  1.00  0.00     0.051 C 
HETATM    4  C6  UNL     1      20.563  37.980  17.615  1.00  0.00     0.055 A 
HETATM    5  N1  UNL     1      19.925  39.070  17.144  1.00  0.00    -0.354 N 
ATOM      6  H1  UNL     1      20.371  39.852  16.664  1.00  0.00     0.166 HD
HETATM    7  C7  UNL     1      18.613  38.967  17.404  1.00  0.00     0.035 A 
HETATM    8  C8  UNL     1      17.589  39.790  17.128  1.00  0.00     0.004 C 
HETATM    9  C9  UNL     1      17.499  41.087  16.461  1.00  0.00     0.038 C 
HETATM   10  C10 UNL     1      16.867  42.054  17.476  1.00  0.00     0.106 C 
HETATM   11  C11 UNL     1      17.405  43.423  17.313  1.00  0.00     0.218 C 
HETATM   12  O1  UNL     1      16.531  44.348  17.107  1.00  0.00    -0.274 OA
HETATM   13  N2  UNL     1      18.727  43.833  17.352  1.00  0.00    -0.347 N 
ATOM     14  H2  UNL     1      19.024  44.383  16.546  1.00  0.00     0.163 HD
HETATM   15  C12 UNL     1      19.754  43.613  18.337  1.00  0.00     0.180 C 
HETATM   16  C16 UNL     1      20.723  44.745  18.380  1.00  0.00     0.245 C 
HETATM   17  O2  UNL     1      20.151  45.895  18.404  1.00  0.00    -0.271 OA
HETATM   18  N3  UNL     1      22.108  44.705  18.398  1.00  0.00    -0.324 N 
ATOM     19  H3  UNL     1      22.538  45.241  19.153  1.00  0.00     0.169 HD
HETATM   20  C17 UNL     1      23.045  44.033  17.531  1.00  0.00     0.080 C 
HETATM   21  C22 UNL     1      23.960  43.103  18.237  1.00  0.00     0.266 C 
HETATM   22  O3  UNL     1      24.681  43.692  19.138  1.00  0.00    -0.266 OA
HETATM   23  N4  UNL     1      24.151  41.723  18.075  1.00  0.00    -0.338 N 
HETATM   24  C23 UNL     1      25.520  41.267  17.777  1.00  0.00     0.154 C 
HETATM   25  C24 UNL     1      23.160  40.667  18.178  1.00  0.00     0.179 C 
HETATM   26  C30 UNL     1      23.318  39.651  17.124  1.00  0.00     0.246 C 
HETATM   27  O4  UNL     1      23.860  40.136  16.053  1.00  0.00    -0.271 OA
HETATM   28  N8  UNL     1      22.998  38.296  17.069  1.00  0.00    -0.325 N 
HETATM   29  C33 UNL     1      21.854  37.644  17.591  1.00  0.00     0.123 C 
ENDROOT
BRANCH  25  30
HETATM   30  C25 UNL     1      23.134  40.192  19.581  1.00  0.00     0.035 C 
BRANCH  30  31
HETATM   31  C26 UNL     1      21.867  40.174  20.310  1.00  0.00     0.004 C 
BRANCH  31  32
HETATM   32  C27 UNL     1      21.996  40.824  21.700  1.00  0.00     0.020 C 
BRANCH  32  33
HETATM   33  C28 UNL     1      21.550  39.951  22.808  1.00  0.00     0.122 C 
BRANCH  33  34
HETATM   34  N5  UNL     1      20.252  40.288  23.261  1.00  0.00    -0.367 N 
HETATM   35  C29 UNL     1      19.488  39.835  24.127  1.00  0.00     0.196 C 
HETATM   36  N6  UNL     1      19.676  38.745  25.020  1.00  0.00    -0.067 NA
HETATM   37  N7  UNL     1      18.204  40.494  24.277  1.00  0.00    -0.067 NA
ATOM     38  H5  UNL     1      19.855  41.084  22.762  1.00  0.00     0.161 HD
ENDBRANCH  33  34
ENDBRANCH  32  33
ENDBRANCH  31  32
ENDBRANCH  30  31
ENDBRANCH  25  30
BRANCH  28  39
HETATM   39  C31 UNL     1      23.979  37.440  16.365  1.00  0.00     0.127 C 
HETATM   40  C32 UNL     1      23.283  36.269  15.706  1.00  0.00     0.027 C 
ENDBRANCH  28  39
BRANCH  20  41
HETATM   41  C18 UNL     1      22.514  43.545  16.233  1.00  0.00     0.067 C 
BRANCH  41  42
HETATM   42  C19 UNL     1      22.844  44.480  15.070  1.00  0.00    -0.017 C 
HETATM   43  C20 UNL     1      23.030  43.604  13.823  1.00  0.00     0.010 C 
HETATM   44  C21 UNL     1      21.606  45.310  14.815  1.00  0.00     0.010 C 
ENDBRANCH  41  42
ENDBRANCH  20  41
BRANCH  15  45
HETATM   45  C13 UNL     1      19.193  43.506  19.740  1.00  0.00     0.009 C 
HETATM   46  C14 UNL     1      18.931  42.021  20.030  1.00  0.00     0.012 C 
HETATM   47  C15 UNL     1      20.161  43.972  20.794  1.00  0.00     0.012 C 
ENDBRANCH  15  45
BRANCH   1  48
HETATM   48  C2  UNL     1      17.090  37.171  18.589  1.00  0.00     0.037 C 
HETATM   49  C1  UNL     1      16.650  36.094  17.619  1.00  0.00     0.010 C 
ENDBRANCH   1  48
TORSDOF 10
ENDMDL
MODEL 2
REMARK VINA RESULT: -4.948685931      2.438      4.254
REMARK  10 active torsions:
REMARK  status: ('A' for Active; 'I' for Inactive)
REMARK    1  A    between atoms: C2_2  and  C3_3 
REMARK    2  A    between atoms: C12_17  and  C13_18 
REMARK    3  A    between atoms: C17_25  and  C18_26 
REMARK    4  A    between atoms: C18_26  and  C19_27 
REMARK    5  A    between atoms: C24_34  and  C25_35 
REMARK    6  A    between atoms: C25_35  and  C26_36 
REMARK    7  A    between atoms: C26_36  and  C27_37 
REMARK    8  A    between atoms: C27_37  and  C28_38 
REMARK    9  A    between atoms: C28_38  and  N5_39 
REMARK   10  A    between atoms: N8_46  and  C31_47 
ROOT
HETATM    1  C3  UNL     1      20.924  37.377  17.215  1.00  0.00    -0.024 A 
HETATM    2  C4  UNL     1      22.062  37.716  16.570  1.00  0.00    -0.025 A 
HETATM    3  C5  UNL     1      23.244  36.796  16.404  1.00  0.00     0.051 C 
HETATM    4  C6  UNL     1      21.915  39.051  16.099  1.00  0.00     0.055 A 
HETATM    5  N1  UNL     1      20.691  39.470  16.478  1.00  0.00    -0.354 N 
ATOM      6  H1  UNL     1      20.298  40.392  16.284  1.00  0.00     0.166 HD
HETATM    7  C7  UNL     1      20.070  38.488  17.150  1.00  0.00     0.035 A 
HETATM    8  C8  UNL     1      18.853  38.433  17.711  1.00  0.00     0.004 C 
HETATM    9  C9  UNL     1      17.754  39.391  17.816  1.00  0.00     0.038 C 
HETATM   10  C10 UNL     1      17.483  39.578  19.317  1.00  0.00     0.106 C 
HETATM   11  C11 UNL     1      17.046  40.961  19.611  1.00  0.00     0.218 C 
HETATM   12  O1  UNL     1      15.914  41.075  20.217  1.00  0.00    -0.274 OA
HETATM   13  N2  UNL     1      17.700  42.146  19.316  1.00  0.00    -0.347 N 
ATOM     14  H2  UNL     1      17.132  42.828  18.814  1.00  0.00     0.163 HD
HETATM   15  C12 UNL     1      19.044  42.576  19.598  1.00  0.00     0.180 C 
HETATM   16  C16 UNL     1      19.120  44.054  19.777  1.00  0.00     0.245 C 
HETATM   17  O2  UNL     1      18.204  44.513  20.552  1.00  0.00    -0.271 OA
HETATM   18  N3  UNL     1      20.024  44.953  19.233  1.00  0.00    -0.324 N 
ATOM     19  H3  UNL     1      20.480  45.561  19.913  1.00  0.00     0.169 HD
HETATM   20  C17 UNL     1      20.429  45.172  17.866  1.00  0.00     0.080 C 
HETATM   21  C22 UNL     1      21.888  45.034  17.640  1.00  0.00     0.266 C 
HETATM   22  O3  UNL     1      22.590  45.862  18.348  1.00  0.00    -0.266 OA
HETATM   23  N4  UNL     1      22.596  44.164  16.797  1.00  0.00    -0.338 N 
HETATM   24  C23 UNL     1      23.507  44.777  15.815  1.00  0.00     0.154 C 
HETATM   25  C24 UNL     1      22.556  42.713  16.777  1.00  0.00     0.179 C 
HETATM   26  C30 UNL     1      22.530  42.176  15.406  1.00  0.00     0.246 C 
HETATM   27  O4  UNL     1      21.991  43.001  14.567  1.00  0.00    -0.271 OA
HETATM   28  N8  UNL     1      22.967  40.971  14.861  1.00  0.00    -0.325 N 
HETATM   29  C33 UNL     1      22.881  39.673  15.420  1.00  0.00     0.123 C 
ENDROOT
BRANCH  25  30
HETATM   30  C25 UNL     1      23.613  42.209  17.684  1.00  0.00     0.035 C 
BRANCH  30  31
HETATM   31  C26 UNL     1      23.235  41.487  18.898  1.00  0.00     0.004 C 
BRANCH  31  32
HETATM   32  C27 UNL     1      23.928  40.115  18.988  1.00  0.00     0.020 C 
BRANCH  32  33
HETATM   33  C28 UNL     1      25.087  39.974  18.078  1.00  0.00     0.122 C 
BRANCH  33  34
HETATM   34  N5  UNL     1      26.276  39.653  18.777  1.00  0.00    -0.367 N 
HETATM   35  C29 UNL     1      27.093  40.304  19.445  1.00  0.00     0.196 C 
HETATM   36  N6  UNL     1      27.110  41.691  19.755  1.00  0.00    -0.067 NA
HETATM   37  N7  UNL     1      28.210  39.570  20.009  1.00  0.00    -0.067 NA
ATOM     38  H5  UNL     1      26.513  38.664  18.718  1.00  0.00     0.161 HD
ENDBRANCH  33  34
ENDBRANCH  32  33
ENDBRANCH  31  32
ENDBRANCH  30  31
ENDBRANCH  25  30
BRANCH  28  39
HETATM   39  C31 UNL     1      23.589  41.069  13.521  1.00  0.00     0.127 C 
HETATM   40  C32 UNL     1      22.756  40.333  12.495  1.00  0.00     0.027 C 
ENDBRANCH  28  39
BRANCH  20  41
HETATM   41  C18 UNL     1      19.560  44.586  16.814  1.00  0.00     0.067 C 
BRANCH  41  42
HETATM   42  C19 UNL     1      18.332  45.444  16.514  1.00  0.00    -0.017 C 
HETATM   43  C20 UNL     1      18.488  45.973  15.082  1.00  0.00     0.010 C 
HETATM   44  C21 UNL     1      17.145  44.508  16.485  1.00  0.00     0.010 C 
ENDBRANCH  41  42
ENDBRANCH  20  41
BRANCH  15  45
HETATM   45  C13 UNL     1      19.582  41.984  20.883  1.00  0.00     0.009 C 
HETATM   46  C14 UNL     1      20.395  40.732  20.521  1.00  0.00     0.012 C 
HETATM   47  C15 UNL     1      20.533  42.905  21.599  1.00  0.00     0.012 C 
ENDBRANCH  15  45
BRANCH   1  48
HETATM   48  C2  UNL     1      20.710  36.030  17.855  1.00  0.00     0.037 C 
HETATM   49  C1  UNL     1      20.095  35.114  16.817  1.00  0.00     0.010 C 
ENDBRANCH   1  48
TORSDOF 10
ENDMDL
MODEL 3
REMARK VINA RESULT: -4.764642197      1.538      2.011
REMARK  10 active torsions:
REMARK  status: ('A' for Active; 'I' for Inactive)
REMARK    1  A    between atoms: C2_2  and  C3_3 
REMARK    2  A    between atoms: C12_17  and  C13_18 
REMARK    3  A    between atoms: C17_25  and  C18_26 
REMARK    4  A    between atoms: C18_26  and  C19_27 
REMARK    5  A    between atoms: C24_34  and  C25_35 
REMARK    6  A    between atoms: C25_35  and  C26_36 
REMARK    7  A    between atoms: C26_36  and  C27_37 
REMARK    8  A    between atoms: C27_37  and  C28_38 
REMARK    9  A    between atoms: C28_38  and  N5_39 
REMARK   10  A    between atoms: N8_46  and  C31_47 
ROOT
HETATM    1  C3  UNL     1      18.360  37.737  18.085  1.00  0.00    -0.024 A 
HETATM    2  C4  UNL     1      19.550  37.107  18.206  1.00  0.00    -0.025 A 
HETATM    3  C5  UNL     1      19.730  35.765  18.866  1.00  0.00     0.051 C 
HETATM    4  C6  UNL     1      20.543  37.930  17.605  1.00  0.00     0.055 A 
HETATM    5  N1  UNL     1      19.916  39.030  17.142  1.00  0.00    -0.354 N 
ATOM      6  H1  UNL     1      20.368  39.807  16.659  1.00  0.00     0.166 HD
HETATM    7  C7  UNL     1      18.604  38.945  17.413  1.00  0.00     0.035 A 
HETATM    8  C8  UNL     1      17.590  39.782  17.149  1.00  0.00     0.004 C 
HETATM    9  C9  UNL     1      17.511  41.082  16.485  1.00  0.00     0.038 C 
HETATM   10  C10 UNL     1      16.902  42.055  17.507  1.00  0.00     0.106 C 
HETATM   11  C11 UNL     1      17.457  43.416  17.342  1.00  0.00     0.218 C 
HETATM   12  O1  UNL     1      16.594  44.354  17.146  1.00  0.00    -0.274 OA
HETATM   13  N2  UNL     1      18.785  43.808  17.370  1.00  0.00    -0.347 N 
ATOM     14  H2  UNL     1      19.082  44.356  16.563  1.00  0.00     0.163 HD
HETATM   15  C12 UNL     1      19.817  43.573  18.345  1.00  0.00     0.180 C 
HETATM   16  C16 UNL     1      20.803  44.691  18.382  1.00  0.00     0.245 C 
HETATM   17  O2  UNL     1      20.247  45.848  18.413  1.00  0.00    -0.271 OA
HETATM   18  N3  UNL     1      22.187  44.632  18.388  1.00  0.00    -0.324 N 
ATOM     19  H3  UNL     1      22.631  45.161  19.139  1.00  0.00     0.169 HD
HETATM   20  C17 UNL     1      23.106  43.949  17.510  1.00  0.00     0.080 C 
HETATM   21  C22 UNL     1      24.015  43.005  18.207  1.00  0.00     0.266 C 
HETATM   22  O3  UNL     1      24.753  43.582  19.102  1.00  0.00    -0.266 OA
HETATM   23  N4  UNL     1      24.186  41.624  18.040  1.00  0.00    -0.338 N 
HETATM   24  C23 UNL     1      25.545  41.149  17.729  1.00  0.00     0.154 C 
HETATM   25  C24 UNL     1      23.181  40.581  18.150  1.00  0.00     0.179 C 
HETATM   26  C30 UNL     1      23.316  39.564  17.092  1.00  0.00     0.246 C 
HETATM   27  O4  UNL     1      23.855  40.044  16.018  1.00  0.00    -0.271 OA
HETATM   28  N8  UNL     1      22.977  38.215  17.038  1.00  0.00    -0.325 N 
HETATM   29  C33 UNL     1      21.829  37.577  17.568  1.00  0.00     0.123 C 
ENDROOT
BRANCH  25  30
HETATM   30  C25 UNL     1      23.161  40.103  19.552  1.00  0.00     0.035 C 
BRANCH  30  31
HETATM   31  C26 UNL     1      21.919  40.180  20.320  1.00  0.00     0.004 C 
BRANCH  31  32
HETATM   32  C27 UNL     1      22.151  40.757  21.728  1.00  0.00     0.020 C 
BRANCH  32  33
HETATM   33  C28 UNL     1      23.066  41.921  21.750  1.00  0.00     0.122 C 
BRANCH  33  34
HETATM   34  N5  UNL     1      24.103  41.764  22.701  1.00  0.00    -0.367 N 
HETATM   35  C29 UNL     1      25.276  41.364  22.650  1.00  0.00     0.196 C 
HETATM   36  N6  UNL     1      26.026  40.894  21.537  1.00  0.00    -0.067 NA
HETATM   37  N7  UNL     1      26.021  41.361  23.895  1.00  0.00    -0.067 NA
ATOM     38  H5  UNL     1      23.822  42.043  23.640  1.00  0.00     0.161 HD
ENDBRANCH  33  34
ENDBRANCH  32  33
ENDBRANCH  31  32
ENDBRANCH  30  31
ENDBRANCH  25  30
BRANCH  28  39
HETATM   39  C31 UNL     1      23.940  37.346  16.323  1.00  0.00     0.127 C 
HETATM   40  C32 UNL     1      23.214  36.233  15.601  1.00  0.00     0.027 C 
ENDBRANCH  28  39
BRANCH  20  41
HETATM   41  C18 UNL     1      22.558  43.472  16.216  1.00  0.00     0.067 C 
BRANCH  41  42
HETATM   42  C19 UNL     1      22.910  44.392  15.049  1.00  0.00    -0.017 C 
HETATM   43  C20 UNL     1      23.071  43.506  13.806  1.00  0.00     0.010 C 
HETATM   44  C21 UNL     1      21.693  45.252  14.791  1.00  0.00     0.010 C 
ENDBRANCH  41  42
ENDBRANCH  20  41
BRANCH  15  45
HETATM   45  C13 UNL     1      19.268  43.470  19.753  1.00  0.00     0.009 C 
HETATM   46  C14 UNL     1      19.045  41.983  20.065  1.00  0.00     0.012 C 
HETATM   47  C15 UNL     1      20.231  43.974  20.795  1.00  0.00     0.012 C 
ENDBRANCH  15  45
BRANCH   1  48
HETATM   48  C2  UNL     1      17.068  37.166  18.609  1.00  0.00     0.037 C 
HETATM   49  C1  UNL     1      16.616  36.083  17.652  1.00  0.00     0.010 C 
ENDBRANCH   1  48
TORSDOF 10
ENDMDL
MODEL 4
REMARK VINA RESULT: -4.680173430      2.158      3.452
REMARK  10 active torsions:
REMARK  status: ('A' for Active; 'I' for Inactive)
REMARK    1  A    between atoms: C2_2  and  C3_3 
REMARK    2  A    between atoms: C12_17  and  C13_18 
REMARK    3  A    between atoms: C17_25  and  C18_26 
REMARK    4  A    between atoms: C18_26  and  C19_27 
REMARK    5  A    between atoms: C24_34  and  C25_35 
REMARK    6  A    between atoms: C25_35  and  C26_36 
REMARK    7  A    between atoms: C26_36  and  C27_37 
REMARK    8  A    between atoms: C27_37  and  C28_38 
REMARK    9  A    between atoms: C28_38  and  N5_39 
REMARK   10  A    between atoms: N8_46  and  C31_47 
ROOT
HETATM    1  C3  UNL     1      20.919  37.407  17.470  1.00  0.00    -0.024 A 
HETATM    2  C4  UNL     1      22.070  37.790  16.877  1.00  0.00    -0.025 A 
HETATM    3  C5  UNL     1      23.299  36.923  16.782  1.00  0.00     0.051 C 
HETATM    4  C6  UNL     1      21.888  39.111  16.380  1.00  0.00     0.055 A 
HETATM    5  N1  UNL     1      20.629  39.479  16.692  1.00  0.00    -0.354 N 
ATOM      6  H1  UNL     1      20.205  40.379  16.465  1.00  0.00     0.166 HD
HETATM    7  C7  UNL     1      20.020  38.478  17.347  1.00  0.00     0.035 A 
HETATM    8  C8  UNL     1      18.780  38.375  17.848  1.00  0.00     0.004 C 
HETATM    9  C9  UNL     1      17.636  39.283  17.885  1.00  0.00     0.038 C 
HETATM   10  C10 UNL     1      17.283  39.476  19.369  1.00  0.00     0.106 C 
HETATM   11  C11 UNL     1      16.770  40.841  19.621  1.00  0.00     0.218 C 
HETATM   12  O1  UNL     1      15.605  40.911  20.169  1.00  0.00    -0.274 OA
HETATM   13  N2  UNL     1      17.384  42.051  19.340  1.00  0.00    -0.347 N 
ATOM     14  H2  UNL     1      16.812  42.700  18.801  1.00  0.00     0.163 HD
HETATM   15  C12 UNL     1      18.692  42.546  19.681  1.00  0.00     0.180 C 
HETATM   16  C16 UNL     1      18.693  44.027  19.842  1.00  0.00     0.245 C 
HETATM   17  O2  UNL     1      17.719  44.454  20.564  1.00  0.00    -0.271 OA
HETATM   18  N3  UNL     1      19.581  44.959  19.329  1.00  0.00    -0.324 N 
ATOM     19  H3  UNL     1      19.975  45.596  20.022  1.00  0.00     0.169 HD
HETATM   20  C17 UNL     1      20.042  45.180  17.981  1.00  0.00     0.080 C 
HETATM   21  C22 UNL     1      21.516  45.105  17.829  1.00  0.00     0.266 C 
HETATM   22  O3  UNL     1      22.144  45.973  18.558  1.00  0.00    -0.266 OA
HETATM   23  N4  UNL     1      22.303  44.258  17.035  1.00  0.00    -0.338 N 
HETATM   24  C23 UNL     1      23.233  44.899  16.089  1.00  0.00     0.154 C 
HETATM   25  C24 UNL     1      22.329  42.807  17.034  1.00  0.00     0.179 C 
HETATM   26  C30 UNL     1      22.395  42.251  15.671  1.00  0.00     0.246 C 
HETATM   27  O4  UNL     1      21.862  43.041  14.795  1.00  0.00    -0.271 OA
HETATM   28  N8  UNL     1      22.912  41.061  15.166  1.00  0.00    -0.325 N 
HETATM   29  C33 UNL     1      22.857  39.767  15.739  1.00  0.00     0.123 C 
ENDROOT
BRANCH  25  30
HETATM   30  C25 UNL     1      23.362  42.362  17.999  1.00  0.00     0.035 C 
BRANCH  30  31
HETATM   31  C26 UNL     1      22.981  41.489  19.108  1.00  0.00     0.004 C 
BRANCH  31  32
HETATM   32  C27 UNL     1      24.197  41.084  19.961  1.00  0.00     0.020 C 
BRANCH  32  33
HETATM   33  C28 UNL     1      24.354  41.890  21.193  1.00  0.00     0.122 C 
BRANCH  33  34
HETATM   34  N5  UNL     1      23.371  41.575  22.162  1.00  0.00    -0.367 N 
HETATM   35  C29 UNL     1      23.383  40.986  23.254  1.00  0.00     0.196 C 
HETATM   36  N6  UNL     1      24.469  40.386  23.946  1.00  0.00    -0.067 NA
HETATM   37  N7  UNL     1      22.116  40.877  23.953  1.00  0.00    -0.067 NA
ATOM     38  H5  UNL     1      22.442  41.909  21.904  1.00  0.00     0.161 HD
ENDBRANCH  33  34
ENDBRANCH  32  33
ENDBRANCH  31  32
ENDBRANCH  30  31
ENDBRANCH  25  30
BRANCH  28  39
HETATM   39  C31 UNL     1      23.595  41.171  13.856  1.00  0.00     0.127 C 
HETATM   40  C32 UNL     1      22.816  40.435  12.789  1.00  0.00     0.027 C 
ENDBRANCH  28  39
BRANCH  20  41
HETATM   41  C18 UNL     1      19.254  44.542  16.896  1.00  0.00     0.067 C 
BRANCH  41  42
HETATM   42  C19 UNL     1      17.961  45.292  16.584  1.00  0.00    -0.017 C 
HETATM   43  C20 UNL     1      18.145  45.961  15.214  1.00  0.00     0.010 C 
HETATM   44  C21 UNL     1      16.886  44.246  16.395  1.00  0.00     0.010 C 
ENDBRANCH  41  42
ENDBRANCH  20  41
BRANCH  15  45
HETATM   45  C13 UNL     1      19.192  41.994  21.000  1.00  0.00     0.009 C 
HETATM   46  C14 UNL     1      20.131  40.818  20.693  1.00  0.00     0.012 C 
HETATM   47  C15 UNL     1      20.010  42.989  21.777  1.00  0.00     0.012 C 
ENDBRANCH  15  45
BRANCH   1  48
HETATM   48  C2  UNL     1      20.733  36.060  18.119  1.00  0.00     0.037 C 
HETATM   49  C1  UNL     1      20.156  35.120  17.082  1.00  0.00     0.010 C 
ENDBRANCH   1  48
TORSDOF 10
ENDMDL
MODEL 5
REMARK VINA RESULT: -4.550630710      2.821      7.286
REMARK  10 active torsions:
REMARK  status: ('A' for Active; 'I' for Inactive)
REMARK    1  A    between atoms: C2_2  and  C3_3 
REMARK    2  A    between atoms: C12_17  and  C13_18 
REMARK    3  A    between atoms: C17_25  and  C18_26 
REMARK    4  A    between atoms: C18_26  and  C19_27 
REMARK    5  A    between atoms: C24_34  and  C25_35 
REMARK    6  A    between atoms: C25_35  and  C26_36 
REMARK    7  A    between atoms: C26_36  and  C27_37 
REMARK    8  A    between atoms: C27_37  and  C28_38 
REMARK    9  A    between atoms: C28_38  and  N5_39 
REMARK   10  A    between atoms: N8_46  and  C31_47 
ROOT
HETATM    1  C3  UNL     1      22.716  44.019  22.216  1.00  0.00    -0.024 A 
HETATM    2  C4  UNL     1      23.914  43.854  21.614  1.00  0.00    -0.025 A 
HETATM    3  C5  UNL     1      24.998  44.900  21.593  1.00  0.00     0.051 C 
HETATM    4  C6  UNL     1      23.939  42.552  21.040  1.00  0.00     0.055 A 
HETATM    5  N1  UNL     1      22.753  41.976  21.317  1.00  0.00    -0.354 N 
ATOM      6  H1  UNL     1      22.473  41.036  21.035  1.00  0.00     0.166 HD
HETATM    7  C7  UNL     1      21.995  42.830  22.022  1.00  0.00     0.035 A 
HETATM    8  C8  UNL     1      20.756  42.708  22.523  1.00  0.00     0.004 C 
HETATM    9  C9  UNL     1      19.767  41.632  22.498  1.00  0.00     0.038 C 
HETATM   10  C10 UNL     1      18.506  42.217  21.842  1.00  0.00     0.106 C 
HETATM   11  C11 UNL     1      17.789  41.189  21.056  1.00  0.00     0.218 C 
HETATM   12  O1  UNL     1      16.554  40.999  21.374  1.00  0.00    -0.274 OA
HETATM   13  N2  UNL     1      18.278  40.404  20.024  1.00  0.00    -0.347 N 
ATOM     14  H2  UNL     1      18.126  39.403  20.145  1.00  0.00     0.163 HD
HETATM   15  C12 UNL     1      18.965  40.764  18.811  1.00  0.00     0.180 C 
HETATM   16  C16 UNL     1      18.675  39.801  17.711  1.00  0.00     0.245 C 
HETATM   17  O2  UNL     1      17.423  39.534  17.596  1.00  0.00    -0.271 OA
HETATM   18  N3  UNL     1      19.555  39.188  16.834  1.00  0.00    -0.324 N 
ATOM     19  H3  UNL     1      19.313  39.291  15.848  1.00  0.00     0.169 HD
HETATM   20  C17 UNL     1      20.757  38.429  17.081  1.00  0.00     0.080 C 
HETATM   21  C22 UNL     1      21.962  38.973  16.408  1.00  0.00     0.266 C 
HETATM   22  O3  UNL     1      21.842  39.025  15.119  1.00  0.00    -0.266 OA
HETATM   23  N4  UNL     1      23.174  39.426  16.949  1.00  0.00    -0.338 N 
HETATM   24  C23 UNL     1      24.407  38.785  16.459  1.00  0.00     0.154 C 
HETATM   25  C24 UNL     1      23.376  40.470  17.937  1.00  0.00     0.179 C 
HETATM   26  C30 UNL     1      24.389  40.101  18.940  1.00  0.00     0.246 C 
HETATM   27  O4  UNL     1      24.470  38.820  19.105  1.00  0.00    -0.271 OA
HETATM   28  N8  UNL     1      25.255  40.859  19.725  1.00  0.00    -0.325 N 
HETATM   29  C33 UNL     1      24.998  42.093  20.371  1.00  0.00     0.123 C 
ENDROOT
BRANCH  25  30
HETATM   30  C25 UNL     1      23.566  41.753  17.221  1.00  0.00     0.035 C 
BRANCH  30  31
HETATM   31  C26 UNL     1      22.398  42.560  16.868  1.00  0.00     0.004 C 
BRANCH  31  32
HETATM   32  C27 UNL     1      22.216  42.667  15.343  1.00  0.00     0.020 C 
BRANCH  32  33
HETATM   33  C28 UNL     1      23.352  42.118  14.569  1.00  0.00     0.122 C 
BRANCH  33  34
HETATM   34  N5  UNL     1      22.919  41.381  13.441  1.00  0.00    -0.367 N 
HETATM   35  C29 UNL     1      23.431  41.077  12.352  1.00  0.00     0.196 C 
HETATM   36  N6  UNL     1      24.717  41.392  11.837  1.00  0.00    -0.067 NA
HETATM   37  N7  UNL     1      22.621  40.282  11.448  1.00  0.00    -0.067 NA
ATOM     38  H5  UNL     1      21.973  41.016  13.548  1.00  0.00     0.161 HD
ENDBRANCH  33  34
ENDBRANCH  32  33
ENDBRANCH  31  32
ENDBRANCH  30  31
ENDBRANCH  25  30
BRANCH  28  39
HETATM   39  C31 UNL     1      26.609  40.289  19.909  1.00  0.00     0.127 C 
HETATM   40  C32 UNL     1      27.649  41.170  19.253  1.00  0.00     0.027 C 
ENDBRANCH  28  39
BRANCH  20  41
HETATM   41  C18 UNL     1      20.963  37.945  18.469  1.00  0.00     0.067 C 
BRANCH  41  42
HETATM   42  C19 UNL     1      20.749  36.439  18.609  1.00  0.00    -0.017 C 
HETATM   43  C20 UNL     1      19.237  36.186  18.525  1.00  0.00     0.010 C 
HETATM   44  C21 UNL     1      21.346  35.800  17.375  1.00  0.00     0.010 C 
ENDBRANCH  41  42
ENDBRANCH  20  41
BRANCH  15  45
HETATM   45  C13 UNL     1      18.539  42.119  18.287  1.00  0.00     0.009 C 
HETATM   46  C14 UNL     1      19.553  43.158  18.790  1.00  0.00     0.012 C 
HETATM   47  C15 UNL     1      18.570  42.201  16.785  1.00  0.00     0.012 C 
ENDBRANCH  15  45
BRANCH   1  48
HETATM   48  C2  UNL     1      22.320  45.283  22.933  1.00  0.00     0.037 C 
HETATM   49  C1  UNL     1      22.691  45.124  24.393  1.00  0.00     0.010 C 
ENDBRANCH   1  48
TORSDOF 10
ENDMDL
