MODEL 1
REMARK VINA RESULT: -9.552202710      0.000      0.000
REMARK  14 active torsions:
REMARK  status: ('A' for Active; 'I' for Inactive)
REMARK    1  A    between atoms: C3_5  and  N2_6 
REMARK    2  A    between atoms: C3_5  and  C18_26 
REMARK    3  A    between atoms: N2_6  and  C4_8 
REMARK    4  A    between atoms: C4_8  and  C5_9 
REMARK    5  A    between atoms: C6_10  and  C7_11 
REMARK    6  A    between atoms: C9_13  and  C10_14 
REMARK    7  A    between atoms: C19_27  and  C20_28 
REMARK    8  A    between atoms: C20_28  and  C21_29 
REMARK    9  A    between atoms: C21_29  and  C22_30 
REMARK   10  A    between atoms: C24_32  and  C25_33 
REMARK   11  A    between atoms: C25_33  and  C26_34 
REMARK       I    between atoms: C26_34  and  N5_36 
REMARK   12  A    between atoms: N5_36  and  C27_38 
REMARK   13  A    between atoms: C27_38  and  C28_39 
REMARK   14  A    between atoms: C28_39  and  N6_40 
REMARK       I    between atoms: N6_40  and  C29_42 
REMARK       I    between atoms: C29_42  and  N7_44 
ROOT
HETATM    1  C1  UNL     1      23.213  35.345  15.123  1.00  0.00     0.037 C 
HETATM    2  C2  UNL     1      23.005  34.153  15.229  1.00  0.00     0.000 C 
HETATM    3  N1  UNL     1      22.744  32.794  15.354  1.00  0.00    -0.305 N 
ATOM      4  H1  UNL     1      23.511  32.166  15.595  1.00  0.00     0.177 HD
HETATM    5  C3  UNL     1      21.585  32.304  15.180  1.00  0.00     0.093 C 
ENDROOT
BRANCH   5   6
HETATM    6  N2  UNL     1      21.398  30.902  15.321  1.00  0.00    -0.354 N 
ATOM      7  H2  UNL     1      20.742  30.598  16.040  1.00  0.00     0.166 HD
BRANCH   6   8
HETATM    8  C4  UNL     1      22.019  29.899  14.576  1.00  0.00     0.103 C 
BRANCH   8   9
HETATM    9  C5  UNL     1      21.622  29.171  13.570  1.00  0.00     0.014 A 
HETATM   10  C6  UNL     1      20.399  28.660  13.157  1.00  0.00    -0.017 A 
HETATM   11  C9  UNL     1      20.506  27.958  11.979  1.00  0.00     0.051 A 
HETATM   12  N4  UNL     1      21.833  28.048  11.667  1.00  0.00    -0.355 N 
HETATM   13  C16 UNL     1      22.509  28.750  12.579  1.00  0.00     0.035 A 
ATOM     14  H4  UNL     1      22.256  27.630  10.838  1.00  0.00     0.166 HD
HETATM   15  C17 UNL     1      23.831  28.972  12.486  1.00  0.00     0.044 C 
BRANCH  10  16
HETATM   16  C7  UNL     1      19.134  28.908  13.930  1.00  0.00     0.037 C 
HETATM   17  C8  UNL     1      18.156  29.776  13.207  1.00  0.00     0.010 C 
ENDBRANCH  10  16
BRANCH  11  18
HETATM   18  C10 UNL     1      19.534  27.176  11.213  1.00  0.00     0.007 A 
HETATM   19  C11 UNL     1      19.261  27.629   9.976  1.00  0.00     0.102 A 
HETATM   20  N3  UNL     1      18.350  26.994   9.093  1.00  0.00    -0.366 N 
HETATM   21  C12 UNL     1      17.678  25.814   9.501  1.00  0.00     0.022 A 
ATOM     22  H3  UNL     1      18.179  27.386   8.167  1.00  0.00     0.165 HD
HETATM   23  C13 UNL     1      16.826  25.199   8.707  1.00  0.00     0.043 C 
HETATM   24  C14 UNL     1      17.986  25.334  10.832  1.00  0.00     0.029 A 
HETATM   25  C15 UNL     1      18.864  25.988  11.624  1.00  0.00     0.017 A 
ENDBRANCH  11  18
ENDBRANCH   8   9
ENDBRANCH   6   8
ENDBRANCH   5   6
BRANCH   5  26
HETATM   26  C18 UNL     1      20.456  33.171  14.819  1.00  0.00     0.063 A 
HETATM   27  C19 UNL     1      19.075  32.807  15.234  1.00  0.00     0.002 A 
HETATM   28  C24 UNL     1      19.786  34.038  15.794  1.00  0.00     0.011 A 
BRANCH  27  29
HETATM   29  C20 UNL     1      17.932  33.048  14.249  1.00  0.00     0.006 C 
BRANCH  29  30
HETATM   30  C21 UNL     1      16.609  32.729  14.912  1.00  0.00     0.000 C 
BRANCH  30  31
HETATM   31  C22 UNL     1      15.621  33.810  14.550  1.00  0.00    -0.005 C 
HETATM   32  C23 UNL     1      16.417  35.036  14.150  1.00  0.00     0.005 C 
ENDBRANCH  30  31
ENDBRANCH  29  30
ENDBRANCH  27  29
BRANCH  28  33
HETATM   33  C25 UNL     1      19.925  34.008  17.271  1.00  0.00     0.108 C 
BRANCH  33  34
HETATM   34  C26 UNL     1      18.902  34.944  17.873  1.00  0.00     0.217 C 
HETATM   35  O1  UNL     1      19.256  35.781  18.746  1.00  0.00    -0.274 OA
HETATM   36  N5  UNL     1      17.546  34.882  17.455  1.00  0.00    -0.360 N 
ATOM     37  H5  UNL     1      17.252  34.206  16.751  1.00  0.00     0.162 HD
BRANCH  36  38
HETATM   38  C27 UNL     1      16.577  35.805  18.054  1.00  0.00     0.142 C 
BRANCH  38  39
HETATM   39  C28 UNL     1      16.304  36.947  17.132  1.00  0.00     0.144 C 
BRANCH  39  40
HETATM   40  N6  UNL     1      17.411  37.856  17.060  1.00  0.00    -0.341 N 
HETATM   41  C29 UNL     1      17.274  39.237  17.210  1.00  0.00     0.327 C 
HETATM   42  O2  UNL     1      16.140  39.733  17.423  1.00  0.00    -0.247 OA
HETATM   43  N7  UNL     1      18.356  40.174  17.142  1.00  0.00    -0.235 N 
HETATM   44  C30 UNL     1      19.729  39.890  16.945  1.00  0.00     0.321 C 
HETATM   45  C32 UNL     1      18.242  41.626  17.277  1.00  0.00     0.113 C 
HETATM   46  O3  UNL     1      20.330  38.790  17.110  1.00  0.00    -0.262 OA
HETATM   47  C31 UNL     1      20.347  41.157  16.503  1.00  0.00     0.312 C 
HETATM   48  O4  UNL     1      21.568  41.304  16.227  1.00  0.00    -0.262 OA
HETATM   49  N8  UNL     1      19.311  42.124  16.458  1.00  0.00    -0.326 N 
ATOM     50  H8  UNL     1      19.324  43.004  15.943  1.00  0.00     0.165 HD
HETATM   51  C33 UNL     1      18.360  42.060  18.714  1.00  0.00     0.064 C 
HETATM   52  C34 UNL     1      16.941  42.146  16.687  1.00  0.00     0.064 C 
ATOM     53  H6  UNL     1      18.342  37.476  16.891  1.00  0.00     0.164 HD
ENDBRANCH  39  40
ENDBRANCH  38  39
ENDBRANCH  36  38
ENDBRANCH  33  34
ENDBRANCH  28  33
ENDBRANCH   5  26
TORSDOF 14
ENDMDL
MODEL 2
REMARK VINA RESULT: -9.428948674      1.512      1.921
REMARK  14 active torsions:
REMARK  status: ('A' for Active; 'I' for Inactive)
REMARK    1  A    between atoms: C3_5  and  N2_6 
REMARK    2  A    between atoms: C3_5  and  C18_26 
REMARK    3  A    between atoms: N2_6  and  C4_8 
REMARK    4  A    between atoms: C4_8  and  C5_9 
REMARK    5  A    between atoms: C6_10  and  C7_11 
REMARK    6  A    between atoms: C9_13  and  C10_14 
REMARK    7  A    between atoms: C19_27  and  C20_28 
REMARK    8  A    between atoms: C20_28  and  C21_29 
REMARK    9  A    between atoms: C21_29  and  C22_30 
REMARK   10  A    between atoms: C24_32  and  C25_33 
REMARK   11  A    between atoms: C25_33  and  C26_34 
REMARK       I    between atoms: C26_34  and  N5_36 
REMARK   12  A    between atoms: N5_36  and  C27_38 
REMARK   13  A    between atoms: C27_38  and  C28_39 
REMARK   14  A    between atoms: C28_39  and  N6_40 
REMARK       I    between atoms: N6_40  and  C29_42 
REMARK       I    between atoms: C29_42  and  N7_44 
ROOT
HETATM    1  C1  UNL     1      22.925  35.627  15.021  1.00  0.00     0.037 C 
HETATM    2  C2  UNL     1      22.848  34.422  15.158  1.00  0.00     0.000 C 
HETATM    3  N1  UNL     1      22.736  33.046  15.317  1.00  0.00    -0.305 N 
ATOM      4  H1  UNL     1      23.568  32.511  15.569  1.00  0.00     0.177 HD
HETATM    5  C3  UNL     1      21.637  32.429  15.163  1.00  0.00     0.093 C 
ENDROOT
BRANCH   5   6
HETATM    6  N2  UNL     1      21.604  31.019  15.339  1.00  0.00    -0.354 N 
ATOM      7  H2  UNL     1      21.078  30.671  16.140  1.00  0.00     0.166 HD
BRANCH   6   8
HETATM    8  C4  UNL     1      22.216  30.063  14.528  1.00  0.00     0.103 C 
BRANCH   8   9
HETATM    9  C5  UNL     1      21.790  29.360  13.515  1.00  0.00     0.014 A 
HETATM   10  C6  UNL     1      20.542  28.958  13.062  1.00  0.00    -0.017 A 
HETATM   11  C9  UNL     1      20.626  28.232  11.897  1.00  0.00     0.051 A 
HETATM   12  N4  UNL     1      21.966  28.195  11.634  1.00  0.00    -0.355 N 
HETATM   13  C16 UNL     1      22.670  28.845  12.564  1.00  0.00     0.035 A 
ATOM     14  H4  UNL     1      22.379  27.727  10.827  1.00  0.00     0.166 HD
HETATM   15  C17 UNL     1      24.009  28.942  12.518  1.00  0.00     0.044 C 
BRANCH  10  16
HETATM   16  C7  UNL     1      19.277  29.333  13.783  1.00  0.00     0.037 C 
HETATM   17  C8  UNL     1      18.403  28.165  14.100  1.00  0.00     0.010 C 
ENDBRANCH  10  16
BRANCH  11  18
HETATM   18  C10 UNL     1      19.615  27.532  11.103  1.00  0.00     0.007 A 
HETATM   19  C11 UNL     1      19.725  26.191  11.065  1.00  0.00     0.102 A 
HETATM   20  N3  UNL     1      18.831  25.352  10.351  1.00  0.00    -0.366 N 
HETATM   21  C12 UNL     1      17.749  25.922   9.634  1.00  0.00     0.022 A 
ATOM     22  H3  UNL     1      18.967  24.341  10.354  1.00  0.00     0.165 HD
HETATM   23  C13 UNL     1      16.900  25.173   8.960  1.00  0.00     0.043 C 
HETATM   24  C14 UNL     1      17.638  27.365   9.689  1.00  0.00     0.029 A 
HETATM   25  C15 UNL     1      18.526  28.106  10.388  1.00  0.00     0.017 A 
ENDBRANCH  11  18
ENDBRANCH   8   9
ENDBRANCH   6   8
ENDBRANCH   5   6
BRANCH   5  26
HETATM   26  C18 UNL     1      20.418  33.159  14.788  1.00  0.00     0.063 A 
HETATM   27  C19 UNL     1      19.097  32.719  15.307  1.00  0.00     0.002 A 
HETATM   28  C24 UNL     1      19.719  34.053  15.718  1.00  0.00     0.011 A 
BRANCH  27  29
HETATM   29  C20 UNL     1      17.892  32.769  14.368  1.00  0.00     0.006 C 
BRANCH  29  30
HETATM   30  C21 UNL     1      16.679  32.184  15.060  1.00  0.00     0.000 C 
BRANCH  30  31
HETATM   31  C22 UNL     1      15.752  33.314  15.433  1.00  0.00    -0.005 C 
HETATM   32  C23 UNL     1      15.884  34.381  14.365  1.00  0.00     0.005 C 
ENDBRANCH  30  31
ENDBRANCH  29  30
ENDBRANCH  27  29
BRANCH  28  33
HETATM   33  C25 UNL     1      19.928  34.171  17.182  1.00  0.00     0.108 C 
BRANCH  33  34
HETATM   34  C26 UNL     1      18.944  35.180  17.731  1.00  0.00     0.217 C 
HETATM   35  O1  UNL     1      18.969  35.476  18.956  1.00  0.00    -0.274 OA
HETATM   36  N5  UNL     1      17.996  35.792  16.870  1.00  0.00    -0.360 N 
ATOM     37  H5  UNL     1      17.968  35.555  15.879  1.00  0.00     0.162 HD
BRANCH  36  38
HETATM   38  C27 UNL     1      17.057  36.768  17.430  1.00  0.00     0.142 C 
BRANCH  38  39
HETATM   39  C28 UNL     1      17.560  38.159  17.219  1.00  0.00     0.144 C 
BRANCH  39  40
HETATM   40  N6  UNL     1      18.990  38.230  17.289  1.00  0.00    -0.341 N 
HETATM   41  C29 UNL     1      19.703  39.420  17.134  1.00  0.00     0.327 C 
HETATM   42  O2  UNL     1      19.087  40.494  16.925  1.00  0.00    -0.247 OA
HETATM   43  N7  UNL     1      21.131  39.528  17.195  1.00  0.00    -0.235 N 
HETATM   44  C30 UNL     1      22.062  38.490  17.446  1.00  0.00     0.321 C 
HETATM   45  C32 UNL     1      21.906  40.755  17.019  1.00  0.00     0.113 C 
HETATM   46  O3  UNL     1      21.849  37.361  17.975  1.00  0.00    -0.262 OA
HETATM   47  C31 UNL     1      23.365  38.990  16.963  1.00  0.00     0.312 C 
HETATM   48  O4  UNL     1      24.447  38.344  17.017  1.00  0.00    -0.262 OA
HETATM   49  N8  UNL     1      23.142  40.292  16.452  1.00  0.00    -0.326 N 
ATOM     50  H8  UNL     1      23.743  40.803  15.805  1.00  0.00     0.165 HD
HETATM   51  C33 UNL     1      22.100  41.480  18.324  1.00  0.00     0.064 C 
HETATM   52  C34 UNL     1      21.263  41.685  16.003  1.00  0.00     0.064 C 
ATOM     53  H6  UNL     1      19.512  37.370  17.460  1.00  0.00     0.164 HD
ENDBRANCH  39  40
ENDBRANCH  38  39
ENDBRANCH  36  38
ENDBRANCH  33  34
ENDBRANCH  28  33
ENDBRANCH   5  26
TORSDOF 14
ENDMDL
MODEL 3
REMARK VINA RESULT: -9.304761844      1.477      2.505
REMARK  14 active torsions:
REMARK  status: ('A' for Active; 'I' for Inactive)
REMARK    1  A    between atoms: C3_5  and  N2_6 
REMARK    2  A    between atoms: C3_5  and  C18_26 
REMARK    3  A    between atoms: N2_6  and  C4_8 
REMARK    4  A    between atoms: C4_8  and  C5_9 
REMARK    5  A    between atoms: C6_10  and  C7_11 
REMARK    6  A    between atoms: C9_13  and  C10_14 
REMARK    7  A    between atoms: C19_27  and  C20_28 
REMARK    8  A    between atoms: C20_28  and  C21_29 
REMARK    9  A    between atoms: C21_29  and  C22_30 
REMARK   10  A    between atoms: C24_32  and  C25_33 
REMARK   11  A    between atoms: C25_33  and  C26_34 
REMARK       I    between atoms: C26_34  and  N5_36 
REMARK   12  A    between atoms: N5_36  and  C27_38 
REMARK   13  A    between atoms: C27_38  and  C28_39 
REMARK   14  A    between atoms: C28_39  and  N6_40 
REMARK       I    between atoms: N6_40  and  C29_42 
REMARK       I    between atoms: C29_42  and  N7_44 
ROOT
HETATM    1  C1  UNL     1      23.309  34.710  15.142  1.00  0.00     0.037 C 
HETATM    2  C2  UNL     1      22.835  33.632  15.440  1.00  0.00     0.000 C 
HETATM    3  N1  UNL     1      22.271  32.408  15.783  1.00  0.00    -0.305 N 
ATOM      4  H1  UNL     1      22.877  31.674  16.150  1.00  0.00     0.177 HD
HETATM    5  C3  UNL     1      21.030  32.171  15.656  1.00  0.00     0.093 C 
ENDROOT
BRANCH   5   6
HETATM    6  N2  UNL     1      20.529  30.893  16.025  1.00  0.00    -0.354 N 
ATOM      7  H2  UNL     1      19.803  30.875  16.741  1.00  0.00     0.166 HD
BRANCH   6   8
HETATM    8  C4  UNL     1      20.928  29.660  15.507  1.00  0.00     0.103 C 
BRANCH   8   9
HETATM    9  C5  UNL     1      20.956  29.178  14.295  1.00  0.00     0.014 A 
HETATM   10  C6  UNL     1      20.002  28.677  13.422  1.00  0.00    -0.017 A 
HETATM   11  C9  UNL     1      20.551  28.311  12.215  1.00  0.00     0.051 A 
HETATM   12  N4  UNL     1      21.878  28.601  12.361  1.00  0.00    -0.355 N 
HETATM   13  C16 UNL     1      22.143  29.108  13.567  1.00  0.00     0.035 A 
ATOM     14  H4  UNL     1      22.580  28.448  11.637  1.00  0.00     0.166 HD
HETATM   15  C17 UNL     1      23.382  29.468  13.941  1.00  0.00     0.044 C 
BRANCH  10  16
HETATM   16  C7  UNL     1      18.548  28.602  13.793  1.00  0.00     0.037 C 
HETATM   17  C8  UNL     1      17.833  29.908  13.670  1.00  0.00     0.010 C 
ENDBRANCH  10  16
BRANCH  11  18
HETATM   18  C10 UNL     1      19.978  27.662  11.034  1.00  0.00     0.007 A 
HETATM   19  C11 UNL     1      20.741  26.716  10.457  1.00  0.00     0.102 A 
HETATM   20  N3  UNL     1      20.343  25.981   9.311  1.00  0.00    -0.366 N 
HETATM   21  C12 UNL     1      19.078  26.227   8.719  1.00  0.00     0.022 A 
ATOM     22  H3  UNL     1      20.966  25.278   8.913  1.00  0.00     0.165 HD
HETATM   23  C13 UNL     1      18.678  25.563   7.653  1.00  0.00     0.043 C 
HETATM   24  C14 UNL     1      18.265  27.243   9.354  1.00  0.00     0.029 A 
HETATM   25  C15 UNL     1      18.705  27.908  10.445  1.00  0.00     0.017 A 
ENDBRANCH  11  18
ENDBRANCH   8   9
ENDBRANCH   6   8
ENDBRANCH   5   6
BRANCH   5  26
HETATM   26  C18 UNL     1      20.125  33.196  15.120  1.00  0.00     0.063 A 
HETATM   27  C19 UNL     1      18.679  33.168  15.464  1.00  0.00     0.002 A 
HETATM   28  C24 UNL     1      19.600  34.291  15.942  1.00  0.00     0.011 A 
BRANCH  27  29
HETATM   29  C20 UNL     1      17.665  33.513  14.375  1.00  0.00     0.006 C 
BRANCH  29  30
HETATM   30  C21 UNL     1      16.260  33.305  14.899  1.00  0.00     0.000 C 
BRANCH  30  31
HETATM   31  C22 UNL     1      15.798  34.587  15.545  1.00  0.00    -0.005 C 
HETATM   32  C23 UNL     1      15.467  34.274  16.991  1.00  0.00     0.005 C 
ENDBRANCH  30  31
ENDBRANCH  29  30
ENDBRANCH  27  29
BRANCH  28  33
HETATM   33  C25 UNL     1      19.651  34.411  17.420  1.00  0.00     0.108 C 
BRANCH  33  34
HETATM   34  C26 UNL     1      20.509  35.604  17.778  1.00  0.00     0.217 C 
HETATM   35  O1  UNL     1      20.912  35.752  18.963  1.00  0.00    -0.274 OA
HETATM   36  N5  UNL     1      20.860  36.554  16.784  1.00  0.00    -0.360 N 
ATOM     37  H5  UNL     1      20.536  36.442  15.823  1.00  0.00     0.162 HD
BRANCH  36  38
HETATM   38  C27 UNL     1      21.696  37.699  17.160  1.00  0.00     0.142 C 
BRANCH  38  39
HETATM   39  C28 UNL     1      21.298  38.913  16.387  1.00  0.00     0.144 C 
BRANCH  39  40
HETATM   40  N6  UNL     1      19.953  39.319  16.678  1.00  0.00    -0.341 N 
HETATM   41  C29 UNL     1      19.623  40.600  17.120  1.00  0.00     0.327 C 
HETATM   42  O2  UNL     1      20.526  41.460  17.277  1.00  0.00    -0.247 OA
HETATM   43  N7  UNL     1      18.293  41.039  17.422  1.00  0.00    -0.235 N 
HETATM   44  C30 UNL     1      17.094  40.295  17.306  1.00  0.00     0.321 C 
HETATM   45  C32 UNL     1      17.917  42.368  17.905  1.00  0.00     0.113 C 
HETATM   46  O3  UNL     1      16.890  39.245  16.631  1.00  0.00    -0.262 OA
HETATM   47  C31 UNL     1      16.097  40.996  18.141  1.00  0.00     0.312 C 
HETATM   48  O4  UNL     1      14.900  40.631  18.291  1.00  0.00    -0.262 OA
HETATM   49  N8  UNL     1      16.754  42.116  18.709  1.00  0.00    -0.326 N 
ATOM     50  H8  UNL     1      16.457  42.642  19.531  1.00  0.00     0.165 HD
HETATM   51  C33 UNL     1      17.643  43.314  16.766  1.00  0.00     0.064 C 
HETATM   52  C34 UNL     1      18.980  42.955  18.819  1.00  0.00     0.064 C 
ATOM     53  H6  UNL     1      19.203  38.638  16.555  1.00  0.00     0.164 HD
ENDBRANCH  39  40
ENDBRANCH  38  39
ENDBRANCH  36  38
ENDBRANCH  33  34
ENDBRANCH  28  33
ENDBRANCH   5  26
TORSDOF 14
ENDMDL
MODEL 4
REMARK VINA RESULT: -9.300902837      1.181      1.983
REMARK  14 active torsions:
REMARK  status: ('A' for Active; 'I' for Inactive)
REMARK    1  A    between atoms: C3_5  and  N2_6 
REMARK    2  A    between atoms: C3_5  and  C18_26 
REMARK    3  A    between atoms: N2_6  and  C4_8 
REMARK    4  A    between atoms: C4_8  and  C5_9 
REMARK    5  A    between atoms: C6_10  and  C7_11 
REMARK    6  A    between atoms: C9_13  and  C10_14 
REMARK    7  A    between atoms: C19_27  and  C20_28 
REMARK    8  A    between atoms: C20_28  and  C21_29 
REMARK    9  A    between atoms: C21_29  and  C22_30 
REMARK   10  A    between atoms: C24_32  and  C25_33 
REMARK   11  A    between atoms: C25_33  and  C26_34 
REMARK       I    between atoms: C26_34  and  N5_36 
REMARK   12  A    between atoms: N5_36  and  C27_38 
REMARK   13  A    between atoms: C27_38  and  C28_39 
REMARK   14  A    between atoms: C28_39  and  N6_40 
REMARK       I    between atoms: N6_40  and  C29_42 
REMARK       I    between atoms: C29_42  and  N7_44 
ROOT
HETATM    1  C1  UNL     1      23.199  35.334  15.119  1.00  0.00     0.037 C 
HETATM    2  C2  UNL     1      22.979  34.143  15.219  1.00  0.00     0.000 C 
HETATM    3  N1  UNL     1      22.704  32.786  15.336  1.00  0.00    -0.305 N 
ATOM      4  H1  UNL     1      23.468  32.147  15.558  1.00  0.00     0.177 HD
HETATM    5  C3  UNL     1      21.537  32.311  15.179  1.00  0.00     0.093 C 
ENDROOT
BRANCH   5   6
HETATM    6  N2  UNL     1      21.336  30.910  15.311  1.00  0.00    -0.354 N 
ATOM      7  H2  UNL     1      20.661  30.609  16.013  1.00  0.00     0.166 HD
BRANCH   6   8
HETATM    8  C4  UNL     1      21.968  29.904  14.577  1.00  0.00     0.103 C 
BRANCH   8   9
HETATM    9  C5  UNL     1      21.580  29.167  13.573  1.00  0.00     0.014 A 
HETATM   10  C6  UNL     1      20.360  28.661  13.148  1.00  0.00    -0.017 A 
HETATM   11  C9  UNL     1      20.480  27.944  11.980  1.00  0.00     0.051 A 
HETATM   12  N4  UNL     1      21.813  28.020  11.688  1.00  0.00    -0.355 N 
HETATM   13  C16 UNL     1      22.479  28.728  12.602  1.00  0.00     0.035 A 
ATOM     14  H4  UNL     1      22.245  27.588  10.872  1.00  0.00     0.166 HD
HETATM   15  C17 UNL     1      23.804  28.937  12.527  1.00  0.00     0.044 C 
BRANCH  10  16
HETATM   16  C7  UNL     1      19.085  28.929  13.897  1.00  0.00     0.037 C 
HETATM   17  C8  UNL     1      18.135  29.813  13.158  1.00  0.00     0.010 C 
ENDBRANCH  10  16
BRANCH  11  18
HETATM   18  C10 UNL     1      19.514  27.160  11.209  1.00  0.00     0.007 A 
HETATM   19  C11 UNL     1      19.197  27.649   9.996  1.00  0.00     0.102 A 
HETATM   20  N3  UNL     1      18.285  27.019   9.111  1.00  0.00    -0.366 N 
HETATM   21  C12 UNL     1      17.660  25.803   9.490  1.00  0.00     0.022 A 
ATOM     22  H3  UNL     1      18.079  27.439   8.205  1.00  0.00     0.165 HD
HETATM   23  C13 UNL     1      16.807  25.191   8.694  1.00  0.00     0.043 C 
HETATM   24  C14 UNL     1      18.015  25.285  10.795  1.00  0.00     0.029 A 
HETATM   25  C15 UNL     1      18.892  25.937  11.590  1.00  0.00     0.017 A 
ENDBRANCH  11  18
ENDBRANCH   8   9
ENDBRANCH   6   8
ENDBRANCH   5   6
BRANCH   5  26
HETATM   26  C18 UNL     1      20.411  33.194  14.847  1.00  0.00     0.063 A 
HETATM   27  C19 UNL     1      19.031  32.830  15.263  1.00  0.00     0.002 A 
HETATM   28  C24 UNL     1      19.756  34.043  15.846  1.00  0.00     0.011 A 
BRANCH  27  29
HETATM   29  C20 UNL     1      17.882  33.102  14.293  1.00  0.00     0.006 C 
BRANCH  29  30
HETATM   30  C21 UNL     1      16.562  32.770  14.956  1.00  0.00     0.000 C 
BRANCH  30  31
HETATM   31  C22 UNL     1      15.599  33.899  14.692  1.00  0.00    -0.005 C 
HETATM   32  C23 UNL     1      16.403  35.067  14.158  1.00  0.00     0.005 C 
ENDBRANCH  30  31
ENDBRANCH  29  30
ENDBRANCH  27  29
BRANCH  28  33
HETATM   33  C25 UNL     1      19.906  33.978  17.321  1.00  0.00     0.108 C 
BRANCH  33  34
HETATM   34  C26 UNL     1      19.017  35.030  17.945  1.00  0.00     0.217 C 
HETATM   35  O1  UNL     1      19.452  35.735  18.894  1.00  0.00    -0.274 OA
HETATM   36  N5  UNL     1      17.696  35.225  17.462  1.00  0.00    -0.360 N 
ATOM     37  H5  UNL     1      17.336  34.656  16.695  1.00  0.00     0.162 HD
BRANCH  36  38
HETATM   38  C27 UNL     1      16.858  36.254  18.084  1.00  0.00     0.142 C 
BRANCH  38  39
HETATM   39  C28 UNL     1      16.476  37.294  17.082  1.00  0.00     0.144 C 
BRANCH  39  40
HETATM   40  N6  UNL     1      16.237  38.568  17.694  1.00  0.00    -0.341 N 
HETATM   41  C29 UNL     1      16.971  39.713  17.380  1.00  0.00     0.327 C 
HETATM   42  O2  UNL     1      17.887  39.654  16.523  1.00  0.00    -0.247 OA
HETATM   43  N7  UNL     1      16.762  41.002  17.973  1.00  0.00    -0.235 N 
HETATM   44  C30 UNL     1      15.786  41.358  18.935  1.00  0.00     0.321 C 
HETATM   45  C32 UNL     1      17.525  42.214  17.679  1.00  0.00     0.113 C 
HETATM   46  O3  UNL     1      14.720  40.744  19.229  1.00  0.00    -0.262 OA
HETATM   47  C31 UNL     1      16.258  42.618  19.544  1.00  0.00     0.312 C 
HETATM   48  O4  UNL     1      15.650  43.250  20.450  1.00  0.00    -0.262 OA
HETATM   49  N8  UNL     1      17.485  42.943  18.916  1.00  0.00    -0.326 N 
ATOM     50  H8  UNL     1      18.203  43.573  19.274  1.00  0.00     0.165 HD
HETATM   51  C33 UNL     1      16.925  42.982  16.532  1.00  0.00     0.064 C 
HETATM   52  C34 UNL     1      18.983  41.903  17.384  1.00  0.00     0.064 C 
ATOM     53  H6  UNL     1      15.496  38.642  18.391  1.00  0.00     0.164 HD
ENDBRANCH  39  40
ENDBRANCH  38  39
ENDBRANCH  36  38
ENDBRANCH  33  34
ENDBRANCH  28  33
ENDBRANCH   5  26
TORSDOF 14
ENDMDL
MODEL 5
REMARK VINA RESULT: -9.271811024      1.801      2.759
REMARK  14 active torsions:
REMARK  status: ('A' for Active; 'I' for Inactive)
REMARK    1  A    between atoms: C3_5  and  N2_6 
REMARK    2  A    between atoms: C3_5  and  C18_26 
REMARK    3  A    between atoms: N2_6  and  C4_8 
REMARK    4  A    between atoms: C4_8  and  C5_9 
REMARK    5  A    between atoms: C6_10  and  C7_11 
REMARK    6  A    between atoms: C9_13  and  C10_14 
REMARK    7  A    between atoms: C19_27  and  C20_28 
REMARK    8  A    between atoms: C20_28  and  C21_29 
REMARK    9  A    between atoms: C21_29  and  C22_30 
REMARK   10  A    between atoms: C24_32  and  C25_33 
REMARK   11  A    between atoms: C25_33  and  C26_34 
REMARK       I    between atoms: C26_34  and  N5_36 
REMARK   12  A    between atoms: N5_36  and  C27_38 
REMARK   13  A    between atoms: C27_38  and  C28_39 
REMARK   14  A    between atoms: C28_39  and  N6_40 
REMARK       I    between atoms: N6_40  and  C29_42 
REMARK       I    between atoms: C29_42  and  N7_44 
ROOT
HETATM    1  C1  UNL     1      22.879  35.828  14.982  1.00  0.00     0.037 C 
HETATM    2  C2  UNL     1      22.867  34.621  15.123  1.00  0.00     0.000 C 
HETATM    3  N1  UNL     1      22.829  33.242  15.288  1.00  0.00    -0.305 N 
ATOM      4  H1  UNL     1      23.692  32.751  15.522  1.00  0.00     0.177 HD
HETATM    5  C3  UNL     1      21.760  32.570  15.158  1.00  0.00     0.093 C 
ENDROOT
BRANCH   5   6
HETATM    6  N2  UNL     1      21.802  31.160  15.338  1.00  0.00    -0.354 N 
ATOM      7  H2  UNL     1      21.120  30.760  15.983  1.00  0.00     0.166 HD
BRANCH   6   8
HETATM    8  C4  UNL     1      22.680  30.267  14.722  1.00  0.00     0.103 C 
BRANCH   8   9
HETATM    9  C5  UNL     1      22.530  29.408  13.751  1.00  0.00     0.014 A 
HETATM   10  C6  UNL     1      23.395  28.742  12.895  1.00  0.00    -0.017 A 
HETATM   11  C9  UNL     1      22.725  27.898  12.041  1.00  0.00     0.051 A 
HETATM   12  N4  UNL     1      21.413  28.057  12.391  1.00  0.00    -0.355 N 
HETATM   13  C16 UNL     1      21.271  28.934  13.387  1.00  0.00     0.035 A 
ATOM     14  H4  UNL     1      20.638  27.565  11.946  1.00  0.00     0.166 HD
HETATM   15  C17 UNL     1      20.071  29.254  13.900  1.00  0.00     0.044 C 
BRANCH  10  16
HETATM   16  C7  UNL     1      24.884  28.932  12.966  1.00  0.00     0.037 C 
HETATM   17  C8  UNL     1      25.425  29.802  11.879  1.00  0.00     0.010 C 
ENDBRANCH  10  16
BRANCH  11  18
HETATM   18  C10 UNL     1      23.181  27.070  10.923  1.00  0.00     0.007 A 
HETATM   19  C11 UNL     1      22.341  26.091  10.538  1.00  0.00     0.102 A 
HETATM   20  N3  UNL     1      22.618  25.199   9.470  1.00  0.00    -0.366 N 
HETATM   21  C12 UNL     1      23.830  25.319   8.745  1.00  0.00     0.022 A 
ATOM     22  H3  UNL     1      21.945  24.472   9.225  1.00  0.00     0.165 HD
HETATM   23  C13 UNL     1      24.119  24.507   7.749  1.00  0.00     0.043 C 
HETATM   24  C14 UNL     1      24.721  26.380   9.167  1.00  0.00     0.029 A 
HETATM   25  C15 UNL     1      24.398  27.196  10.194  1.00  0.00     0.017 A 
ENDBRANCH  11  18
ENDBRANCH   8   9
ENDBRANCH   6   8
ENDBRANCH   5   6
BRANCH   5  26
HETATM   26  C18 UNL     1      20.498  33.235  14.808  1.00  0.00     0.063 A 
HETATM   27  C19 UNL     1      19.205  32.686  15.296  1.00  0.00     0.002 A 
HETATM   28  C24 UNL     1      19.737  34.037  15.772  1.00  0.00     0.011 A 
BRANCH  27  29
HETATM   29  C20 UNL     1      18.004  32.701  14.351  1.00  0.00     0.006 C 
BRANCH  29  30
HETATM   30  C21 UNL     1      16.758  32.277  15.099  1.00  0.00     0.000 C 
BRANCH  30  31
HETATM   31  C22 UNL     1      15.680  33.301  14.848  1.00  0.00    -0.005 C 
HETATM   32  C23 UNL     1      16.345  34.521  14.244  1.00  0.00     0.005 C 
ENDBRANCH  30  31
ENDBRANCH  29  30
ENDBRANCH  27  29
BRANCH  28  33
HETATM   33  C25 UNL     1      19.931  34.100  17.242  1.00  0.00     0.108 C 
BRANCH  33  34
HETATM   34  C26 UNL     1      18.926  35.070  17.822  1.00  0.00     0.217 C 
HETATM   35  O1  UNL     1      19.315  35.996  18.583  1.00  0.00    -0.274 OA
HETATM   36  N5  UNL     1      17.547  34.939  17.509  1.00  0.00    -0.360 N 
ATOM     37  H5  UNL     1      17.224  34.191  16.895  1.00  0.00     0.162 HD
BRANCH  36  38
HETATM   38  C27 UNL     1      16.596  35.896  18.082  1.00  0.00     0.142 C 
BRANCH  38  39
HETATM   39  C28 UNL     1      16.293  36.983  17.104  1.00  0.00     0.144 C 
BRANCH  39  40
HETATM   40  N6  UNL     1      17.353  37.945  17.026  1.00  0.00    -0.341 N 
HETATM   41  C29 UNL     1      17.157  39.313  17.225  1.00  0.00     0.327 C 
HETATM   42  O2  UNL     1      16.009  39.747  17.491  1.00  0.00    -0.247 OA
HETATM   43  N7  UNL     1      18.191  40.303  17.152  1.00  0.00    -0.235 N 
HETATM   44  C30 UNL     1      19.568  40.091  16.901  1.00  0.00     0.321 C 
HETATM   45  C32 UNL     1      18.013  41.743  17.337  1.00  0.00     0.113 C 
HETATM   46  O3  UNL     1      20.225  39.016  17.011  1.00  0.00    -0.262 OA
HETATM   47  C31 UNL     1      20.110  41.399  16.480  1.00  0.00     0.312 C 
HETATM   48  O4  UNL     1      21.313  41.612  16.169  1.00  0.00    -0.262 OA
HETATM   49  N8  UNL     1      19.030  42.316  16.500  1.00  0.00    -0.326 N 
ATOM     50  H8  UNL     1      18.983  43.211  16.014  1.00  0.00     0.165 HD
HETATM   51  C33 UNL     1      18.160  42.137  18.783  1.00  0.00     0.064 C 
HETATM   52  C34 UNL     1      16.670  42.217  16.807  1.00  0.00     0.064 C 
ATOM     53  H6  UNL     1      18.295  37.615  16.814  1.00  0.00     0.164 HD
ENDBRANCH  39  40
ENDBRANCH  38  39
ENDBRANCH  36  38
ENDBRANCH  33  34
ENDBRANCH  28  33
ENDBRANCH   5  26
TORSDOF 14
ENDMDL
