MODEL 1
REMARK VINA RESULT: -7.241178262      0.000      0.000
REMARK  6 active torsions:
REMARK  status: ('A' for Active; 'I' for Inactive)
REMARK    1  A    between atoms: C5_6  and  C6_7 
REMARK    2  A    between atoms: C6_7  and  C7_8 
REMARK    3  A    between atoms: C7_8  and  N1_9 
REMARK    4  A    between atoms: C8_12  and  N3_13 
REMARK    5  A    between atoms: N3_13  and  C9_15 
REMARK    6  A    between atoms: C12_18  and  N4_19 
ROOT
HETATM    1  N1  UNL     1      26.527   1.109   3.966  1.00  0.00    -0.252 N 
HETATM    2  N2  UNL     1      27.445   0.762   4.849  1.00  0.00    -0.128 N 
ATOM      3  H2  UNL     1      27.285   0.690   5.854  1.00  0.00     0.206 HD
HETATM    4  C8  UNL     1      28.629   0.513   4.236  1.00  0.00     0.695 A 
HETATM    5  N5  UNL     1      28.443   0.711   2.938  1.00  0.00    -0.163 N 
ATOM      6  H5  UNL     1      29.145   0.606   2.205  1.00  0.00     0.187 HD
HETATM    7  C14 UNL     1      27.178   1.069   2.769  1.00  0.00     0.211 A 
HETATM    8 CL1  UNL     1      26.440   1.444   1.218  1.00  0.00    -0.043 Cl
ENDROOT
BRANCH   1   9
HETATM    9  C7  UNL     1      25.137   1.454   4.194  1.00  0.00     0.157 C 
BRANCH   9  10
HETATM   10  C6  UNL     1      25.066   2.588   5.188  1.00  0.00     0.067 C 
BRANCH  10  11
HETATM   11  C5  UNL     1      25.092   3.911   4.564  1.00  0.00     0.024 A 
HETATM   12  C4  UNL     1      23.930   4.594   4.253  1.00  0.00     0.126 A 
HETATM   13  C3  UNL     1      23.998   5.858   3.656  1.00  0.00     0.052 A 
HETATM   14  F1  UNL     1      22.708   4.062   4.515  1.00  0.00    -0.205 F 
HETATM   15  C2  UNL     1      25.213   6.440   3.369  1.00  0.00    -0.017 A 
HETATM   16  C1  UNL     1      25.297   7.792   2.730  1.00  0.00     0.052 C 
HETATM   17  C16 UNL     1      26.369   5.756   3.681  1.00  0.00     0.161 A 
HETATM   18  C15 UNL     1      26.295   4.515   4.267  1.00  0.00     0.164 A 
HETATM   19  F3  UNL     1      27.584   6.304   3.409  1.00  0.00    -0.202 F 
HETATM   20  F2  UNL     1      27.430   3.841   4.575  1.00  0.00    -0.202 F 
ENDBRANCH  10  11
ENDBRANCH   9  10
ENDBRANCH   1   9
BRANCH   4  21
HETATM   21  N3  UNL     1      29.736   0.154   4.790  1.00  0.00    -0.220 N 
ATOM     22  H3  UNL     1      30.214  -0.688   4.469  1.00  0.00     0.178 HD
BRANCH  21  23
HETATM   23  C9  UNL     1      30.306   0.938   5.865  1.00  0.00     0.101 C 
HETATM   24  C10 UNL     1      31.063   2.142   5.351  1.00  0.00     0.027 C 
HETATM   25  C11 UNL     1      32.295   2.227   6.262  1.00  0.00     0.035 C 
HETATM   26  C12 UNL     1      32.601   0.755   6.450  1.00  0.00     0.185 C 
HETATM   27  C13 UNL     1      31.247   0.172   6.738  1.00  0.00     0.058 C 
BRANCH  26  28
HETATM   28  N4  UNL     1      33.535   0.542   7.538  1.00  0.00    -0.075 N 
ATOM     29  H43 UNL     1      34.275   1.244   7.538  1.00  0.00     0.274 HD
ATOM     30  H42 UNL     1      33.113   0.756   8.441  1.00  0.00     0.274 HD
ATOM     31  H41 UNL     1      33.919  -0.404   7.522  1.00  0.00     0.274 HD
ENDBRANCH  26  28
ENDBRANCH  21  23
ENDBRANCH   4  21
TORSDOF 6
ENDMDL
MODEL 2
REMARK VINA RESULT: -6.679235421      1.447      2.547
REMARK  6 active torsions:
REMARK  status: ('A' for Active; 'I' for Inactive)
REMARK    1  A    between atoms: C5_6  and  C6_7 
REMARK    2  A    between atoms: C6_7  and  C7_8 
REMARK    3  A    between atoms: C7_8  and  N1_9 
REMARK    4  A    between atoms: C8_12  and  N3_13 
REMARK    5  A    between atoms: N3_13  and  C9_15 
REMARK    6  A    between atoms: C12_18  and  N4_19 
ROOT
HETATM    1  N1  UNL     1      28.264   0.793   3.420  1.00  0.00    -0.252 N 
HETATM    2  N2  UNL     1      28.358   0.996   4.722  1.00  0.00    -0.128 N 
ATOM      3  H2  UNL     1      27.776   1.646   5.251  1.00  0.00     0.206 HD
HETATM    4  C8  UNL     1      29.333   0.222   5.259  1.00  0.00     0.695 A 
HETATM    5  N5  UNL     1      29.860  -0.483   4.266  1.00  0.00    -0.163 N 
ATOM      6  H5  UNL     1      30.619  -1.160   4.342  1.00  0.00     0.187 HD
HETATM    7  C14 UNL     1      29.219  -0.143   3.156  1.00  0.00     0.211 A 
HETATM    8 CL1  UNL     1      29.554  -0.804   1.561  1.00  0.00    -0.043 Cl
ENDROOT
BRANCH   1   9
HETATM    9  C7  UNL     1      27.357   1.410   2.472  1.00  0.00     0.157 C 
BRANCH   9  10
HETATM   10  C6  UNL     1      26.006   1.585   3.122  1.00  0.00     0.067 C 
BRANCH  10  11
HETATM   11  C5  UNL     1      25.669   2.982   3.394  1.00  0.00     0.024 A 
HETATM   12  C4  UNL     1      26.603   3.995   3.271  1.00  0.00     0.126 A 
HETATM   13  C3  UNL     1      26.241   5.320   3.541  1.00  0.00     0.052 A 
HETATM   14  F1  UNL     1      27.880   3.734   2.889  1.00  0.00    -0.205 F 
HETATM   15  C2  UNL     1      24.959   5.637   3.933  1.00  0.00    -0.017 A 
HETATM   16  C1  UNL     1      24.561   7.051   4.224  1.00  0.00     0.052 C 
HETATM   17  C16 UNL     1      24.031   4.625   4.054  1.00  0.00     0.161 A 
HETATM   18  C15 UNL     1      24.393   3.325   3.787  1.00  0.00     0.164 A 
HETATM   19  F3  UNL     1      22.757   4.905   4.440  1.00  0.00    -0.202 F 
HETATM   20  F2  UNL     1      23.483   2.329   3.906  1.00  0.00    -0.202 F 
ENDBRANCH  10  11
ENDBRANCH   9  10
ENDBRANCH   1   9
BRANCH   4  21
HETATM   21  N3  UNL     1      29.696   0.165   6.494  1.00  0.00    -0.220 N 
ATOM     22  H3  UNL     1      29.268  -0.519   7.118  1.00  0.00     0.178 HD
BRANCH  21  23
HETATM   23  C9  UNL     1      30.708   1.067   7.003  1.00  0.00     0.101 C 
HETATM   24  C10 UNL     1      30.807   2.332   6.181  1.00  0.00     0.027 C 
HETATM   25  C11 UNL     1      32.312   2.619   6.114  1.00  0.00     0.035 C 
HETATM   26  C12 UNL     1      32.857   1.210   6.002  1.00  0.00     0.185 C 
HETATM   27  C13 UNL     1      32.078   0.471   7.053  1.00  0.00     0.058 C 
BRANCH  26  28
HETATM   28  N4  UNL     1      34.286   1.171   6.247  1.00  0.00    -0.075 N 
ATOM     29  H43 UNL     1      34.801   1.675   5.526  1.00  0.00     0.274 HD
ATOM     30  H42 UNL     1      34.542   1.740   7.053  1.00  0.00     0.274 HD
ATOM     31  H41 UNL     1      34.623   0.213   6.346  1.00  0.00     0.274 HD
ENDBRANCH  26  28
ENDBRANCH  21  23
ENDBRANCH   4  21
TORSDOF 6
ENDMDL
MODEL 3
REMARK VINA RESULT: -6.359541896      2.706      6.511
REMARK  6 active torsions:
REMARK  status: ('A' for Active; 'I' for Inactive)
REMARK    1  A    between atoms: C5_6  and  C6_7 
REMARK    2  A    between atoms: C6_7  and  C7_8 
REMARK    3  A    between atoms: C7_8  and  N1_9 
REMARK    4  A    between atoms: C8_12  and  N3_13 
REMARK    5  A    between atoms: N3_13  and  C9_15 
REMARK    6  A    between atoms: C12_18  and  N4_19 
ROOT
HETATM    1  N1  UNL     1      25.664   1.600   3.852  1.00  0.00    -0.252 N 
HETATM    2  N2  UNL     1      25.463   2.636   4.646  1.00  0.00    -0.128 N 
ATOM      3  H2  UNL     1      26.023   2.852   5.471  1.00  0.00     0.206 HD
HETATM    4  C8  UNL     1      24.411   3.374   4.213  1.00  0.00     0.695 A 
HETATM    5  N5  UNL     1      23.945   2.782   3.121  1.00  0.00    -0.163 N 
ATOM      6  H5  UNL     1      23.154   3.093   2.557  1.00  0.00     0.187 HD
HETATM    7  C14 UNL     1      24.696   1.713   2.899  1.00  0.00     0.211 A 
HETATM    8 CL1  UNL     1      24.477   0.593   1.562  1.00  0.00    -0.043 Cl
ENDROOT
BRANCH   1   9
HETATM    9  C7  UNL     1      26.678   0.568   3.951  1.00  0.00     0.157 C 
BRANCH   9  10
HETATM   10  C6  UNL     1      27.932   1.038   3.255  1.00  0.00     0.067 C 
BRANCH  10  11
HETATM   11  C5  UNL     1      29.115   1.022   4.117  1.00  0.00     0.024 A 
HETATM   12  C4  UNL     1      29.918  -0.098   4.233  1.00  0.00     0.126 A 
HETATM   13  C3  UNL     1      31.041  -0.072   5.068  1.00  0.00     0.052 A 
HETATM   14  F1  UNL     1      29.642  -1.237   3.548  1.00  0.00    -0.205 F 
HETATM   15  C2  UNL     1      31.363   1.059   5.784  1.00  0.00    -0.017 A 
HETATM   16  C1  UNL     1      32.563   1.098   6.681  1.00  0.00     0.052 C 
HETATM   17  C16 UNL     1      30.561   2.174   5.666  1.00  0.00     0.161 A 
HETATM   18  C15 UNL     1      29.459   2.142   4.843  1.00  0.00     0.164 A 
HETATM   19  F3  UNL     1      30.853   3.306   6.360  1.00  0.00    -0.202 F 
HETATM   20  F2  UNL     1      28.669   3.236   4.726  1.00  0.00    -0.202 F 
ENDBRANCH  10  11
ENDBRANCH   9  10
ENDBRANCH   1   9
BRANCH   4  21
HETATM   21  N3  UNL     1      23.937   4.448   4.746  1.00  0.00    -0.220 N 
ATOM     22  H3  UNL     1      23.039   4.421   5.228  1.00  0.00     0.178 HD
BRANCH  21  23
HETATM   23  C9  UNL     1      24.671   5.693   4.662  1.00  0.00     0.101 C 
HETATM   24  C10 UNL     1      24.407   6.423   3.364  1.00  0.00     0.027 C 
HETATM   25  C11 UNL     1      25.775   6.994   2.971  1.00  0.00     0.035 C 
HETATM   26  C12 UNL     1      26.683   5.865   3.413  1.00  0.00     0.185 C 
HETATM   27  C13 UNL     1      26.152   5.530   4.777  1.00  0.00     0.058 C 
BRANCH  26  28
HETATM   28  N4  UNL     1      28.071   6.282   3.449  1.00  0.00    -0.075 N 
ATOM     29  H43 UNL     1      28.374   6.487   4.401  1.00  0.00     0.274 HD
ATOM     30  H42 UNL     1      28.700   5.505   3.246  1.00  0.00     0.274 HD
ATOM     31  H41 UNL     1      28.242   7.071   2.825  1.00  0.00     0.274 HD
ENDBRANCH  26  28
ENDBRANCH  21  23
ENDBRANCH   4  21
TORSDOF 6
ENDMDL
MODEL 4
REMARK VINA RESULT: -6.342231859      2.691      6.535
REMARK  6 active torsions:
REMARK  status: ('A' for Active; 'I' for Inactive)
REMARK    1  A    between atoms: C5_6  and  C6_7 
REMARK    2  A    between atoms: C6_7  and  C7_8 
REMARK    3  A    between atoms: C7_8  and  N1_9 
REMARK    4  A    between atoms: C8_12  and  N3_13 
REMARK    5  A    between atoms: N3_13  and  C9_15 
REMARK    6  A    between atoms: C12_18  and  N4_19 
ROOT
HETATM    1  N1  UNL     1      25.561   1.684   4.000  1.00  0.00    -0.252 N 
HETATM    2  N2  UNL     1      25.294   2.734   4.755  1.00  0.00    -0.128 N 
ATOM      3  H2  UNL     1      25.770   2.957   5.629  1.00  0.00     0.206 HD
HETATM    4  C8  UNL     1      24.301   3.477   4.206  1.00  0.00     0.695 A 
HETATM    5  N5  UNL     1      23.940   2.873   3.081  1.00  0.00    -0.163 N 
ATOM      6  H5  UNL     1      23.214   3.184   2.435  1.00  0.00     0.187 HD
HETATM    7  C14 UNL     1      24.696   1.793   2.953  1.00  0.00     0.211 A 
HETATM    8 CL1  UNL     1      24.600   0.654   1.616  1.00  0.00    -0.043 Cl
ENDROOT
BRANCH   1   9
HETATM    9  C7  UNL     1      26.546   0.642   4.217  1.00  0.00     0.157 C 
BRANCH   9  10
HETATM   10  C6  UNL     1      27.783   0.955   3.408  1.00  0.00     0.067 C 
BRANCH  10  11
HETATM   11  C5  UNL     1      28.977   1.158   4.228  1.00  0.00     0.024 A 
HETATM   12  C4  UNL     1      29.231   2.362   4.861  1.00  0.00     0.126 A 
HETATM   13  C3  UNL     1      30.386   2.516   5.638  1.00  0.00     0.052 A 
HETATM   14  F1  UNL     1      28.378   3.412   4.747  1.00  0.00    -0.205 F 
HETATM   15  C2  UNL     1      31.283   1.481   5.783  1.00  0.00    -0.017 A 
HETATM   16  C1  UNL     1      32.521   1.635   6.612  1.00  0.00     0.052 C 
HETATM   17  C16 UNL     1      31.026   0.283   5.152  1.00  0.00     0.161 A 
HETATM   18  C15 UNL     1      29.889   0.138   4.391  1.00  0.00     0.164 A 
HETATM   19  F3  UNL     1      31.892  -0.758   5.276  1.00  0.00    -0.202 F 
HETATM   20  F2  UNL     1      29.635  -1.039   3.769  1.00  0.00    -0.202 F 
ENDBRANCH  10  11
ENDBRANCH   9  10
ENDBRANCH   1   9
BRANCH   4  21
HETATM   21  N3  UNL     1      23.788   4.565   4.672  1.00  0.00    -0.220 N 
ATOM     22  H3  UNL     1      22.867   4.545   5.109  1.00  0.00     0.178 HD
BRANCH  21  23
HETATM   23  C9  UNL     1      24.512   5.815   4.579  1.00  0.00     0.101 C 
HETATM   24  C10 UNL     1      24.334   6.476   3.231  1.00  0.00     0.027 C 
HETATM   25  C11 UNL     1      25.721   7.047   2.908  1.00  0.00     0.035 C 
HETATM   26  C12 UNL     1      26.607   5.954   3.469  1.00  0.00     0.185 C 
HETATM   27  C13 UNL     1      25.983   5.679   4.807  1.00  0.00     0.058 C 
BRANCH  26  28
HETATM   28  N4  UNL     1      27.985   6.392   3.584  1.00  0.00    -0.075 N 
ATOM     29  H43 UNL     1      28.602   5.840   2.989  1.00  0.00     0.274 HD
ATOM     30  H42 UNL     1      28.123   7.305   3.151  1.00  0.00     0.274 HD
ATOM     31  H41 UNL     1      28.299   6.389   4.554  1.00  0.00     0.274 HD
ENDBRANCH  26  28
ENDBRANCH  21  23
ENDBRANCH   4  21
TORSDOF 6
ENDMDL
MODEL 5
REMARK VINA RESULT: -6.326336480      1.371      1.692
REMARK  6 active torsions:
REMARK  status: ('A' for Active; 'I' for Inactive)
REMARK    1  A    between atoms: C5_6  and  C6_7 
REMARK    2  A    between atoms: C6_7  and  C7_8 
REMARK    3  A    between atoms: C7_8  and  N1_9 
REMARK    4  A    between atoms: C8_12  and  N3_13 
REMARK    5  A    between atoms: N3_13  and  C9_15 
REMARK    6  A    between atoms: C12_18  and  N4_19 
ROOT
HETATM    1  N1  UNL     1      28.213   0.832   3.471  1.00  0.00    -0.252 N 
HETATM    2  N2  UNL     1      28.326   1.024   4.772  1.00  0.00    -0.128 N 
ATOM      3  H2  UNL     1      27.754   1.671   5.315  1.00  0.00     0.206 HD
HETATM    4  C8  UNL     1      29.307   0.242   5.288  1.00  0.00     0.695 A 
HETATM    5  N5  UNL     1      29.818  -0.455   4.281  1.00  0.00    -0.163 N 
ATOM      6  H5  UNL     1      30.575  -1.135   4.341  1.00  0.00     0.187 HD
HETATM    7  C14 UNL     1      29.162  -0.103   3.184  1.00  0.00     0.211 A 
HETATM    8 CL1  UNL     1      29.473  -0.750   1.579  1.00  0.00    -0.043 Cl
ENDROOT
BRANCH   1   9
HETATM    9  C7  UNL     1      27.295   1.460   2.541  1.00  0.00     0.157 C 
BRANCH   9  10
HETATM   10  C6  UNL     1      25.941   1.593   3.196  1.00  0.00     0.067 C 
BRANCH  10  11
HETATM   11  C5  UNL     1      25.561   2.979   3.469  1.00  0.00     0.024 A 
HETATM   12  C4  UNL     1      24.296   3.314   3.919  1.00  0.00     0.126 A 
HETATM   13  C3  UNL     1      23.972   4.652   4.168  1.00  0.00     0.052 A 
HETATM   14  F1  UNL     1      23.348   2.364   4.126  1.00  0.00    -0.205 F 
HETATM   15  C2  UNL     1      24.899   5.652   3.972  1.00  0.00    -0.017 A 
HETATM   16  C1  UNL     1      24.563   7.088   4.237  1.00  0.00     0.052 C 
HETATM   17  C16 UNL     1      26.158   5.315   3.525  1.00  0.00     0.161 A 
HETATM   18  C15 UNL     1      26.470   3.998   3.281  1.00  0.00     0.164 A 
HETATM   19  F3  UNL     1      27.095   6.279   3.321  1.00  0.00    -0.202 F 
HETATM   20  F2  UNL     1      27.707   3.664   2.841  1.00  0.00    -0.202 F 
ENDBRANCH  10  11
ENDBRANCH   9  10
ENDBRANCH   1   9
BRANCH   4  21
HETATM   21  N3  UNL     1      29.687   0.173   6.518  1.00  0.00    -0.220 N 
ATOM     22  H3  UNL     1      29.268  -0.517   7.141  1.00  0.00     0.178 HD
BRANCH  21  23
HETATM   23  C9  UNL     1      30.707   1.069   7.021  1.00  0.00     0.101 C 
HETATM   24  C10 UNL     1      30.800   2.339   6.205  1.00  0.00     0.027 C 
HETATM   25  C11 UNL     1      32.306   2.622   6.124  1.00  0.00     0.035 C 
HETATM   26  C12 UNL     1      32.845   1.212   5.999  1.00  0.00     0.185 C 
HETATM   27  C13 UNL     1      32.075   0.470   7.053  1.00  0.00     0.058 C 
BRANCH  26  28
HETATM   28  N4  UNL     1      34.276   1.168   6.229  1.00  0.00    -0.075 N 
ATOM     29  H43 UNL     1      34.664   2.104   6.350  1.00  0.00     0.274 HD
ATOM     30  H42 UNL     1      34.495   0.786   7.148  1.00  0.00     0.274 HD
ATOM     31  H41 UNL     1      34.759   0.658   5.489  1.00  0.00     0.274 HD
ENDBRANCH  26  28
ENDBRANCH  21  23
ENDBRANCH   4  21
TORSDOF 6
ENDMDL
