MODEL 1
REMARK VINA RESULT: -7.288513074      0.000      0.000
REMARK  6 active torsions:
REMARK  status: ('A' for Active; 'I' for Inactive)
REMARK    1  A    between atoms: C2_2  and  N1_3 
REMARK    2  A    between atoms: N1_3  and  C3_5 
REMARK    3  A    between atoms: C4_8  and  N3_9 
REMARK    4  A    between atoms: N3_9  and  C5_11 
REMARK    5  A    between atoms: C8_14  and  O1_15 
REMARK    6  A    between atoms: O1_15  and  C9_16 
ROOT
HETATM    1  C3  UNL     1      29.981   0.016   4.292  1.00  0.00     0.125 A 
HETATM    2  N2  UNL     1      29.140   0.693   3.493  1.00  0.00    -0.176 N 
ATOM      3  H2  UNL     1      28.564   0.153   2.846  1.00  0.00     0.186 HD
HETATM    4  C4  UNL     1      29.003   2.030   3.486  1.00  0.00     0.684 A 
HETATM    5  N4  UNL     1      29.773   2.726   4.349  1.00  0.00    -0.193 N 
ATOM      6  H4  UNL     1      29.694   3.743   4.368  1.00  0.00     0.184 HD
HETATM    7  C12 UNL     1      30.639   2.129   5.183  1.00  0.00     0.060 A 
HETATM    8  C13 UNL     1      30.762   0.755   5.173  1.00  0.00     0.013 A 
HETATM    9  C14 UNL     1      31.701   0.059   6.071  1.00  0.00     0.071 C 
HETATM   10  C15 UNL     1      32.699   0.970   6.710  1.00  0.00     0.173 C 
HETATM   11  O2  UNL     1      32.736   2.241   6.149  1.00  0.00    -0.385 OA
HETATM   12  C16 UNL     1      31.496   2.868   6.139  1.00  0.00     0.225 C 
ENDROOT
BRANCH   4  13
HETATM   13  N3  UNL     1      28.161   2.614   2.676  1.00  0.00    -0.188 N 
ATOM     14  H3  UNL     1      28.113   2.367   1.687  1.00  0.00     0.184 HD
BRANCH  13  15
HETATM   15  C5  UNL     1      27.317   3.608   3.236  1.00  0.00     0.091 A 
HETATM   16  C6  UNL     1      27.651   4.925   3.008  1.00  0.00     0.036 A 
HETATM   17  C7  UNL     1      26.844   5.939   3.543  1.00  0.00     0.042 A 
HETATM   18  C8  UNL     1      25.734   5.649   4.285  1.00  0.00     0.116 A 
HETATM   19  C10 UNL     1      25.421   4.319   4.499  1.00  0.00     0.190 A 
HETATM   20  F3  UNL     1      24.317   4.052   5.238  1.00  0.00    -0.200 F 
HETATM   21  C11 UNL     1      26.211   3.303   3.976  1.00  0.00     0.184 A 
HETATM   22  F4  UNL     1      25.870   2.025   4.209  1.00  0.00    -0.200 F 
BRANCH  18  23
HETATM   23  O1  UNL     1      24.941   6.627   4.811  1.00  0.00    -0.287 OA
BRANCH  23  24
HETATM   24  C9  UNL     1      24.014   7.437   4.174  1.00  0.00     0.505 C 
HETATM   25  F1  UNL     1      23.805   8.611   4.877  1.00  0.00    -0.184 F 
HETATM   26  F2  UNL     1      24.538   7.786   2.938  1.00  0.00    -0.184 F 
ENDBRANCH  23  24
ENDBRANCH  18  23
ENDBRANCH  13  15
ENDBRANCH   4  13
BRANCH   1  27
HETATM   27  N1  UNL     1      30.113  -1.265   4.301  1.00  0.00    -0.376 N 
ATOM     28  H1  UNL     1      29.847  -1.812   5.120  1.00  0.00     0.161 HD
BRANCH  27  29
HETATM   29  C2  UNL     1      30.649  -1.911   3.121  1.00  0.00     0.116 C 
HETATM   30  C1  UNL     1      31.782  -2.862   3.495  1.00  0.00     0.026 C 
ENDBRANCH  27  29
ENDBRANCH   1  27
TORSDOF 6
ENDMDL
MODEL 2
REMARK VINA RESULT: -7.029306221      1.573      2.205
REMARK  6 active torsions:
REMARK  status: ('A' for Active; 'I' for Inactive)
REMARK    1  A    between atoms: C2_2  and  N1_3 
REMARK    2  A    between atoms: N1_3  and  C3_5 
REMARK    3  A    between atoms: C4_8  and  N3_9 
REMARK    4  A    between atoms: N3_9  and  C5_11 
REMARK    5  A    between atoms: C8_14  and  O1_15 
REMARK    6  A    between atoms: O1_15  and  C9_16 
ROOT
HETATM    1  C3  UNL     1      29.828   0.622   4.554  1.00  0.00     0.125 A 
HETATM    2  N2  UNL     1      29.174   1.610   3.923  1.00  0.00    -0.176 N 
ATOM      3  H2  UNL     1      28.425   1.349   3.281  1.00  0.00     0.186 HD
HETATM    4  C4  UNL     1      29.437   2.920   4.076  1.00  0.00     0.684 A 
HETATM    5  N4  UNL     1      30.431   3.246   4.930  1.00  0.00    -0.193 N 
ATOM      6  H4  UNL     1      30.656   4.231   5.068  1.00  0.00     0.184 HD
HETATM    7  C12 UNL     1      31.134   2.321   5.602  1.00  0.00     0.060 A 
HETATM    8  C13 UNL     1      30.846   0.983   5.429  1.00  0.00     0.013 A 
HETATM    9  C14 UNL     1      31.594  -0.065   6.147  1.00  0.00     0.071 C 
HETATM   10  C15 UNL     1      32.855   0.431   6.779  1.00  0.00     0.173 C 
HETATM   11  O2  UNL     1      33.228   1.702   6.361  1.00  0.00    -0.385 OA
HETATM   12  C16 UNL     1      32.229   2.651   6.543  1.00  0.00     0.225 C 
ENDROOT
BRANCH   4  13
HETATM   13  N3  UNL     1      28.754   3.822   3.424  1.00  0.00    -0.188 N 
ATOM     14  H3  UNL     1      29.174   4.368   2.671  1.00  0.00     0.184 HD
BRANCH  13  15
HETATM   15  C5  UNL     1      27.402   4.007   3.812  1.00  0.00     0.091 A 
HETATM   16  C6  UNL     1      26.689   2.887   4.180  1.00  0.00     0.036 A 
HETATM   17  C7  UNL     1      25.349   3.025   4.571  1.00  0.00     0.042 A 
HETATM   18  C8  UNL     1      24.737   4.246   4.595  1.00  0.00     0.116 A 
HETATM   19  C10 UNL     1      25.475   5.355   4.222  1.00  0.00     0.190 A 
HETATM   20  F3  UNL     1      24.849   6.555   4.252  1.00  0.00    -0.200 F 
HETATM   21  C11 UNL     1      26.802   5.234   3.832  1.00  0.00     0.184 A 
HETATM   22  F4  UNL     1      27.482   6.337   3.477  1.00  0.00    -0.200 F 
BRANCH  18  23
HETATM   23  O1  UNL     1      23.434   4.393   4.974  1.00  0.00    -0.287 OA
BRANCH  23  24
HETATM   24  C9  UNL     1      22.280   4.086   4.271  1.00  0.00     0.505 C 
HETATM   25  F1  UNL     1      21.385   5.141   4.289  1.00  0.00    -0.184 F 
HETATM   26  F2  UNL     1      22.636   3.872   2.948  1.00  0.00    -0.184 F 
ENDBRANCH  23  24
ENDBRANCH  18  23
ENDBRANCH  13  15
ENDBRANCH   4  13
BRANCH   1  27
HETATM   27  N1  UNL     1      29.578  -0.633   4.409  1.00  0.00    -0.376 N 
ATOM     28  H1  UNL     1      29.208  -1.185   5.183  1.00  0.00     0.161 HD
BRANCH  27  29
HETATM   29  C2  UNL     1      29.835  -1.243   3.121  1.00  0.00     0.116 C 
HETATM   30  C1  UNL     1      30.955  -2.273   3.227  1.00  0.00     0.026 C 
ENDBRANCH  27  29
ENDBRANCH   1  27
TORSDOF 6
ENDMDL
MODEL 3
REMARK VINA RESULT: -6.974675439      1.243      1.576
REMARK  6 active torsions:
REMARK  status: ('A' for Active; 'I' for Inactive)
REMARK    1  A    between atoms: C2_2  and  N1_3 
REMARK    2  A    between atoms: N1_3  and  C3_5 
REMARK    3  A    between atoms: C4_8  and  N3_9 
REMARK    4  A    between atoms: N3_9  and  C5_11 
REMARK    5  A    between atoms: C8_14  and  O1_15 
REMARK    6  A    between atoms: O1_15  and  C9_16 
ROOT
HETATM    1  C3  UNL     1      29.968  -0.022   4.259  1.00  0.00     0.125 A 
HETATM    2  N2  UNL     1      29.084   0.613   3.472  1.00  0.00    -0.176 N 
ATOM      3  H2  UNL     1      28.529   0.046   2.830  1.00  0.00     0.186 HD
HETATM    4  C4  UNL     1      28.880   1.942   3.470  1.00  0.00     0.684 A 
HETATM    5  N4  UNL     1      29.624   2.674   4.326  1.00  0.00    -0.193 N 
ATOM      6  H4  UNL     1      29.494   3.685   4.349  1.00  0.00     0.184 HD
HETATM    7  C12 UNL     1      30.529   2.119   5.148  1.00  0.00     0.060 A 
HETATM    8  C13 UNL     1      30.721   0.753   5.133  1.00  0.00     0.013 A 
HETATM    9  C14 UNL     1      31.705   0.104   6.018  1.00  0.00     0.071 C 
HETATM   10  C15 UNL     1      32.663   1.063   6.648  1.00  0.00     0.173 C 
HETATM   11  O2  UNL     1      32.629   2.335   6.090  1.00  0.00    -0.385 OA
HETATM   12  C16 UNL     1      31.358   2.899   6.097  1.00  0.00     0.225 C 
ENDROOT
BRANCH   4  13
HETATM   13  N3  UNL     1      28.000   2.484   2.672  1.00  0.00    -0.188 N 
ATOM     14  H3  UNL     1      27.879   2.160   1.712  1.00  0.00     0.184 HD
BRANCH  13  15
HETATM   15  C5  UNL     1      27.220   3.544   3.203  1.00  0.00     0.091 A 
HETATM   16  C6  UNL     1      26.083   3.205   3.903  1.00  0.00     0.036 A 
HETATM   17  C7  UNL     1      25.284   4.222   4.445  1.00  0.00     0.042 A 
HETATM   18  C8  UNL     1      25.609   5.540   4.294  1.00  0.00     0.116 A 
HETATM   19  C10 UNL     1      26.756   5.853   3.587  1.00  0.00     0.190 A 
HETATM   20  F3  UNL     1      27.060   7.166   3.448  1.00  0.00    -0.200 F 
HETATM   21  C11 UNL     1      27.557   4.858   3.044  1.00  0.00     0.184 A 
HETATM   22  F4  UNL     1      28.663   5.207   2.364  1.00  0.00    -0.200 F 
BRANCH  18  23
HETATM   23  O1  UNL     1      24.839   6.538   4.817  1.00  0.00    -0.287 OA
BRANCH  23  24
HETATM   24  C9  UNL     1      23.930   7.367   4.178  1.00  0.00     0.505 C 
HETATM   25  F1  UNL     1      23.783   8.566   4.854  1.00  0.00    -0.184 F 
HETATM   26  F2  UNL     1      24.440   7.663   2.923  1.00  0.00    -0.184 F 
ENDBRANCH  23  24
ENDBRANCH  18  23
ENDBRANCH  13  15
ENDBRANCH   4  13
BRANCH   1  27
HETATM   27  N1  UNL     1      30.165  -1.295   4.263  1.00  0.00    -0.376 N 
ATOM     28  H1  UNL     1      29.907  -1.861   5.071  1.00  0.00     0.161 HD
BRANCH  27  29
HETATM   29  C2  UNL     1      30.763  -1.903   3.093  1.00  0.00     0.116 C 
HETATM   30  C1  UNL     1      31.793  -2.954   3.499  1.00  0.00     0.026 C 
ENDBRANCH  27  29
ENDBRANCH   1  27
TORSDOF 6
ENDMDL
MODEL 4
REMARK VINA RESULT: -6.968642065      3.617      7.716
REMARK  6 active torsions:
REMARK  status: ('A' for Active; 'I' for Inactive)
REMARK    1  A    between atoms: C2_2  and  N1_3 
REMARK    2  A    between atoms: N1_3  and  C3_5 
REMARK    3  A    between atoms: C4_8  and  N3_9 
REMARK    4  A    between atoms: N3_9  and  C5_11 
REMARK    5  A    between atoms: C8_14  and  O1_15 
REMARK    6  A    between atoms: O1_15  and  C9_16 
ROOT
HETATM    1  C3  UNL     1      25.636   3.632   4.528  1.00  0.00     0.125 A 
HETATM    2  N2  UNL     1      26.938   3.307   4.562  1.00  0.00    -0.176 N 
ATOM      3  H2  UNL     1      27.188   2.388   4.930  1.00  0.00     0.186 HD
HETATM    4  C4  UNL     1      27.936   4.106   4.146  1.00  0.00     0.684 A 
HETATM    5  N4  UNL     1      27.586   5.317   3.663  1.00  0.00    -0.193 N 
ATOM      6  H4  UNL     1      28.319   5.948   3.340  1.00  0.00     0.184 HD
HETATM    7  C12 UNL     1      26.307   5.721   3.594  1.00  0.00     0.060 A 
HETATM    8  C13 UNL     1      25.300   4.884   4.026  1.00  0.00     0.013 A 
HETATM    9  C14 UNL     1      23.884   5.289   3.967  1.00  0.00     0.071 C 
HETATM   10  C15 UNL     1      23.692   6.751   3.729  1.00  0.00     0.173 C 
HETATM   11  O2  UNL     1      24.855   7.498   3.871  1.00  0.00    -0.385 OA
HETATM   12  C16 UNL     1      25.896   7.044   3.068  1.00  0.00     0.225 C 
ENDROOT
BRANCH   4  13
HETATM   13  N3  UNL     1      29.180   3.716   4.212  1.00  0.00    -0.188 N 
ATOM     14  H3  UNL     1      29.945   4.383   4.316  1.00  0.00     0.184 HD
BRANCH  13  15
HETATM   15  C5  UNL     1      29.419   2.319   4.134  1.00  0.00     0.091 A 
HETATM   16  C6  UNL     1      28.822   1.632   3.099  1.00  0.00     0.036 A 
HETATM   17  C7  UNL     1      29.032   0.250   2.984  1.00  0.00     0.042 A 
HETATM   18  C8  UNL     1      29.814  -0.429   3.875  1.00  0.00     0.116 A 
HETATM   19  C10 UNL     1      30.402   0.285   4.904  1.00  0.00     0.190 A 
HETATM   20  F3  UNL     1      31.173  -0.406   5.777  1.00  0.00    -0.200 F 
HETATM   21  C11 UNL     1      30.203   1.654   5.032  1.00  0.00     0.184 A 
HETATM   22  F4  UNL     1      30.793   2.308   6.047  1.00  0.00    -0.200 F 
BRANCH  18  23
HETATM   23  O1  UNL     1      30.026  -1.772   3.773  1.00  0.00    -0.287 OA
BRANCH  23  24
HETATM   24  C9  UNL     1      31.041  -2.451   3.116  1.00  0.00     0.505 C 
HETATM   25  F1  UNL     1      31.744  -1.609   2.273  1.00  0.00    -0.184 F 
HETATM   26  F2  UNL     1      31.931  -2.908   4.076  1.00  0.00    -0.184 F 
ENDBRANCH  23  24
ENDBRANCH  18  23
ENDBRANCH  13  15
ENDBRANCH   4  13
BRANCH   1  27
HETATM   27  N1  UNL     1      24.678   2.868   4.926  1.00  0.00    -0.376 N 
ATOM     28  H1  UNL     1      24.402   2.845   5.908  1.00  0.00     0.161 HD
BRANCH  27  29
HETATM   29  C2  UNL     1      24.002   2.044   3.946  1.00  0.00     0.116 C 
HETATM   30  C1  UNL     1      25.006   1.437   2.969  1.00  0.00     0.026 C 
ENDBRANCH  27  29
ENDBRANCH   1  27
TORSDOF 6
ENDMDL
MODEL 5
REMARK VINA RESULT: -6.917778055      2.129      3.460
REMARK  6 active torsions:
REMARK  status: ('A' for Active; 'I' for Inactive)
REMARK    1  A    between atoms: C2_2  and  N1_3 
REMARK    2  A    between atoms: N1_3  and  C3_5 
REMARK    3  A    between atoms: C4_8  and  N3_9 
REMARK    4  A    between atoms: N3_9  and  C5_11 
REMARK    5  A    between atoms: C8_14  and  O1_15 
REMARK    6  A    between atoms: O1_15  and  C9_16 
ROOT
HETATM    1  C3  UNL     1      30.430   1.463   5.277  1.00  0.00     0.125 A 
HETATM    2  N2  UNL     1      29.917   2.693   5.115  1.00  0.00    -0.176 N 
ATOM      3  H2  UNL     1      30.084   3.377   5.854  1.00  0.00     0.186 HD
HETATM    4  C4  UNL     1      29.198   3.087   4.049  1.00  0.00     0.684 A 
HETATM    5  N4  UNL     1      28.988   2.168   3.083  1.00  0.00    -0.193 N 
ATOM      6  H4  UNL     1      28.446   2.435   2.261  1.00  0.00     0.184 HD
HETATM    7  C12 UNL     1      29.466   0.916   3.164  1.00  0.00     0.060 A 
HETATM    8  C13 UNL     1      30.200   0.535   4.267  1.00  0.00     0.013 A 
HETATM    9  C14 UNL     1      30.742  -0.830   4.397  1.00  0.00     0.071 C 
HETATM   10  C15 UNL     1      30.150  -1.801   3.427  1.00  0.00     0.173 C 
HETATM   11  O2  UNL     1      29.025  -1.318   2.770  1.00  0.00    -0.385 OA
HETATM   12  C16 UNL     1      29.249  -0.111   2.119  1.00  0.00     0.225 C 
ENDROOT
BRANCH   4  13
HETATM   13  N3  UNL     1      28.733   4.304   3.967  1.00  0.00    -0.188 N 
ATOM     14  H3  UNL     1      29.344   5.098   3.775  1.00  0.00     0.184 HD
BRANCH  13  15
HETATM   15  C5  UNL     1      27.336   4.471   4.157  1.00  0.00     0.091 A 
HETATM   16  C6  UNL     1      26.615   3.365   4.553  1.00  0.00     0.036 A 
HETATM   17  C7  UNL     1      25.232   3.486   4.753  1.00  0.00     0.042 A 
HETATM   18  C8  UNL     1      24.586   4.675   4.564  1.00  0.00     0.116 A 
HETATM   19  C10 UNL     1      25.334   5.769   4.166  1.00  0.00     0.190 A 
HETATM   20  F3  UNL     1      24.674   6.937   3.983  1.00  0.00    -0.200 F 
HETATM   21  C11 UNL     1      26.704   5.665   3.964  1.00  0.00     0.184 A 
HETATM   22  F4  UNL     1      27.391   6.753   3.578  1.00  0.00    -0.200 F 
BRANCH  18  23
HETATM   23  O1  UNL     1      23.241   4.804   4.755  1.00  0.00    -0.287 OA
BRANCH  23  24
HETATM   24  C9  UNL     1      22.200   4.161   4.105  1.00  0.00     0.505 C 
HETATM   25  F1  UNL     1      21.042   4.920   4.138  1.00  0.00    -0.184 F 
HETATM   26  F2  UNL     1      22.559   4.018   2.773  1.00  0.00    -0.184 F 
ENDBRANCH  23  24
ENDBRANCH  18  23
ENDBRANCH  13  15
ENDBRANCH   4  13
BRANCH   1  27
HETATM   27  N1  UNL     1      31.118   1.082   6.297  1.00  0.00    -0.376 N 
ATOM     28  H1  UNL     1      30.731   0.422   6.971  1.00  0.00     0.161 HD
BRANCH  27  29
HETATM   29  C2  UNL     1      32.455   1.614   6.463  1.00  0.00     0.116 C 
HETATM   30  C1  UNL     1      33.418   0.518   6.908  1.00  0.00     0.026 C 
ENDBRANCH  27  29
ENDBRANCH   1  27
TORSDOF 6
ENDMDL
