MODEL 1
REMARK VINA RESULT: -7.854851660      0.000      0.000
REMARK  8 active torsions:
REMARK  status: ('A' for Active; 'I' for Inactive)
REMARK    1  A    between atoms: C2_2  and  C3_3 
REMARK    2  A    between atoms: C3_3  and  C4_4 
REMARK    3  A    between atoms: C4_4  and  C5_5 
REMARK    4  A    between atoms: C5_5  and  C6_6 
REMARK    5  A    between atoms: C6_6  and  N1_7 
REMARK       I    between atoms: N1_7  and  C7_9 
REMARK    6  A    between atoms: C7_9  and  C8_11 
REMARK    7  A    between atoms: C9_13  and  C10_14 
REMARK    8  A    between atoms: C10_14  and  C11_15 
REMARK       I    between atoms: C11_15  and  N2_17 
ROOT
HETATM    1  C8  UNL     1      36.425   0.588  18.134  1.00  0.00     0.247 C 
HETATM    2  O2  UNL     1      36.954   0.199  16.933  1.00  0.00    -0.355 OA
HETATM    3  C9  UNL     1      38.213   0.587  17.184  1.00  0.00     0.117 C 
HETATM    4  C13 UNL     1      38.963   1.535  16.376  1.00  0.00     0.021 C 
HETATM    5  C14 UNL     1      38.400   2.809  15.878  1.00  0.00    -0.033 C 
HETATM    6  C15 UNL     1      38.751   2.979  14.385  1.00  0.00    -0.013 C 
HETATM    7  C16 UNL     1      38.515   1.721  13.591  1.00  0.00     0.020 C 
HETATM    8  C17 UNL     1      40.285   3.158  14.353  1.00  0.00     0.014 C 
HETATM    9  C18 UNL     1      40.641   4.627  14.425  1.00  0.00     0.002 C 
HETATM   10  C19 UNL     1      40.295   5.126  13.018  1.00  0.00     0.009 C 
HETATM   11  C20 UNL     1      38.821   5.042  12.891  1.00  0.00    -0.043 C 
HETATM   12  C21 UNL     1      38.513   4.706  11.422  1.00  0.00     0.015 C 
HETATM   13  C22 UNL     1      38.297   6.485  13.038  1.00  0.00     0.015 C 
HETATM   14  C23 UNL     1      38.085   4.198  13.846  1.00  0.00     0.006 C 
HETATM   15  C24 UNL     1      36.741   3.920  13.219  1.00  0.00     0.007 C 
HETATM   16  C25 UNL     1      35.835   3.085  14.048  1.00  0.00     0.008 C 
HETATM   17  C26 UNL     1      35.875   3.287  15.510  1.00  0.00     0.026 C 
HETATM   18  C27 UNL     1      34.977   4.516  15.789  1.00  0.00     0.013 C 
HETATM   19  C28 UNL     1      37.091   3.272  16.283  1.00  0.00     0.141 A 
HETATM   20  O4  UNL     1      37.101   4.471  17.219  1.00  0.00    -0.337 OA
HETATM   21  C29 UNL     1      36.934   3.230  17.757  1.00  0.00     0.301 A 
HETATM   22  O5  UNL     1      37.914   2.544  18.427  1.00  0.00    -0.346 OA
HETATM   23  C30 UNL     1      37.726   1.205  18.494  1.00  0.00     0.202 C 
ENDROOT
BRANCH   1  24
HETATM   24  C7  UNL     1      35.943  -0.521  19.018  1.00  0.00     0.249 C 
HETATM   25  N1  UNL     1      34.792  -1.277  18.775  1.00  0.00    -0.359 N 
ATOM     26  H1  UNL     1      34.221  -1.086  17.951  1.00  0.00     0.162 HD
HETATM   27  O1  UNL     1      36.639  -0.762  20.033  1.00  0.00    -0.271 OA
BRANCH  25  28
HETATM   28  C6  UNL     1      34.412  -2.328  19.690  1.00  0.00     0.122 C 
BRANCH  28  29
HETATM   29  C5  UNL     1      33.147  -3.027  19.269  1.00  0.00     0.020 C 
BRANCH  29  30
HETATM   30  C4  UNL     1      32.534  -2.390  18.048  1.00  0.00     0.002 C 
BRANCH  30  31
HETATM   31  C3  UNL     1      31.025  -2.370  18.082  1.00  0.00    -0.000 C 
BRANCH  31  32
HETATM   32  C2  UNL     1      30.489  -3.101  19.298  1.00  0.00    -0.005 C 
HETATM   33  C1  UNL     1      29.039  -2.706  19.553  1.00  0.00     0.005 C 
ENDBRANCH  31  32
ENDBRANCH  30  31
ENDBRANCH  29  30
ENDBRANCH  28  29
ENDBRANCH  25  28
ENDBRANCH   1  24
BRANCH   3  34
HETATM   34  C10 UNL     1      39.150  -0.583  17.550  1.00  0.00     0.148 C 
BRANCH  34  35
HETATM   35  C11 UNL     1      39.708  -1.253  16.378  1.00  0.00     0.220 C 
HETATM   36  O3  UNL     1      38.942  -1.854  15.588  1.00  0.00    -0.274 OA
HETATM   37  N2  UNL     1      41.088  -1.275  16.053  1.00  0.00    -0.365 N 
HETATM   38  C12 UNL     1      41.621  -1.944  14.885  1.00  0.00     0.149 C 
ATOM     39  H2  UNL     1      41.739  -0.794  16.673  1.00  0.00     0.161 HD
ENDBRANCH  34  35
ENDBRANCH   3  34
TORSDOF 8
ENDMDL
MODEL 2
REMARK VINA RESULT: -7.474645170      1.726      1.985
REMARK  8 active torsions:
REMARK  status: ('A' for Active; 'I' for Inactive)
REMARK    1  A    between atoms: C2_2  and  C3_3 
REMARK    2  A    between atoms: C3_3  and  C4_4 
REMARK    3  A    between atoms: C4_4  and  C5_5 
REMARK    4  A    between atoms: C5_5  and  C6_6 
REMARK    5  A    between atoms: C6_6  and  N1_7 
REMARK       I    between atoms: N1_7  and  C7_9 
REMARK    6  A    between atoms: C7_9  and  C8_11 
REMARK    7  A    between atoms: C9_13  and  C10_14 
REMARK    8  A    between atoms: C10_14  and  C11_15 
REMARK       I    between atoms: C11_15  and  N2_17 
ROOT
HETATM    1  C8  UNL     1      36.067   0.500  17.812  1.00  0.00     0.247 C 
HETATM    2  O2  UNL     1      36.712   0.154  16.655  1.00  0.00    -0.355 OA
HETATM    3  C9  UNL     1      37.934   0.558  17.030  1.00  0.00     0.117 C 
HETATM    4  C13 UNL     1      38.734   1.543  16.319  1.00  0.00     0.021 C 
HETATM    5  C14 UNL     1      38.192   2.819  15.804  1.00  0.00    -0.033 C 
HETATM    6  C15 UNL     1      38.675   3.036  14.354  1.00  0.00    -0.013 C 
HETATM    7  C16 UNL     1      38.539   1.796  13.511  1.00  0.00     0.020 C 
HETATM    8  C17 UNL     1      40.201   3.245  14.469  1.00  0.00     0.014 C 
HETATM    9  C18 UNL     1      40.517   4.718  14.610  1.00  0.00     0.002 C 
HETATM   10  C19 UNL     1      40.290   5.248  13.191  1.00  0.00     0.009 C 
HETATM   11  C20 UNL     1      38.837   5.140  12.926  1.00  0.00    -0.043 C 
HETATM   12  C21 UNL     1      38.671   4.839  11.426  1.00  0.00     0.015 C 
HETATM   13  C22 UNL     1      38.270   6.568  13.061  1.00  0.00     0.015 C 
HETATM   14  C23 UNL     1      38.035   4.257  13.788  1.00  0.00     0.006 C 
HETATM   15  C24 UNL     1      36.760   3.970  13.033  1.00  0.00     0.007 C 
HETATM   16  C25 UNL     1      35.800   3.096  13.753  1.00  0.00     0.008 C 
HETATM   17  C26 UNL     1      35.701   3.259  15.218  1.00  0.00     0.026 C 
HETATM   18  C27 UNL     1      34.756   4.462  15.443  1.00  0.00     0.013 C 
HETATM   19  C28 UNL     1      36.842   3.245  16.099  1.00  0.00     0.141 A 
HETATM   20  O4  UNL     1      36.740   4.419  17.062  1.00  0.00    -0.337 OA
HETATM   21  C29 UNL     1      36.551   3.160  17.550  1.00  0.00     0.301 A 
HETATM   22  O5  UNL     1      37.480   2.476  18.290  1.00  0.00    -0.346 OA
HETATM   23  C30 UNL     1      37.316   1.131  18.305  1.00  0.00     0.202 C 
ENDROOT
BRANCH   1  24
HETATM   24  C7  UNL     1      35.530  -0.642  18.619  1.00  0.00     0.249 C 
HETATM   25  N1  UNL     1      35.773  -0.822  19.984  1.00  0.00    -0.359 N 
ATOM     26  H1  UNL     1      36.349  -0.150  20.494  1.00  0.00     0.162 HD
HETATM   27  O1  UNL     1      34.821  -1.472  18.002  1.00  0.00    -0.271 OA
BRANCH  25  28
HETATM   28  C6  UNL     1      35.208  -1.959  20.674  1.00  0.00     0.122 C 
BRANCH  28  29
HETATM   29  C5  UNL     1      36.240  -2.726  21.456  1.00  0.00     0.020 C 
BRANCH  29  30
HETATM   30  C4  UNL     1      35.617  -3.820  22.286  1.00  0.00     0.002 C 
BRANCH  30  31
HETATM   31  C3  UNL     1      34.108  -3.789  22.274  1.00  0.00    -0.000 C 
BRANCH  31  32
HETATM   32  C2  UNL     1      33.551  -3.405  23.632  1.00  0.00    -0.005 C 
HETATM   33  C1  UNL     1      32.698  -2.148  23.514  1.00  0.00     0.005 C 
ENDBRANCH  31  32
ENDBRANCH  30  31
ENDBRANCH  29  30
ENDBRANCH  28  29
ENDBRANCH  25  28
ENDBRANCH   1  24
BRANCH   3  34
HETATM   34  C10 UNL     1      38.859  -0.603  17.451  1.00  0.00     0.148 C 
BRANCH  34  35
HETATM   35  C11 UNL     1      39.617  -1.159  16.334  1.00  0.00     0.220 C 
HETATM   36  O3  UNL     1      39.015  -1.789  15.432  1.00  0.00    -0.274 OA
HETATM   37  N2  UNL     1      41.022  -1.037  16.183  1.00  0.00    -0.365 N 
HETATM   38  C12 UNL     1      41.755  -1.596  15.067  1.00  0.00     0.149 C 
ATOM     39  H2  UNL     1      41.543  -0.530  16.898  1.00  0.00     0.161 HD
ENDBRANCH  34  35
ENDBRANCH   3  34
TORSDOF 8
ENDMDL
MODEL 3
REMARK VINA RESULT: -7.463503649      1.854      2.871
REMARK  8 active torsions:
REMARK  status: ('A' for Active; 'I' for Inactive)
REMARK    1  A    between atoms: C2_2  and  C3_3 
REMARK    2  A    between atoms: C3_3  and  C4_4 
REMARK    3  A    between atoms: C4_4  and  C5_5 
REMARK    4  A    between atoms: C5_5  and  C6_6 
REMARK    5  A    between atoms: C6_6  and  N1_7 
REMARK       I    between atoms: N1_7  and  C7_9 
REMARK    6  A    between atoms: C7_9  and  C8_11 
REMARK    7  A    between atoms: C9_13  and  C10_14 
REMARK    8  A    between atoms: C10_14  and  C11_15 
REMARK       I    between atoms: C11_15  and  N2_17 
ROOT
HETATM    1  C8  UNL     1      36.109   0.492  17.850  1.00  0.00     0.247 C 
HETATM    2  O2  UNL     1      36.771   0.144  16.703  1.00  0.00    -0.355 OA
HETATM    3  C9  UNL     1      37.981   0.583  17.081  1.00  0.00     0.117 C 
HETATM    4  C13 UNL     1      38.763   1.576  16.362  1.00  0.00     0.021 C 
HETATM    5  C14 UNL     1      38.195   2.831  15.825  1.00  0.00    -0.033 C 
HETATM    6  C15 UNL     1      38.683   3.038  14.375  1.00  0.00    -0.013 C 
HETATM    7  C16 UNL     1      38.584   1.784  13.549  1.00  0.00     0.020 C 
HETATM    8  C17 UNL     1      40.203   3.285  14.498  1.00  0.00     0.014 C 
HETATM    9  C18 UNL     1      40.484   4.767  14.620  1.00  0.00     0.002 C 
HETATM   10  C19 UNL     1      40.256   5.271  13.191  1.00  0.00     0.009 C 
HETATM   11  C20 UNL     1      38.807   5.125  12.918  1.00  0.00    -0.043 C 
HETATM   12  C21 UNL     1      38.660   4.798  11.422  1.00  0.00     0.015 C 
HETATM   13  C22 UNL     1      38.206   6.541  13.028  1.00  0.00     0.015 C 
HETATM   14  C23 UNL     1      38.020   4.235  13.786  1.00  0.00     0.006 C 
HETATM   15  C24 UNL     1      36.757   3.908  13.027  1.00  0.00     0.007 C 
HETATM   16  C25 UNL     1      35.813   3.022  13.752  1.00  0.00     0.008 C 
HETATM   17  C26 UNL     1      35.699   3.203  15.213  1.00  0.00     0.026 C 
HETATM   18  C27 UNL     1      34.724   4.387  15.414  1.00  0.00     0.013 C 
HETATM   19  C28 UNL     1      36.833   3.230  16.103  1.00  0.00     0.141 A 
HETATM   20  O4  UNL     1      36.696   4.414  17.048  1.00  0.00    -0.337 OA
HETATM   21  C29 UNL     1      36.533   3.159  17.553  1.00  0.00     0.301 A 
HETATM   22  O5  UNL     1      37.472   2.507  18.310  1.00  0.00    -0.346 OA
HETATM   23  C30 UNL     1      37.340   1.159  18.343  1.00  0.00     0.202 C 
ENDROOT
BRANCH   1  24
HETATM   24  C7  UNL     1      35.594  -0.650  18.670  1.00  0.00     0.249 C 
HETATM   25  N1  UNL     1      35.822  -0.799  20.042  1.00  0.00    -0.359 N 
ATOM     26  H1  UNL     1      36.371  -0.103  20.547  1.00  0.00     0.162 HD
HETATM   27  O1  UNL     1      34.917  -1.511  18.058  1.00  0.00    -0.271 OA
BRANCH  25  28
HETATM   28  C6  UNL     1      35.279  -1.940  20.744  1.00  0.00     0.122 C 
BRANCH  28  29
HETATM   29  C5  UNL     1      36.341  -2.731  21.460  1.00  0.00     0.020 C 
BRANCH  29  30
HETATM   30  C4  UNL     1      35.787  -3.999  22.061  1.00  0.00     0.002 C 
BRANCH  30  31
HETATM   31  C3  UNL     1      36.727  -5.173  21.942  1.00  0.00    -0.000 C 
BRANCH  31  32
HETATM   32  C2  UNL     1      38.022  -4.924  22.692  1.00  0.00    -0.005 C 
HETATM   33  C1  UNL     1      39.019  -6.040  22.406  1.00  0.00     0.005 C 
ENDBRANCH  31  32
ENDBRANCH  30  31
ENDBRANCH  29  30
ENDBRANCH  28  29
ENDBRANCH  25  28
ENDBRANCH   1  24
BRANCH   3  34
HETATM   34  C10 UNL     1      38.929  -0.550  17.527  1.00  0.00     0.148 C 
BRANCH  34  35
HETATM   35  C11 UNL     1      39.652  -1.156  16.411  1.00  0.00     0.220 C 
HETATM   36  O3  UNL     1      39.024  -1.842  15.569  1.00  0.00    -0.274 OA
HETATM   37  N2  UNL     1      41.048  -1.025  16.199  1.00  0.00    -0.365 N 
HETATM   38  C12 UNL     1      41.746  -1.634  15.087  1.00  0.00     0.149 C 
ATOM     39  H2  UNL     1      41.588  -0.473  16.865  1.00  0.00     0.161 HD
ENDBRANCH  34  35
ENDBRANCH   3  34
TORSDOF 8
ENDMDL
MODEL 4
REMARK VINA RESULT: -7.457823583      1.296      1.571
REMARK  8 active torsions:
REMARK  status: ('A' for Active; 'I' for Inactive)
REMARK    1  A    between atoms: C2_2  and  C3_3 
REMARK    2  A    between atoms: C3_3  and  C4_4 
REMARK    3  A    between atoms: C4_4  and  C5_5 
REMARK    4  A    between atoms: C5_5  and  C6_6 
REMARK    5  A    between atoms: C6_6  and  N1_7 
REMARK       I    between atoms: N1_7  and  C7_9 
REMARK    6  A    between atoms: C7_9  and  C8_11 
REMARK    7  A    between atoms: C9_13  and  C10_14 
REMARK    8  A    between atoms: C10_14  and  C11_15 
REMARK       I    between atoms: C11_15  and  N2_17 
ROOT
HETATM    1  C8  UNL     1      36.305   0.425  18.239  1.00  0.00     0.247 C 
HETATM    2  O2  UNL     1      36.855   0.042  17.045  1.00  0.00    -0.355 OA
HETATM    3  C9  UNL     1      38.087   0.517  17.282  1.00  0.00     0.117 C 
HETATM    4  C13 UNL     1      38.771   1.493  16.449  1.00  0.00     0.021 C 
HETATM    5  C14 UNL     1      38.126   2.715  15.922  1.00  0.00    -0.033 C 
HETATM    6  C15 UNL     1      38.461   2.871  14.424  1.00  0.00    -0.013 C 
HETATM    7  C16 UNL     1      38.306   1.582  13.662  1.00  0.00     0.020 C 
HETATM    8  C17 UNL     1      39.980   3.149  14.382  1.00  0.00     0.014 C 
HETATM    9  C18 UNL     1      40.240   4.640  14.417  1.00  0.00     0.002 C 
HETATM   10  C19 UNL     1      39.858   5.081  13.001  1.00  0.00     0.009 C 
HETATM   11  C20 UNL     1      38.393   4.898  12.881  1.00  0.00    -0.043 C 
HETATM   12  C21 UNL     1      38.104   4.507  11.421  1.00  0.00     0.015 C 
HETATM   13  C22 UNL     1      37.776   6.306  12.995  1.00  0.00     0.015 C 
HETATM   14  C23 UNL     1      37.716   4.031  13.859  1.00  0.00     0.006 C 
HETATM   15  C24 UNL     1      36.391   3.650  13.244  1.00  0.00     0.007 C 
HETATM   16  C25 UNL     1      35.544   2.779  14.096  1.00  0.00     0.008 C 
HETATM   17  C26 UNL     1      35.574   3.018  15.552  1.00  0.00     0.026 C 
HETATM   18  C27 UNL     1      34.598   4.192  15.805  1.00  0.00     0.013 C 
HETATM   19  C28 UNL     1      36.790   3.101  16.321  1.00  0.00     0.141 A 
HETATM   20  O4  UNL     1      36.723   4.320  17.228  1.00  0.00    -0.337 OA
HETATM   21  C29 UNL     1      36.639   3.085  17.796  1.00  0.00     0.301 A 
HETATM   22  O5  UNL     1      37.663   2.481  18.478  1.00  0.00    -0.346 OA
HETATM   23  C30 UNL     1      37.563   1.134  18.578  1.00  0.00     0.202 C 
ENDROOT
BRANCH   1  24
HETATM   24  C7  UNL     1      35.899  -0.691  19.151  1.00  0.00     0.249 C 
HETATM   25  N1  UNL     1      34.773  -1.498  18.954  1.00  0.00    -0.359 N 
ATOM     26  H1  UNL     1      34.168  -1.342  18.147  1.00  0.00     0.162 HD
HETATM   27  O1  UNL     1      36.636  -0.891  20.145  1.00  0.00    -0.271 OA
BRANCH  25  28
HETATM   28  C6  UNL     1      34.467  -2.552  19.893  1.00  0.00     0.122 C 
BRANCH  28  29
HETATM   29  C5  UNL     1      33.008  -2.922  19.885  1.00  0.00     0.020 C 
BRANCH  29  30
HETATM   30  C4  UNL     1      32.463  -3.090  21.281  1.00  0.00     0.002 C 
BRANCH  30  31
HETATM   31  C3  UNL     1      33.304  -2.409  22.334  1.00  0.00    -0.000 C 
BRANCH  31  32
HETATM   32  C2  UNL     1      32.639  -2.467  23.696  1.00  0.00    -0.005 C 
HETATM   33  C1  UNL     1      31.761  -1.239  23.906  1.00  0.00     0.005 C 
ENDBRANCH  31  32
ENDBRANCH  30  31
ENDBRANCH  29  30
ENDBRANCH  28  29
ENDBRANCH  25  28
ENDBRANCH   1  24
BRANCH   3  34
HETATM   34  C10 UNL     1      39.100  -0.579  17.673  1.00  0.00     0.148 C 
BRANCH  34  35
HETATM   35  C11 UNL     1      39.802  -1.141  16.521  1.00  0.00     0.220 C 
HETATM   36  O3  UNL     1      39.164  -1.817  15.680  1.00  0.00    -0.274 OA
HETATM   37  N2  UNL     1      41.188  -0.973  16.272  1.00  0.00    -0.365 N 
HETATM   38  C12 UNL     1      41.865  -1.538  15.124  1.00  0.00     0.149 C 
ATOM     39  H2  UNL     1      41.736  -0.427  16.936  1.00  0.00     0.161 HD
ENDBRANCH  34  35
ENDBRANCH   3  34
TORSDOF 8
ENDMDL
MODEL 5
REMARK VINA RESULT: -7.423087335      0.886      1.100
REMARK  8 active torsions:
REMARK  status: ('A' for Active; 'I' for Inactive)
REMARK    1  A    between atoms: C2_2  and  C3_3 
REMARK    2  A    between atoms: C3_3  and  C4_4 
REMARK    3  A    between atoms: C4_4  and  C5_5 
REMARK    4  A    between atoms: C5_5  and  C6_6 
REMARK    5  A    between atoms: C6_6  and  N1_7 
REMARK       I    between atoms: N1_7  and  C7_9 
REMARK    6  A    between atoms: C7_9  and  C8_11 
REMARK    7  A    between atoms: C9_13  and  C10_14 
REMARK    8  A    between atoms: C10_14  and  C11_15 
REMARK       I    between atoms: C11_15  and  N2_17 
ROOT
HETATM    1  C8  UNL     1      36.035   0.306  17.938  1.00  0.00     0.247 C 
HETATM    2  O2  UNL     1      36.705   0.014  16.779  1.00  0.00    -0.355 OA
HETATM    3  C9  UNL     1      37.899   0.490  17.165  1.00  0.00     0.117 C 
HETATM    4  C13 UNL     1      38.639   1.530  16.470  1.00  0.00     0.021 C 
HETATM    5  C14 UNL     1      38.020   2.777  15.967  1.00  0.00    -0.033 C 
HETATM    6  C15 UNL     1      38.494   3.040  14.522  1.00  0.00    -0.013 C 
HETATM    7  C16 UNL     1      38.439   1.805  13.663  1.00  0.00     0.020 C 
HETATM    8  C17 UNL     1      40.004   3.342  14.646  1.00  0.00     0.014 C 
HETATM    9  C18 UNL     1      40.228   4.831  14.805  1.00  0.00     0.002 C 
HETATM   10  C19 UNL     1      39.974   5.362  13.391  1.00  0.00     0.009 C 
HETATM   11  C20 UNL     1      38.531   5.167  13.119  1.00  0.00    -0.043 C 
HETATM   12  C21 UNL     1      38.390   4.874  11.615  1.00  0.00     0.015 C 
HETATM   13  C22 UNL     1      37.876   6.555  13.268  1.00  0.00     0.015 C 
HETATM   14  C23 UNL     1      37.782   4.225  13.966  1.00  0.00     0.006 C 
HETATM   15  C24 UNL     1      36.530   3.869  13.203  1.00  0.00     0.007 C 
HETATM   16  C25 UNL     1      35.623   2.929  13.908  1.00  0.00     0.008 C 
HETATM   17  C26 UNL     1      35.509   3.068  15.374  1.00  0.00     0.026 C 
HETATM   18  C27 UNL     1      34.490   4.207  15.609  1.00  0.00     0.013 C 
HETATM   19  C28 UNL     1      36.645   3.114  16.260  1.00  0.00     0.141 A 
HETATM   20  O4  UNL     1      36.467   4.268  17.236  1.00  0.00    -0.337 OA
HETATM   21  C29 UNL     1      36.355   2.994  17.709  1.00  0.00     0.301 A 
HETATM   22  O5  UNL     1      37.322   2.360  18.445  1.00  0.00    -0.346 OA
HETATM   23  C30 UNL     1      37.241   1.008  18.444  1.00  0.00     0.202 C 
ENDROOT
BRANCH   1  24
HETATM   24  C7  UNL     1      35.568  -0.876  18.729  1.00  0.00     0.249 C 
HETATM   25  N1  UNL     1      35.877  -1.093  20.076  1.00  0.00    -0.359 N 
ATOM     26  H1  UNL     1      36.456  -0.422  20.581  1.00  0.00     0.162 HD
HETATM   27  O1  UNL     1      34.855  -1.706  18.116  1.00  0.00    -0.271 OA
BRANCH  25  28
HETATM   28  C6  UNL     1      35.375  -2.267  20.751  1.00  0.00     0.122 C 
BRANCH  28  29
HETATM   29  C5  UNL     1      34.061  -2.016  21.440  1.00  0.00     0.020 C 
BRANCH  29  30
HETATM   30  C4  UNL     1      33.120  -3.186  21.300  1.00  0.00     0.002 C 
BRANCH  30  31
HETATM   31  C3  UNL     1      32.229  -3.090  20.086  1.00  0.00    -0.000 C 
BRANCH  31  32
HETATM   32  C2  UNL     1      30.763  -3.133  20.470  1.00  0.00    -0.005 C 
HETATM   33  C1  UNL     1      29.889  -3.012  19.227  1.00  0.00     0.005 C 
ENDBRANCH  31  32
ENDBRANCH  30  31
ENDBRANCH  29  30
ENDBRANCH  28  29
ENDBRANCH  25  28
ENDBRANCH   1  24
BRANCH   3  34
HETATM   34  C10 UNL     1      38.892  -0.617  17.577  1.00  0.00     0.148 C 
BRANCH  34  35
HETATM   35  C11 UNL     1      39.645  -1.153  16.446  1.00  0.00     0.220 C 
HETATM   36  O3  UNL     1      39.047  -1.813  15.564  1.00  0.00    -0.274 OA
HETATM   37  N2  UNL     1      41.041  -0.980  16.263  1.00  0.00    -0.365 N 
HETATM   38  C12 UNL     1      41.769  -1.520  15.134  1.00  0.00     0.149 C 
ATOM     39  H2  UNL     1      41.558  -0.447  16.962  1.00  0.00     0.161 HD
ENDBRANCH  34  35
ENDBRANCH   3  34
TORSDOF 8
ENDMDL
