MODEL 1
REMARK VINA RESULT: -6.626324324      0.000      0.000
REMARK  5 active torsions:
REMARK  status: ('A' for Active; 'I' for Inactive)
REMARK    1  A    between atoms: C2_3  and  C3_4 
REMARK    2  A    between atoms: C6_7  and  O1_8 
REMARK    3  A    between atoms: C7_10  and  O2_11 
REMARK    4  A    between atoms: C9_14  and  C10_15 
REMARK    5  A    between atoms: C10_15  and  C11_16 
ROOT
HETATM    1  N1  UNL     1      41.021  15.896  -2.176  1.00  0.00    -0.197 NA
HETATM    2  C1  UNL     1      42.179  15.871  -2.096  1.00  0.00     0.062 C 
HETATM    3  C2  UNL     1      43.650  15.815  -1.992  1.00  0.00     0.151 C 
ENDROOT
BRANCH   3   4
HETATM    4  C3  UNL     1      44.048  15.345  -0.623  1.00  0.00    -0.010 C 
HETATM    5  C4  UNL     1      44.446  14.110  -0.353  1.00  0.00    -0.076 C 
HETATM    6  C5  UNL     1      44.485  13.163  -1.496  1.00  0.00     0.068 C 
HETATM    7  C9  UNL     1      44.827  13.730   1.042  1.00  0.00     0.019 C 
HETATM    8  C6  UNL     1      44.771  11.749  -1.157  1.00  0.00     0.151 C 
HETATM    9  C7  UNL     1      45.198  11.486   0.229  1.00  0.00     0.147 C 
HETATM   10  C8  UNL     1      44.419  12.327   1.270  1.00  0.00     0.043 C 
BRANCH   8  11
HETATM   11  O1  UNL     1      45.819  11.323  -2.008  1.00  0.00    -0.393 OA
ATOM     12  H1  UNL     1      46.542  11.927  -1.883  1.00  0.00     0.210 HD
ENDBRANCH   8  11
BRANCH   9  13
HETATM   13  O2  UNL     1      45.069  10.134   0.527  1.00  0.00    -0.393 OA
ATOM     14  H2  UNL     1      44.727  10.020   1.406  1.00  0.00     0.210 HD
ENDBRANCH   9  13
BRANCH   7  15
HETATM   15  C10 UNL     1      44.399  14.777   1.981  1.00  0.00     0.043 C 
BRANCH  15  16
HETATM   16  C11 UNL     1      45.404  15.364   2.911  1.00  0.00     0.200 C 
HETATM   17  C12 UNL     1      46.386  14.433   3.426  1.00  0.00     0.078 C 
HETATM   18  N2  UNL     1      47.154  13.678   3.845  1.00  0.00    -0.196 NA
HETATM   19  C13 UNL     1      44.762  16.184   3.915  1.00  0.00     0.078 C 
HETATM   20  N3  UNL     1      44.262  16.870   4.718  1.00  0.00    -0.196 NA
ENDBRANCH  15  16
ENDBRANCH   7  15
ENDBRANCH   3   4
TORSDOF 5
ENDMDL
MODEL 2
REMARK VINA RESULT: -6.580372173      3.535      5.894
REMARK  5 active torsions:
REMARK  status: ('A' for Active; 'I' for Inactive)
REMARK    1  A    between atoms: C2_3  and  C3_4 
REMARK    2  A    between atoms: C6_7  and  O1_8 
REMARK    3  A    between atoms: C7_10  and  O2_11 
REMARK    4  A    between atoms: C9_14  and  C10_15 
REMARK    5  A    between atoms: C10_15  and  C11_16 
ROOT
HETATM    1  N1  UNL     1      46.952   9.887   0.854  1.00  0.00    -0.197 NA
HETATM    2  C1  UNL     1      46.718  10.658   1.689  1.00  0.00     0.062 C 
HETATM    3  C2  UNL     1      46.396  11.634   2.748  1.00  0.00     0.151 C 
ENDROOT
BRANCH   3   4
HETATM    4  C3  UNL     1      45.696  12.821   2.153  1.00  0.00    -0.010 C 
HETATM    5  C4  UNL     1      45.911  14.072   2.535  1.00  0.00    -0.076 C 
HETATM    6  C5  UNL     1      46.908  14.272   3.617  1.00  0.00     0.068 C 
HETATM    7  C9  UNL     1      45.168  15.195   1.884  1.00  0.00     0.019 C 
HETATM    8  C6  UNL     1      47.020  15.651   4.148  1.00  0.00     0.151 C 
HETATM    9  C7  UNL     1      46.299  16.698   3.400  1.00  0.00     0.147 C 
HETATM   10  C8  UNL     1      44.908  16.234   2.904  1.00  0.00     0.043 C 
BRANCH   8  11
HETATM   11  O1  UNL     1      48.394  15.992   4.129  1.00  0.00    -0.393 OA
ATOM     12  H1  UNL     1      48.458  16.871   3.774  1.00  0.00     0.210 HD
ENDBRANCH   8  11
BRANCH   9  13
HETATM   13  O2  UNL     1      46.163  17.842   4.178  1.00  0.00    -0.393 OA
ATOM     14  H2  UNL     1      45.699  17.641   4.982  1.00  0.00     0.210 HD
ENDBRANCH   9  13
BRANCH   7  15
HETATM   15  C10 UNL     1      44.056  14.664   1.084  1.00  0.00     0.043 C 
BRANCH  15  16
HETATM   16  C11 UNL     1      44.044  14.913  -0.385  1.00  0.00     0.200 C 
HETATM   17  C12 UNL     1      44.782  13.955  -1.180  1.00  0.00     0.078 C 
HETATM   18  N2  UNL     1      45.389  13.194  -1.803  1.00  0.00    -0.196 NA
HETATM   19  C13 UNL     1      44.343  16.299  -0.676  1.00  0.00     0.078 C 
HETATM   20  N3  UNL     1      44.557  17.420  -0.928  1.00  0.00    -0.196 NA
ENDBRANCH  15  16
ENDBRANCH   7  15
ENDBRANCH   3   4
TORSDOF 5
ENDMDL
MODEL 3
REMARK VINA RESULT: -6.540503123      1.158      1.260
REMARK  5 active torsions:
REMARK  status: ('A' for Active; 'I' for Inactive)
REMARK    1  A    between atoms: C2_3  and  C3_4 
REMARK    2  A    between atoms: C6_7  and  O1_8 
REMARK    3  A    between atoms: C7_10  and  O2_11 
REMARK    4  A    between atoms: C9_14  and  C10_15 
REMARK    5  A    between atoms: C10_15  and  C11_16 
ROOT
HETATM    1  N1  UNL     1      45.227  17.813  -2.720  1.00  0.00    -0.197 NA
HETATM    2  C1  UNL     1      44.491  16.991  -2.359  1.00  0.00     0.062 C 
HETATM    3  C2  UNL     1      43.548  15.961  -1.882  1.00  0.00     0.151 C 
ENDROOT
BRANCH   3   4
HETATM    4  C3  UNL     1      43.983  15.453  -0.538  1.00  0.00    -0.010 C 
HETATM    5  C4  UNL     1      44.394  14.213  -0.316  1.00  0.00    -0.076 C 
HETATM    6  C5  UNL     1      44.409  13.301  -1.487  1.00  0.00     0.068 C 
HETATM    7  C9  UNL     1      44.812  13.793   1.058  1.00  0.00     0.019 C 
HETATM    8  C6  UNL     1      44.711  11.879  -1.198  1.00  0.00     0.151 C 
HETATM    9  C7  UNL     1      45.173  11.576   0.168  1.00  0.00     0.147 C 
HETATM   10  C8  UNL     1      44.417  12.382   1.253  1.00  0.00     0.043 C 
BRANCH   8  11
HETATM   11  O1  UNL     1      45.739  11.484  -2.087  1.00  0.00    -0.393 OA
ATOM     12  H1  UNL     1      45.497  10.632  -2.432  1.00  0.00     0.210 HD
ENDBRANCH   8  11
BRANCH   9  13
HETATM   13  O2  UNL     1      45.058  10.215   0.429  1.00  0.00    -0.393 OA
ATOM     14  H2  UNL     1      45.090  10.054   1.364  1.00  0.00     0.210 HD
ENDBRANCH   9  13
BRANCH   7  15
HETATM   15  C10 UNL     1      44.402  14.808   2.038  1.00  0.00     0.043 C 
BRANCH  15  16
HETATM   16  C11 UNL     1      45.423  15.356   2.975  1.00  0.00     0.200 C 
HETATM   17  C12 UNL     1      46.382  14.394   3.474  1.00  0.00     0.078 C 
HETATM   18  N2  UNL     1      47.132  13.614   3.881  1.00  0.00    -0.196 NA
HETATM   19  C13 UNL     1      44.802  16.176   3.993  1.00  0.00     0.078 C 
HETATM   20  N3  UNL     1      44.320  16.862   4.807  1.00  0.00    -0.196 NA
ENDBRANCH  15  16
ENDBRANCH   7  15
ENDBRANCH   3   4
TORSDOF 5
ENDMDL
MODEL 4
REMARK VINA RESULT: -6.496827580      2.990      4.217
REMARK  5 active torsions:
REMARK  status: ('A' for Active; 'I' for Inactive)
REMARK    1  A    between atoms: C2_3  and  C3_4 
REMARK    2  A    between atoms: C6_7  and  O1_8 
REMARK    3  A    between atoms: C7_10  and  O2_11 
REMARK    4  A    between atoms: C9_14  and  C10_15 
REMARK    5  A    between atoms: C10_15  and  C11_16 
ROOT
HETATM    1  N1  UNL     1      47.024  11.036   1.276  1.00  0.00    -0.197 NA
HETATM    2  C1  UNL     1      45.968  11.451   1.030  1.00  0.00     0.062 C 
HETATM    3  C2  UNL     1      44.637  11.997   0.703  1.00  0.00     0.151 C 
ENDROOT
BRANCH   3   4
HETATM    4  C3  UNL     1      44.494  13.377   1.277  1.00  0.00    -0.010 C 
HETATM    5  C4  UNL     1      44.360  14.471   0.542  1.00  0.00    -0.076 C 
HETATM    6  C5  UNL     1      44.355  14.283  -0.931  1.00  0.00     0.068 C 
HETATM    7  C9  UNL     1      44.221  15.807   1.200  1.00  0.00     0.019 C 
HETATM    8  C6  UNL     1      44.370  15.523  -1.743  1.00  0.00     0.151 C 
HETATM    9  C7  UNL     1      44.165  16.785  -1.009  1.00  0.00     0.147 C 
HETATM   10  C8  UNL     1      44.898  16.814   0.355  1.00  0.00     0.043 C 
BRANCH   8  11
HETATM   11  O1  UNL     1      43.322  15.411  -2.688  1.00  0.00    -0.393 OA
ATOM     12  H1  UNL     1      43.726  15.258  -3.535  1.00  0.00     0.210 HD
ENDBRANCH   8  11
BRANCH   9  13
HETATM   13  O2  UNL     1      44.569  17.866  -1.783  1.00  0.00    -0.393 OA
ATOM     14  H2  UNL     1      45.504  18.007  -1.691  1.00  0.00     0.210 HD
ENDBRANCH   9  13
BRANCH   7  15
HETATM   15  C10 UNL     1      44.563  15.702   2.625  1.00  0.00     0.043 C 
BRANCH  15  16
HETATM   16  C11 UNL     1      45.998  15.723   3.023  1.00  0.00     0.200 C 
HETATM   17  C12 UNL     1      46.491  14.502   3.624  1.00  0.00     0.078 C 
HETATM   18  N2  UNL     1      46.869  13.528   4.119  1.00  0.00    -0.196 NA
HETATM   19  C13 UNL     1      46.312  16.929   3.760  1.00  0.00     0.078 C 
HETATM   20  N3  UNL     1      46.588  17.909   4.334  1.00  0.00    -0.196 NA
ENDBRANCH  15  16
ENDBRANCH   7  15
ENDBRANCH   3   4
TORSDOF 5
ENDMDL
MODEL 5
REMARK VINA RESULT: -6.422963532      3.324      4.846
REMARK  5 active torsions:
REMARK  status: ('A' for Active; 'I' for Inactive)
REMARK    1  A    between atoms: C2_3  and  C3_4 
REMARK    2  A    between atoms: C6_7  and  O1_8 
REMARK    3  A    between atoms: C7_10  and  O2_11 
REMARK    4  A    between atoms: C9_14  and  C10_15 
REMARK    5  A    between atoms: C10_15  and  C11_16 
ROOT
HETATM    1  N1  UNL     1      42.565  15.743  -2.597  1.00  0.00    -0.197 NA
HETATM    2  C1  UNL     1      43.077  15.913  -1.569  1.00  0.00     0.062 C 
HETATM    3  C2  UNL     1      43.749  16.123  -0.272  1.00  0.00     0.151 C 
ENDROOT
BRANCH   3   4
HETATM    4  C3  UNL     1      44.270  14.816   0.251  1.00  0.00    -0.010 C 
HETATM    5  C4  UNL     1      44.742  14.648   1.478  1.00  0.00    -0.076 C 
HETATM    6  C5  UNL     1      44.741  15.844   2.357  1.00  0.00     0.068 C 
HETATM    7  C9  UNL     1      45.240  13.307   1.915  1.00  0.00     0.019 C 
HETATM    8  C6  UNL     1      45.420  15.688   3.666  1.00  0.00     0.151 C 
HETATM    9  C7  UNL     1      45.818  14.317   4.033  1.00  0.00     0.147 C 
HETATM   10  C8  UNL     1      46.379  13.511   2.836  1.00  0.00     0.043 C 
BRANCH   8  11
HETATM   11  O1  UNL     1      44.517  16.143   4.657  1.00  0.00    -0.393 OA
ATOM     12  H1  UNL     1      44.473  15.467   5.325  1.00  0.00     0.210 HD
ENDBRANCH   8  11
BRANCH   9  13
HETATM   13  O2  UNL     1      46.753  14.343   5.061  1.00  0.00    -0.393 OA
ATOM     14  H2  UNL     1      47.572  13.957   4.773  1.00  0.00     0.210 HD
ENDBRANCH   9  13
BRANCH   7  15
HETATM   15  C10 UNL     1      45.391  12.424   0.751  1.00  0.00     0.043 C 
BRANCH  15  16
HETATM   16  C11 UNL     1      45.210  10.956   0.932  1.00  0.00     0.200 C 
HETATM   17  C12 UNL     1      46.368  10.248   1.434  1.00  0.00     0.078 C 
HETATM   18  N2  UNL     1      47.305   9.691   1.818  1.00  0.00    -0.196 NA
HETATM   19  C13 UNL     1      44.597  10.364  -0.237  1.00  0.00     0.078 C 
HETATM   20  N3  UNL     1      44.081   9.872  -1.163  1.00  0.00    -0.196 NA
ENDBRANCH  15  16
ENDBRANCH   7  15
ENDBRANCH   3   4
TORSDOF 5
ENDMDL
