MODEL 1
REMARK VINA RESULT: -6.987943787      0.000      0.000
REMARK  14 active torsions:
REMARK  status: ('A' for Active; 'I' for Inactive)
REMARK    1  A    between atoms: O1_2  and  C2_3 
REMARK    2  A    between atoms: C2_3  and  C3_5 
REMARK    3  A    between atoms: C3_5  and  C4_6 
REMARK    4  A    between atoms: C5_7  and  O3_8 
REMARK    5  A    between atoms: C14_18  and  C15_19 
REMARK    6  A    between atoms: C15_19  and  C17_21 
REMARK    7  A    between atoms: C17_21  and  C18_22 
REMARK    8  A    between atoms: C18_22  and  C19_23 
REMARK    9  A    between atoms: C18_22  and  O6_31 
REMARK   10  A    between atoms: C20_24  and  C21_25 
REMARK   11  A    between atoms: C21_25  and  C22_26 
REMARK   12  A    between atoms: C21_25  and  O5_29 
REMARK   13  A    between atoms: C22_26  and  O4_27 
REMARK   14  A    between atoms: O6_31  and  C24_32 
ROOT
HETATM    1  C4  UNL     1      52.123  11.030  -1.347  1.00  0.00     0.037 C 
HETATM    2  C5  UNL     1      52.638   9.593  -1.571  1.00  0.00     0.127 C 
HETATM    3  C6  UNL     1      52.027   9.070  -2.804  1.00  0.00     0.067 C 
HETATM    4  C7  UNL     1      50.797   9.892  -2.969  1.00  0.00    -0.072 C 
HETATM    5  C8  UNL     1      49.657   9.717  -3.594  1.00  0.00    -0.023 C 
HETATM    6  C9  UNL     1      48.526  10.641  -3.660  1.00  0.00     0.033 C 
HETATM    7  C10 UNL     1      48.536  11.678  -2.570  1.00  0.00    -0.001 C 
HETATM    8  C11 UNL     1      47.264  11.780  -1.852  1.00  0.00    -0.001 C 
HETATM    9  C12 UNL     1      46.021  11.864  -2.652  1.00  0.00     0.006 C 
HETATM   10  C13 UNL     1      45.074  12.204  -1.483  1.00  0.00     0.006 C 
HETATM   11  C14 UNL     1      45.561  11.261  -0.362  1.00  0.00    -0.002 C 
HETATM   12  C25 UNL     1      46.923  10.781  -0.802  1.00  0.00    -0.036 C 
HETATM   13  C26 UNL     1      46.738   9.364  -1.254  1.00  0.00     0.016 C 
HETATM   14  C27 UNL     1      48.015  10.822   0.185  1.00  0.00     0.010 C 
HETATM   15  C28 UNL     1      49.342  10.488  -0.522  1.00  0.00     0.007 C 
HETATM   16  C29 UNL     1      49.666  11.500  -1.584  1.00  0.00     0.003 C 
HETATM   17  C30 UNL     1      50.975  11.208  -2.244  1.00  0.00    -0.010 C 
HETATM   18  C31 UNL     1      51.276  12.205  -3.359  1.00  0.00     0.021 C 
ENDROOT
BRANCH  11  19
HETATM   19  C15 UNL     1      45.478  12.005   0.896  1.00  0.00    -0.011 C 
HETATM   20  C16 UNL     1      44.651  11.338   1.975  1.00  0.00     0.010 C 
BRANCH  19  21
HETATM   21  C17 UNL     1      45.054  13.401   0.756  1.00  0.00     0.041 C 
BRANCH  21  22
HETATM   22  C18 UNL     1      44.507  14.190   1.868  1.00  0.00     0.155 C 
BRANCH  22  23
HETATM   23  C19 UNL     1      45.730  14.603   2.690  1.00  0.00     0.004 C 
HETATM   24  C20 UNL     1      45.526  15.167   3.867  1.00  0.00     0.005 C 
BRANCH  24  25
HETATM   25  C21 UNL     1      46.668  15.605   4.741  1.00  0.00     0.167 C 
BRANCH  25  26
HETATM   26  C22 UNL     1      46.590  17.082   5.064  1.00  0.00     0.200 C 
BRANCH  26  27
HETATM   27  O4  UNL     1      45.708  17.735   4.223  1.00  0.00    -0.398 OA
ATOM     28  H4  UNL     1      46.055  18.574   3.943  1.00  0.00     0.209 HD
ENDBRANCH  26  27
ENDBRANCH  25  26
BRANCH  25  29
HETATM   29  O5  UNL     1      47.867  15.247   4.174  1.00  0.00    -0.385 OA
HETATM   30  C23 UNL     1      48.764  16.308   4.192  1.00  0.00     0.202 C 
ENDBRANCH  25  29
ENDBRANCH  24  25
ENDBRANCH  22  23
BRANCH  22  31
HETATM   31  O6  UNL     1      43.706  15.279   1.653  1.00  0.00    -0.303 OA
BRANCH  31  32
HETATM   32  C24 UNL     1      44.027  16.307   0.805  1.00  0.00     0.334 C 
HETATM   33  O7  UNL     1      44.492  17.350   1.278  1.00  0.00    -0.251 OA
HETATM   34  S1  UNL     1      43.779  16.148  -0.937  1.00  0.00     0.022 SA
ENDBRANCH  31  32
ENDBRANCH  22  31
ENDBRANCH  21  22
ENDBRANCH  19  21
ENDBRANCH  11  19
BRANCH   1  35
HETATM   35  C3  UNL     1      53.343  11.886  -1.534  1.00  0.00     0.119 C 
BRANCH  35  36
HETATM   36  C2  UNL     1      53.902  12.541  -0.357  1.00  0.00     0.258 C 
HETATM   37  O2  UNL     1      54.783  12.035   0.344  1.00  0.00    -0.265 OA
BRANCH  36  38
HETATM   38  O1  UNL     1      53.430  13.794   0.004  1.00  0.00    -0.326 OA
HETATM   39  C1  UNL     1      52.904  14.699  -0.979  1.00  0.00     0.213 C 
ENDBRANCH  36  38
ENDBRANCH  35  36
ENDBRANCH   1  35
BRANCH   2  40
HETATM   40  O3  UNL     1      52.366   8.794  -0.438  1.00  0.00    -0.395 OA
ATOM     41  H3  UNL     1      53.010   8.099  -0.363  1.00  0.00     0.210 HD
ENDBRANCH   2  40
TORSDOF 14
ENDMDL
MODEL 2
REMARK VINA RESULT: -6.909212432      3.820      5.417
REMARK  14 active torsions:
REMARK  status: ('A' for Active; 'I' for Inactive)
REMARK    1  A    between atoms: O1_2  and  C2_3 
REMARK    2  A    between atoms: C2_3  and  C3_5 
REMARK    3  A    between atoms: C3_5  and  C4_6 
REMARK    4  A    between atoms: C5_7  and  O3_8 
REMARK    5  A    between atoms: C14_18  and  C15_19 
REMARK    6  A    between atoms: C15_19  and  C17_21 
REMARK    7  A    between atoms: C17_21  and  C18_22 
REMARK    8  A    between atoms: C18_22  and  C19_23 
REMARK    9  A    between atoms: C18_22  and  O6_31 
REMARK   10  A    between atoms: C20_24  and  C21_25 
REMARK   11  A    between atoms: C21_25  and  C22_26 
REMARK   12  A    between atoms: C21_25  and  O5_29 
REMARK   13  A    between atoms: C22_26  and  O4_27 
REMARK   14  A    between atoms: O6_31  and  C24_32 
ROOT
HETATM    1  C4  UNL     1      50.531   7.001   2.889  1.00  0.00     0.037 C 
HETATM    2  C5  UNL     1      49.950   5.589   3.108  1.00  0.00     0.127 C 
HETATM    3  C6  UNL     1      49.555   5.044   1.799  1.00  0.00     0.067 C 
HETATM    4  C7  UNL     1      49.355   6.254   0.955  1.00  0.00    -0.072 C 
HETATM    5  C8  UNL     1      48.667   6.507  -0.133  1.00  0.00    -0.023 C 
HETATM    6  C9  UNL     1      48.574   7.776  -0.854  1.00  0.00     0.033 C 
HETATM    7  C10 UNL     1      48.969   8.966  -0.023  1.00  0.00    -0.001 C 
HETATM    8  C11 UNL     1      47.983  10.048  -0.052  1.00  0.00    -0.001 C 
HETATM    9  C12 UNL     1      47.457  10.472  -1.369  1.00  0.00     0.006 C 
HETATM   10  C13 UNL     1      46.715  11.731  -0.873  1.00  0.00     0.006 C 
HETATM   11  C14 UNL     1      46.054  11.246   0.435  1.00  0.00    -0.002 C 
HETATM   12  C25 UNL     1      46.756   9.957   0.788  1.00  0.00    -0.036 C 
HETATM   13  C26 UNL     1      45.794   8.856   0.459  1.00  0.00     0.016 C 
HETATM   14  C27 UNL     1      47.213   9.785   2.177  1.00  0.00     0.010 C 
HETATM   15  C28 UNL     1      48.072   8.509   2.268  1.00  0.00     0.007 C 
HETATM   16  C29 UNL     1      49.299   8.615   1.408  1.00  0.00     0.003 C 
HETATM   17  C30 UNL     1      50.162   7.400   1.525  1.00  0.00    -0.010 C 
HETATM   18  C31 UNL     1      51.379   7.485   0.610  1.00  0.00     0.021 C 
ENDROOT
BRANCH  11  19
HETATM   19  C15 UNL     1      46.136  12.348   1.395  1.00  0.00    -0.011 C 
HETATM   20  C16 UNL     1      46.729  11.976   2.738  1.00  0.00     0.010 C 
BRANCH  19  21
HETATM   21  C17 UNL     1      44.881  13.074   1.605  1.00  0.00     0.041 C 
BRANCH  21  22
HETATM   22  C18 UNL     1      44.781  14.538   1.548  1.00  0.00     0.155 C 
BRANCH  22  23
HETATM   23  C19 UNL     1      44.224  14.836   0.155  1.00  0.00     0.004 C 
HETATM   24  C20 UNL     1      44.205  16.093  -0.251  1.00  0.00     0.005 C 
BRANCH  24  25
HETATM   25  C21 UNL     1      43.675  16.477  -1.605  1.00  0.00     0.167 C 
BRANCH  25  26
HETATM   26  C22 UNL     1      42.677  15.463  -2.123  1.00  0.00     0.200 C 
BRANCH  26  27
HETATM   27  O4  UNL     1      41.377  15.881  -1.910  1.00  0.00    -0.398 OA
ATOM     28  H4  UNL     1      40.956  16.130  -2.724  1.00  0.00     0.209 HD
ENDBRANCH  26  27
ENDBRANCH  25  26
BRANCH  25  29
HETATM   29  O5  UNL     1      44.712  16.697  -2.479  1.00  0.00    -0.385 OA
HETATM   30  C23 UNL     1      44.954  18.055  -2.636  1.00  0.00     0.202 C 
ENDBRANCH  25  29
ENDBRANCH  24  25
ENDBRANCH  22  23
BRANCH  22  31
HETATM   31  O6  UNL     1      44.082  15.250   2.486  1.00  0.00    -0.303 OA
BRANCH  31  32
HETATM   32  C24 UNL     1      44.670  16.018   3.456  1.00  0.00     0.334 C 
HETATM   33  O7  UNL     1      44.189  16.017   4.595  1.00  0.00    -0.251 OA
HETATM   34  S1  UNL     1      46.093  16.999   3.089  1.00  0.00     0.022 SA
ENDBRANCH  31  32
ENDBRANCH  22  31
ENDBRANCH  21  22
ENDBRANCH  19  21
ENDBRANCH  11  19
BRANCH   1  35
HETATM   35  C3  UNL     1      51.983   6.856   3.246  1.00  0.00     0.119 C 
BRANCH  35  36
HETATM   36  C2  UNL     1      52.352   6.957   4.653  1.00  0.00     0.258 C 
HETATM   37  O2  UNL     1      52.777   7.995   5.168  1.00  0.00    -0.265 OA
BRANCH  36  38
HETATM   38  O1  UNL     1      52.224   5.838   5.464  1.00  0.00    -0.326 OA
HETATM   39  C1  UNL     1      52.916   4.618   5.156  1.00  0.00     0.213 C 
ENDBRANCH  36  38
ENDBRANCH  35  36
ENDBRANCH   1  35
BRANCH   2  40
HETATM   40  O3  UNL     1      48.883   5.637   4.032  1.00  0.00    -0.395 OA
ATOM     41  H3  UNL     1      48.168   5.084   3.739  1.00  0.00     0.210 HD
ENDBRANCH   2  40
TORSDOF 14
ENDMDL
MODEL 3
REMARK VINA RESULT: -6.870856570      2.507      4.326
REMARK  14 active torsions:
REMARK  status: ('A' for Active; 'I' for Inactive)
REMARK    1  A    between atoms: O1_2  and  C2_3 
REMARK    2  A    between atoms: C2_3  and  C3_5 
REMARK    3  A    between atoms: C3_5  and  C4_6 
REMARK    4  A    between atoms: C5_7  and  O3_8 
REMARK    5  A    between atoms: C14_18  and  C15_19 
REMARK    6  A    between atoms: C15_19  and  C17_21 
REMARK    7  A    between atoms: C17_21  and  C18_22 
REMARK    8  A    between atoms: C18_22  and  C19_23 
REMARK    9  A    between atoms: C18_22  and  O6_31 
REMARK   10  A    between atoms: C20_24  and  C21_25 
REMARK   11  A    between atoms: C21_25  and  C22_26 
REMARK   12  A    between atoms: C21_25  and  O5_29 
REMARK   13  A    between atoms: C22_26  and  O4_27 
REMARK   14  A    between atoms: O6_31  and  C24_32 
ROOT
HETATM    1  C4  UNL     1      50.136  10.273  -3.227  1.00  0.00     0.037 C 
HETATM    2  C5  UNL     1      51.156   9.159  -2.913  1.00  0.00     0.127 C 
HETATM    3  C6  UNL     1      50.418   7.899  -2.721  1.00  0.00     0.067 C 
HETATM    4  C7  UNL     1      49.045   8.342  -2.354  1.00  0.00    -0.072 C 
HETATM    5  C8  UNL     1      48.047   7.786  -1.709  1.00  0.00    -0.023 C 
HETATM    6  C9  UNL     1      46.735   8.368  -1.426  1.00  0.00     0.033 C 
HETATM    7  C10 UNL     1      46.712   9.868  -1.527  1.00  0.00    -0.001 C 
HETATM    8  C11 UNL     1      46.120  10.521  -0.357  1.00  0.00    -0.001 C 
HETATM    9  C12 UNL     1      44.828  10.003   0.146  1.00  0.00     0.006 C 
HETATM   10  C13 UNL     1      44.551  11.143   1.147  1.00  0.00     0.006 C 
HETATM   11  C14 UNL     1      45.934  11.374   1.794  1.00  0.00    -0.002 C 
HETATM   12  C25 UNL     1      46.924  10.687   0.885  1.00  0.00    -0.036 C 
HETATM   13  C26 UNL     1      47.337   9.433   1.594  1.00  0.00     0.016 C 
HETATM   14  C27 UNL     1      48.134  11.433   0.503  1.00  0.00     0.010 C 
HETATM   15  C28 UNL     1      48.895  10.637  -0.575  1.00  0.00     0.007 C 
HETATM   16  C29 UNL     1      48.065  10.471  -1.817  1.00  0.00     0.003 C 
HETATM   17  C30 UNL     1      48.812   9.739  -2.885  1.00  0.00    -0.010 C 
HETATM   18  C31 UNL     1      47.950   9.523  -4.126  1.00  0.00     0.021 C 
ENDROOT
BRANCH  11  19
HETATM   19  C15 UNL     1      46.082  12.817   1.991  1.00  0.00    -0.011 C 
HETATM   20  C16 UNL     1      46.687  13.216   3.322  1.00  0.00     0.010 C 
BRANCH  19  21
HETATM   21  C17 UNL     1      44.864  13.598   1.761  1.00  0.00     0.041 C 
BRANCH  21  22
HETATM   22  C18 UNL     1      44.804  15.057   1.914  1.00  0.00     0.155 C 
BRANCH  22  23
HETATM   23  C19 UNL     1      44.155  15.557   0.621  1.00  0.00     0.004 C 
HETATM   24  C20 UNL     1      44.194  14.769  -0.439  1.00  0.00     0.005 C 
BRANCH  24  25
HETATM   25  C21 UNL     1      43.584  15.179  -1.750  1.00  0.00     0.167 C 
BRANCH  25  26
HETATM   26  C22 UNL     1      44.563  15.959  -2.603  1.00  0.00     0.200 C 
BRANCH  26  27
HETATM   27  O4  UNL     1      45.599  15.156  -3.041  1.00  0.00    -0.398 OA
ATOM     28  H4  UNL     1      46.134  14.856  -2.316  1.00  0.00     0.209 HD
ENDBRANCH  26  27
ENDBRANCH  25  26
BRANCH  25  29
HETATM   29  O5  UNL     1      42.408  15.857  -1.537  1.00  0.00    -0.385 OA
HETATM   30  C23 UNL     1      41.618  15.858  -2.680  1.00  0.00     0.202 C 
ENDBRANCH  25  29
ENDBRANCH  24  25
ENDBRANCH  22  23
BRANCH  22  31
HETATM   31  O6  UNL     1      44.197  15.644   2.992  1.00  0.00    -0.303 OA
BRANCH  31  32
HETATM   32  C24 UNL     1      44.833  16.495   3.856  1.00  0.00     0.334 C 
HETATM   33  O7  UNL     1      44.242  16.863   4.878  1.00  0.00    -0.251 OA
HETATM   34  S1  UNL     1      46.472  17.063   3.518  1.00  0.00     0.022 SA
ENDBRANCH  31  32
ENDBRANCH  22  31
ENDBRANCH  21  22
ENDBRANCH  19  21
ENDBRANCH  11  19
BRANCH   1  35
HETATM   35  C3  UNL     1      50.434  10.647  -4.651  1.00  0.00     0.119 C 
BRANCH  35  36
HETATM   36  C2  UNL     1      50.479  12.064  -4.988  1.00  0.00     0.258 C 
HETATM   37  O2  UNL     1      51.527  12.713  -5.048  1.00  0.00    -0.265 OA
BRANCH  36  38
HETATM   38  O1  UNL     1      49.291  12.730  -5.258  1.00  0.00    -0.326 OA
HETATM   39  C1  UNL     1      48.605  13.464  -4.233  1.00  0.00     0.213 C 
ENDBRANCH  36  38
ENDBRANCH  35  36
ENDBRANCH   1  35
BRANCH   2  40
HETATM   40  O3  UNL     1      51.940   9.515  -1.793  1.00  0.00    -0.395 OA
ATOM     41  H3  UNL     1      52.679   8.924  -1.707  1.00  0.00     0.210 HD
ENDBRANCH   2  40
TORSDOF 14
ENDMDL
MODEL 4
REMARK VINA RESULT: -6.802176937      2.036      3.463
REMARK  14 active torsions:
REMARK  status: ('A' for Active; 'I' for Inactive)
REMARK    1  A    between atoms: O1_2  and  C2_3 
REMARK    2  A    between atoms: C2_3  and  C3_5 
REMARK    3  A    between atoms: C3_5  and  C4_6 
REMARK    4  A    between atoms: C5_7  and  O3_8 
REMARK    5  A    between atoms: C14_18  and  C15_19 
REMARK    6  A    between atoms: C15_19  and  C17_21 
REMARK    7  A    between atoms: C17_21  and  C18_22 
REMARK    8  A    between atoms: C18_22  and  C19_23 
REMARK    9  A    between atoms: C18_22  and  O6_31 
REMARK   10  A    between atoms: C20_24  and  C21_25 
REMARK   11  A    between atoms: C21_25  and  C22_26 
REMARK   12  A    between atoms: C21_25  and  O5_29 
REMARK   13  A    between atoms: C22_26  and  O4_27 
REMARK   14  A    between atoms: O6_31  and  C24_32 
ROOT
HETATM    1  C4  UNL     1      51.443  10.037  -1.526  1.00  0.00     0.037 C 
HETATM    2  C5  UNL     1      51.847   8.573  -1.253  1.00  0.00     0.127 C 
HETATM    3  C6  UNL     1      50.943   7.695  -2.015  1.00  0.00     0.067 C 
HETATM    4  C7  UNL     1      49.734   8.535  -2.237  1.00  0.00    -0.072 C 
HETATM    5  C8  UNL     1      48.473   8.275  -2.488  1.00  0.00    -0.023 C 
HETATM    6  C9  UNL     1      47.388   9.234  -2.684  1.00  0.00     0.033 C 
HETATM    7  C10 UNL     1      47.689  10.600  -2.132  1.00  0.00    -0.001 C 
HETATM    8  C11 UNL     1      46.629  11.127  -1.269  1.00  0.00    -0.001 C 
HETATM    9  C12 UNL     1      45.234  11.049  -1.758  1.00  0.00     0.006 C 
HETATM   10  C13 UNL     1      44.605  11.926  -0.657  1.00  0.00     0.006 C 
HETATM   11  C14 UNL     1      45.318  11.434   0.622  1.00  0.00    -0.002 C 
HETATM   12  C25 UNL     1      46.520  10.659   0.140  1.00  0.00    -0.036 C 
HETATM   13  C26 UNL     1      46.190   9.211   0.346  1.00  0.00     0.016 C 
HETATM   14  C27 UNL     1      47.817  10.941   0.776  1.00  0.00     0.010 C 
HETATM   15  C28 UNL     1      48.927  10.200   0.006  1.00  0.00     0.007 C 
HETATM   16  C29 UNL     1      49.016  10.678  -1.416  1.00  0.00     0.003 C 
HETATM   17  C30 UNL     1      50.120   9.996  -2.158  1.00  0.00    -0.010 C 
HETATM   18  C31 UNL     1      50.175  10.442  -3.617  1.00  0.00     0.021 C 
ENDROOT
BRANCH  11  19
HETATM   19  C15 UNL     1      45.561  12.610   1.460  1.00  0.00    -0.011 C 
HETATM   20  C16 UNL     1      45.933  12.299   2.895  1.00  0.00     0.010 C 
BRANCH  19  21
HETATM   21  C17 UNL     1      44.489  13.608   1.443  1.00  0.00     0.041 C 
BRANCH  21  22
HETATM   22  C18 UNL     1      44.654  14.974   1.958  1.00  0.00     0.155 C 
BRANCH  22  23
HETATM   23  C19 UNL     1      44.137  15.877   0.837  1.00  0.00     0.004 C 
HETATM   24  C20 UNL     1      44.144  15.403  -0.396  1.00  0.00     0.005 C 
BRANCH  24  25
HETATM   25  C21 UNL     1      43.656  16.222  -1.559  1.00  0.00     0.167 C 
BRANCH  25  26
HETATM   26  C22 UNL     1      42.568  15.504  -2.330  1.00  0.00     0.200 C 
BRANCH  26  27
HETATM   27  O4  UNL     1      41.311  15.931  -1.943  1.00  0.00    -0.398 OA
ATOM     28  H4  UNL     1      41.123  15.684  -1.046  1.00  0.00     0.209 HD
ENDBRANCH  26  27
ENDBRANCH  25  26
BRANCH  25  29
HETATM   29  O5  UNL     1      44.711  16.598  -2.354  1.00  0.00    -0.385 OA
HETATM   30  C23 UNL     1      44.616  17.937  -2.709  1.00  0.00     0.202 C 
ENDBRANCH  25  29
ENDBRANCH  24  25
ENDBRANCH  22  23
BRANCH  22  31
HETATM   31  O6  UNL     1      44.111  15.364   3.153  1.00  0.00    -0.303 OA
BRANCH  31  32
HETATM   32  C24 UNL     1      44.805  16.038   4.123  1.00  0.00     0.334 C 
HETATM   33  O7  UNL     1      44.206  16.859   4.827  1.00  0.00    -0.251 OA
HETATM   34  S1  UNL     1      46.530  15.741   4.368  1.00  0.00     0.022 SA
ENDBRANCH  31  32
ENDBRANCH  22  31
ENDBRANCH  21  22
ENDBRANCH  19  21
ENDBRANCH  11  19
BRANCH   1  35
HETATM   35  C3  UNL     1      52.608  10.598  -2.290  1.00  0.00     0.119 C 
BRANCH  35  36
HETATM   36  C2  UNL     1      53.878  10.743  -1.588  1.00  0.00     0.258 C 
HETATM   37  O2  UNL     1      54.932  10.241  -1.986  1.00  0.00    -0.265 OA
BRANCH  36  38
HETATM   38  O1  UNL     1      53.917  11.480  -0.413  1.00  0.00    -0.326 OA
HETATM   39  C1  UNL     1      53.832  12.913  -0.434  1.00  0.00     0.213 C 
ENDBRANCH  36  38
ENDBRANCH  35  36
ENDBRANCH   1  35
BRANCH   2  40
HETATM   40  O3  UNL     1      51.831   8.312   0.135  1.00  0.00    -0.395 OA
ATOM     41  H3  UNL     1      51.131   7.705   0.348  1.00  0.00     0.210 HD
ENDBRANCH   2  40
TORSDOF 14
ENDMDL
MODEL 5
REMARK VINA RESULT: -6.660879469      4.453      7.895
REMARK  14 active torsions:
REMARK  status: ('A' for Active; 'I' for Inactive)
REMARK    1  A    between atoms: O1_2  and  C2_3 
REMARK    2  A    between atoms: C2_3  and  C3_5 
REMARK    3  A    between atoms: C3_5  and  C4_6 
REMARK    4  A    between atoms: C5_7  and  O3_8 
REMARK    5  A    between atoms: C14_18  and  C15_19 
REMARK    6  A    between atoms: C15_19  and  C17_21 
REMARK    7  A    between atoms: C17_21  and  C18_22 
REMARK    8  A    between atoms: C18_22  and  C19_23 
REMARK    9  A    between atoms: C18_22  and  O6_31 
REMARK   10  A    between atoms: C20_24  and  C21_25 
REMARK   11  A    between atoms: C21_25  and  C22_26 
REMARK   12  A    between atoms: C21_25  and  O5_29 
REMARK   13  A    between atoms: C22_26  and  O4_27 
REMARK   14  A    between atoms: O6_31  and  C24_32 
ROOT
HETATM    1  C4  UNL     1      41.938   9.484  -3.299  1.00  0.00     0.037 C 
HETATM    2  C5  UNL     1      42.197   9.851  -4.775  1.00  0.00     0.127 C 
HETATM    3  C6  UNL     1      43.442   9.191  -5.203  1.00  0.00     0.067 C 
HETATM    4  C7  UNL     1      44.175   8.951  -3.930  1.00  0.00    -0.072 C 
HETATM    5  C8  UNL     1      45.436   8.768  -3.621  1.00  0.00    -0.023 C 
HETATM    6  C9  UNL     1      46.004   8.540  -2.293  1.00  0.00     0.033 C 
HETATM    7  C10 UNL     1      45.101   8.975  -1.173  1.00  0.00    -0.001 C 
HETATM    8  C11 UNL     1      45.765   9.835  -0.191  1.00  0.00    -0.001 C 
HETATM    9  C12 UNL     1      47.083   9.405   0.328  1.00  0.00     0.006 C 
HETATM   10  C13 UNL     1      47.191  10.460   1.449  1.00  0.00     0.006 C 
HETATM   11  C14 UNL     1      46.682  11.744   0.760  1.00  0.00    -0.002 C 
HETATM   12  C25 UNL     1      45.974  11.279  -0.490  1.00  0.00    -0.036 C 
HETATM   13  C26 UNL     1      46.888  11.605  -1.631  1.00  0.00     0.016 C 
HETATM   14  C27 UNL     1      44.645  11.844  -0.774  1.00  0.00     0.010 C 
HETATM   15  C28 UNL     1      44.024  11.091  -1.966  1.00  0.00     0.007 C 
HETATM   16  C29 UNL     1      43.829   9.634  -1.650  1.00  0.00     0.003 C 
HETATM   17  C30 UNL     1      43.186   8.905  -2.786  1.00  0.00    -0.010 C 
HETATM   18  C31 UNL     1      43.038   7.417  -2.485  1.00  0.00     0.021 C 
ENDROOT
BRANCH  11  19
HETATM   19  C15 UNL     1      45.895  12.482   1.749  1.00  0.00    -0.011 C 
HETATM   20  C16 UNL     1      45.233  11.619   2.804  1.00  0.00     0.010 C 
BRANCH  19  21
HETATM   21  C17 UNL     1      44.904  13.402   1.185  1.00  0.00     0.041 C 
BRANCH  21  22
HETATM   22  C18 UNL     1      44.782  14.805   1.600  1.00  0.00     0.155 C 
BRANCH  22  23
HETATM   23  C19 UNL     1      44.038  15.487   0.449  1.00  0.00     0.004 C 
HETATM   24  C20 UNL     1      44.182  14.989  -0.766  1.00  0.00     0.005 C 
BRANCH  24  25
HETATM   25  C21 UNL     1      43.489  15.595  -1.954  1.00  0.00     0.167 C 
BRANCH  25  26
HETATM   26  C22 UNL     1      44.363  16.620  -2.647  1.00  0.00     0.200 C 
BRANCH  26  27
HETATM   27  O4  UNL     1      44.498  17.765  -1.884  1.00  0.00    -0.398 OA
ATOM     28  H4  UNL     1      44.726  18.514  -2.423  1.00  0.00     0.209 HD
ENDBRANCH  26  27
ENDBRANCH  25  26
BRANCH  25  29
HETATM   29  O5  UNL     1      42.266  16.101  -1.587  1.00  0.00    -0.385 OA
HETATM   30  C23 UNL     1      41.367  16.053  -2.645  1.00  0.00     0.202 C 
ENDBRANCH  25  29
ENDBRANCH  24  25
ENDBRANCH  22  23
BRANCH  22  31
HETATM   31  O6  UNL     1      44.209  15.157   2.792  1.00  0.00    -0.303 OA
BRANCH  31  32
HETATM   32  C24 UNL     1      44.811  15.967   3.719  1.00  0.00     0.334 C 
HETATM   33  O7  UNL     1      44.258  16.141   4.811  1.00  0.00    -0.251 OA
HETATM   34  S1  UNL     1      46.352  16.754   3.362  1.00  0.00     0.022 SA
ENDBRANCH  31  32
ENDBRANCH  22  31
ENDBRANCH  21  22
ENDBRANCH  19  21
ENDBRANCH  11  19
BRANCH   1  35
HETATM   35  C3  UNL     1      40.699   8.637  -3.348  1.00  0.00     0.119 C 
BRANCH  35  36
HETATM   36  C2  UNL     1      39.465   9.205  -2.817  1.00  0.00     0.258 C 
HETATM   37  O2  UNL     1      39.233  10.416  -2.793  1.00  0.00    -0.265 OA
BRANCH  36  38
HETATM   38  O1  UNL     1      38.495   8.351  -2.310  1.00  0.00    -0.326 OA
HETATM   39  C1  UNL     1      37.908   7.329  -3.129  1.00  0.00     0.213 C 
ENDBRANCH  36  38
ENDBRANCH  35  36
ENDBRANCH   1  35
BRANCH   2  40
HETATM   40  O3  UNL     1      42.234  11.255  -4.931  1.00  0.00    -0.395 OA
ATOM     41  H3  UNL     1      42.869  11.496  -5.596  1.00  0.00     0.210 HD
ENDBRANCH   2  40
TORSDOF 14
ENDMDL
