MODEL 1
REMARK VINA RESULT: -5.464912648      0.000      0.000
REMARK  6 active torsions:
REMARK  status: ('A' for Active; 'I' for Inactive)
REMARK    1  A    between atoms: C2_3  and  N2_4 
REMARK    2  A    between atoms: C3_11  and  N5_12 
REMARK    3  A    between atoms: N5_12  and  C4_14 
REMARK    4  A    between atoms: C4_14  and  O1_15 
REMARK    5  A    between atoms: C4_14  and  N6_17 
REMARK    6  A    between atoms: N6_17  and  N7_19 
ROOT
HETATM    1  C1  UNL     1      -0.223 101.633   4.376  1.00  0.00     0.179 C 
HETATM    2  N1  UNL     1       0.787 100.812   5.056  1.00  0.00    -0.148 N 
HETATM    3  C2  UNL     1       0.489  99.595   5.523  1.00  0.00     0.695 A 
HETATM    4  N3  UNL     1       1.478  98.891   6.142  1.00  0.00    -0.130 N 
ATOM      5  H3  UNL     1       1.276  97.960   6.507  1.00  0.00     0.205 HD
HETATM    6  N4  UNL     1       2.682  99.389   6.276  1.00  0.00    -0.267 N 
ATOM      7  H4  UNL     1       3.391  98.828   6.746  1.00  0.00     0.189 HD
HETATM    8  C3  UNL     1       3.023 100.604   5.824  1.00  0.00     0.193 A 
HETATM    9  C5  UNL     1       2.011 101.345   5.180  1.00  0.00     0.307 A 
HETATM   10  O2  UNL     1       2.293 102.489   4.740  1.00  0.00    -0.263 OA
ENDROOT
BRANCH   8  11
HETATM   11  N5  UNL     1       4.279 101.210   5.923  1.00  0.00    -0.301 N 
ATOM     12  H5  UNL     1       4.859 101.183   5.085  1.00  0.00     0.171 HD
BRANCH  11  13
HETATM   13  C4  UNL     1       4.833 101.852   7.043  1.00  0.00     0.237 C 
BRANCH  13  14
HETATM   14  O1  UNL     1       4.505 101.448   8.236  1.00  0.00    -0.331 OA
ATOM     15  H1  UNL     1       5.183 101.133   8.823  1.00  0.00     0.221 HD
ENDBRANCH  13  14
BRANCH  13  16
HETATM   16  N6  UNL     1       5.735 102.924   6.953  1.00  0.00    -0.272 N 
ATOM     17  H6  UNL     1       6.690 102.847   7.302  1.00  0.00     0.190 HD
BRANCH  16  18
HETATM   18  N7  UNL     1       5.256 104.131   6.348  1.00  0.00    -0.342 N 
ATOM     19  H72 UNL     1       4.268 104.236   6.114  1.00  0.00     0.176 HD
ATOM     20  H71 UNL     1       5.941 104.865   6.169  1.00  0.00     0.176 HD
ENDBRANCH  16  18
ENDBRANCH  13  16
ENDBRANCH  11  13
ENDBRANCH   8  11
BRANCH   3  21
HETATM   21  N2  UNL     1      -0.707  99.141   5.371  1.00  0.00    -0.233 N 
ATOM     22  H22 UNL     1      -1.473  99.372   6.004  1.00  0.00     0.174 HD
ATOM     23  H21 UNL     1      -0.906  98.523   4.585  1.00  0.00     0.174 HD
ENDBRANCH   3  21
TORSDOF 6
ENDMDL
MODEL 2
REMARK VINA RESULT: -5.310426646      1.443      1.560
REMARK  6 active torsions:
REMARK  status: ('A' for Active; 'I' for Inactive)
REMARK    1  A    between atoms: C2_3  and  N2_4 
REMARK    2  A    between atoms: C3_11  and  N5_12 
REMARK    3  A    between atoms: N5_12  and  C4_14 
REMARK    4  A    between atoms: C4_14  and  O1_15 
REMARK    5  A    between atoms: C4_14  and  N6_17 
REMARK    6  A    between atoms: N6_17  and  N7_19 
ROOT
HETATM    1  C1  UNL     1      -0.335 100.767   4.800  1.00  0.00     0.179 C 
HETATM    2  N1  UNL     1       1.054 100.566   5.235  1.00  0.00    -0.148 N 
HETATM    3  C2  UNL     1       1.436  99.428   5.824  1.00  0.00     0.695 A 
HETATM    4  N3  UNL     1       2.740  99.312   6.199  1.00  0.00    -0.130 N 
ATOM      5  H3  UNL     1       3.057  98.453   6.651  1.00  0.00     0.205 HD
HETATM    6  N4  UNL     1       3.593 100.283   5.991  1.00  0.00    -0.267 N 
ATOM      7  H4  UNL     1       4.560 100.154   6.289  1.00  0.00     0.189 HD
HETATM    8  C3  UNL     1       3.253 101.440   5.406  1.00  0.00     0.193 A 
HETATM    9  C5  UNL     1       1.906 101.575   5.010  1.00  0.00     0.307 A 
HETATM   10  O2  UNL     1       1.549 102.646   4.456  1.00  0.00    -0.263 OA
ENDROOT
BRANCH   8  11
HETATM   11  N5  UNL     1       4.096 102.524   5.145  1.00  0.00    -0.301 N 
ATOM     12  H5  UNL     1       4.145 102.834   4.175  1.00  0.00     0.171 HD
BRANCH  11  13
HETATM   13  C4  UNL     1       4.883 103.237   6.066  1.00  0.00     0.237 C 
BRANCH  13  14
HETATM   14  O1  UNL     1       4.896 104.538   6.019  1.00  0.00    -0.331 OA
ATOM     15  H1  UNL     1       4.572 105.033   6.763  1.00  0.00     0.221 HD
ENDBRANCH  13  14
BRANCH  13  16
HETATM   16  N6  UNL     1       5.672 102.621   7.049  1.00  0.00    -0.272 N 
ATOM     17  H6  UNL     1       5.456 101.686   7.396  1.00  0.00     0.190 HD
BRANCH  16  18
HETATM   18  N7  UNL     1       6.794 103.361   7.545  1.00  0.00    -0.342 N 
ATOM     19  H72 UNL     1       6.763 104.379   7.590  1.00  0.00     0.176 HD
ATOM     20  H71 UNL     1       7.609 102.824   7.845  1.00  0.00     0.176 HD
ENDBRANCH  16  18
ENDBRANCH  13  16
ENDBRANCH  11  13
ENDBRANCH   8  11
BRANCH   3  21
HETATM   21  N2  UNL     1       0.565  98.496   6.010  1.00  0.00    -0.233 N 
ATOM     22  H22 UNL     1      -0.194  98.572   6.687  1.00  0.00     0.174 HD
ATOM     23  H21 UNL     1       0.630  97.640   5.460  1.00  0.00     0.174 HD
ENDBRANCH   3  21
TORSDOF 6
ENDMDL
MODEL 3
REMARK VINA RESULT: -5.204965691      2.157      3.228
REMARK  6 active torsions:
REMARK  status: ('A' for Active; 'I' for Inactive)
REMARK    1  A    between atoms: C2_3  and  N2_4 
REMARK    2  A    between atoms: C3_11  and  N5_12 
REMARK    3  A    between atoms: N5_12  and  C4_14 
REMARK    4  A    between atoms: C4_14  and  O1_15 
REMARK    5  A    between atoms: C4_14  and  N6_17 
REMARK    6  A    between atoms: N6_17  and  N7_19 
ROOT
HETATM    1  C1  UNL     1       4.706  96.758   5.326  1.00  0.00     0.179 C 
HETATM    2  N1  UNL     1       3.968  98.024   5.425  1.00  0.00    -0.148 N 
HETATM    3  C2  UNL     1       2.691  98.112   5.037  1.00  0.00     0.695 A 
HETATM    4  N3  UNL     1       2.071  99.318   5.158  1.00  0.00    -0.130 N 
ATOM      5  H3  UNL     1       1.097  99.411   4.870  1.00  0.00     0.205 HD
HETATM    6  N4  UNL     1       2.703 100.360   5.638  1.00  0.00    -0.267 N 
ATOM      7  H4  UNL     1       2.200 101.244   5.711  1.00  0.00     0.189 HD
HETATM    8  C3  UNL     1       3.982 100.317   6.037  1.00  0.00     0.193 A 
HETATM    9  C5  UNL     1       4.639  99.074   5.918  1.00  0.00     0.307 A 
HETATM   10  O2  UNL     1       5.840  98.994   6.284  1.00  0.00    -0.263 OA
ENDROOT
BRANCH   8  11
HETATM   11  N5  UNL     1       4.731 101.375   6.559  1.00  0.00    -0.301 N 
ATOM     12  H5  UNL     1       5.550 101.119   7.110  1.00  0.00     0.171 HD
BRANCH  11  13
HETATM   13  C4  UNL     1       4.485 102.752   6.413  1.00  0.00     0.237 C 
BRANCH  13  14
HETATM   14  O1  UNL     1       3.279 103.158   6.143  1.00  0.00    -0.331 OA
ATOM     15  H1  UNL     1       2.971 103.977   6.513  1.00  0.00     0.221 HD
ENDBRANCH  13  14
BRANCH  13  16
HETATM   16  N6  UNL     1       5.481 103.732   6.540  1.00  0.00    -0.272 N 
ATOM     17  H6  UNL     1       5.360 104.668   6.152  1.00  0.00     0.190 HD
BRANCH  16  18
HETATM   18  N7  UNL     1       6.676 103.363   7.240  1.00  0.00    -0.342 N 
ATOM     19  H72 UNL     1       7.497 103.040   6.727  1.00  0.00     0.176 HD
ATOM     20  H71 UNL     1       6.661 103.439   8.257  1.00  0.00     0.176 HD
ENDBRANCH  16  18
ENDBRANCH  13  16
ENDBRANCH  11  13
ENDBRANCH   8  11
BRANCH   3  21
HETATM   21  N2  UNL     1       2.105  97.063   4.571  1.00  0.00    -0.233 N 
ATOM     22  H22 UNL     1       2.070  96.176   5.073  1.00  0.00     0.174 HD
ATOM     23  H21 UNL     1       1.652  97.114   3.658  1.00  0.00     0.174 HD
ENDBRANCH   3  21
TORSDOF 6
ENDMDL
MODEL 4
REMARK VINA RESULT: -5.084727078      1.479      2.138
REMARK  6 active torsions:
REMARK  status: ('A' for Active; 'I' for Inactive)
REMARK    1  A    between atoms: C2_3  and  N2_4 
REMARK    2  A    between atoms: C3_11  and  N5_12 
REMARK    3  A    between atoms: N5_12  and  C4_14 
REMARK    4  A    between atoms: C4_14  and  O1_15 
REMARK    5  A    between atoms: C4_14  and  N6_17 
REMARK    6  A    between atoms: N6_17  and  N7_19 
ROOT
HETATM    1  C1  UNL     1       0.250  99.294   5.200  1.00  0.00     0.179 C 
HETATM    2  N1  UNL     1       1.063 100.516   5.176  1.00  0.00    -0.148 N 
HETATM    3  C2  UNL     1       0.537 101.690   4.810  1.00  0.00     0.695 A 
HETATM    4  N3  UNL     1       1.351 102.781   4.812  1.00  0.00    -0.130 N 
ATOM      5  H3  UNL     1       0.974 103.689   4.538  1.00  0.00     0.205 HD
HETATM    6  N4  UNL     1       2.611 102.686   5.159  1.00  0.00    -0.267 N 
ATOM      7  H4  UNL     1       3.185 103.529   5.146  1.00  0.00     0.189 HD
HETATM    8  C3  UNL     1       3.179 101.530   5.531  1.00  0.00     0.193 A 
HETATM    9  C5  UNL     1       2.348 100.391   5.535  1.00  0.00     0.307 A 
HETATM   10  O2  UNL     1       2.846  99.288   5.880  1.00  0.00    -0.263 OA
ENDROOT
BRANCH   8  11
HETATM   11  N5  UNL     1       4.509 101.339   5.916  1.00  0.00    -0.301 N 
ATOM     12  H5  UNL     1       5.050 100.680   5.357  1.00  0.00     0.171 HD
BRANCH  11  13
HETATM   13  C4  UNL     1       5.187 101.950   6.985  1.00  0.00     0.237 C 
BRANCH  13  14
HETATM   14  O1  UNL     1       5.030 101.482   8.189  1.00  0.00    -0.331 OA
ATOM     15  H1  UNL     1       4.155 101.269   8.495  1.00  0.00     0.221 HD
ENDBRANCH  13  14
BRANCH  13  16
HETATM   16  N6  UNL     1       6.038 103.056   6.831  1.00  0.00    -0.272 N 
ATOM     17  H6  UNL     1       6.651 103.365   7.585  1.00  0.00     0.190 HD
BRANCH  16  18
HETATM   18  N7  UNL     1       6.008 103.731   5.567  1.00  0.00    -0.342 N 
ATOM     19  H72 UNL     1       6.653 103.465   4.823  1.00  0.00     0.176 HD
ATOM     20  H71 UNL     1       5.320 104.475   5.455  1.00  0.00     0.176 HD
ENDBRANCH  16  18
ENDBRANCH  13  16
ENDBRANCH  11  13
ENDBRANCH   8  11
BRANCH   3  21
HETATM   21  N2  UNL     1      -0.706 101.741   4.476  1.00  0.00    -0.233 N 
ATOM     22  H22 UNL     1      -1.030 101.611   3.517  1.00  0.00     0.174 HD
ATOM     23  H21 UNL     1      -1.406 101.920   5.196  1.00  0.00     0.174 HD
ENDBRANCH   3  21
TORSDOF 6
ENDMDL
MODEL 5
REMARK VINA RESULT: -5.062716960      2.240      2.927
REMARK  6 active torsions:
REMARK  status: ('A' for Active; 'I' for Inactive)
REMARK    1  A    between atoms: C2_3  and  N2_4 
REMARK    2  A    between atoms: C3_11  and  N5_12 
REMARK    3  A    between atoms: N5_12  and  C4_14 
REMARK    4  A    between atoms: C4_14  and  O1_15 
REMARK    5  A    between atoms: C4_14  and  N6_17 
REMARK    6  A    between atoms: N6_17  and  N7_19 
ROOT
HETATM    1  C1  UNL     1       1.672  98.291   4.713  1.00  0.00     0.179 C 
HETATM    2  N1  UNL     1       2.983  98.723   5.213  1.00  0.00    -0.148 N 
HETATM    3  C2  UNL     1       4.048  97.917   5.146  1.00  0.00     0.695 A 
HETATM    4  N3  UNL     1       5.232  98.386   5.629  1.00  0.00    -0.130 N 
ATOM      5  H3  UNL     1       6.060  97.791   5.590  1.00  0.00     0.205 HD
HETATM    6  N4  UNL     1       5.326  99.587   6.143  1.00  0.00    -0.267 N 
ATOM      7  H4  UNL     1       6.232  99.898   6.493  1.00  0.00     0.189 HD
HETATM    8  C3  UNL     1       4.285 100.427   6.231  1.00  0.00     0.193 A 
HETATM    9  C5  UNL     1       3.052  99.956   5.734  1.00  0.00     0.307 A 
HETATM   10  O2  UNL     1       2.051 100.716   5.797  1.00  0.00    -0.263 OA
ENDROOT
BRANCH   8  11
HETATM   11  N5  UNL     1       4.296 101.720   6.761  1.00  0.00    -0.301 N 
ATOM     12  H5  UNL     1       4.087 101.800   7.756  1.00  0.00     0.171 HD
BRANCH  11  13
HETATM   13  C4  UNL     1       4.561 102.921   6.082  1.00  0.00     0.237 C 
BRANCH  13  14
HETATM   14  O1  UNL     1       3.888 103.207   5.006  1.00  0.00    -0.331 OA
ATOM     15  H1  UNL     1       3.323 103.971   5.000  1.00  0.00     0.221 HD
ENDBRANCH  13  14
BRANCH  13  16
HETATM   16  N6  UNL     1       5.528 103.849   6.501  1.00  0.00    -0.272 N 
ATOM     17  H6  UNL     1       5.447 104.840   6.276  1.00  0.00     0.190 HD
BRANCH  16  18
HETATM   18  N7  UNL     1       6.634 103.342   7.258  1.00  0.00    -0.342 N 
ATOM     19  H72 UNL     1       6.478 102.871   8.149  1.00  0.00     0.176 HD
ATOM     20  H71 UNL     1       7.566 103.474   6.865  1.00  0.00     0.176 HD
ENDBRANCH  16  18
ENDBRANCH  13  16
ENDBRANCH  11  13
ENDBRANCH   8  11
BRANCH   3  21
HETATM   21  N2  UNL     1       3.914  96.743   4.633  1.00  0.00    -0.233 N 
ATOM     22  H22 UNL     1       3.006  96.321   4.440  1.00  0.00     0.174 HD
ATOM     23  H21 UNL     1       4.749  96.204   4.406  1.00  0.00     0.174 HD
ENDBRANCH   3  21
TORSDOF 6
ENDMDL
