MODEL 1
REMARK VINA RESULT: -3.603333965      0.000      0.000
REMARK  3 active torsions:
REMARK  status: ('A' for Active; 'I' for Inactive)
REMARK    1  A    between atoms: N1_1  and  C1_5 
REMARK    2  A    between atoms: C1_5  and  C2_6 
REMARK    3  A    between atoms: C2_6  and  N2_7 
ROOT
HETATM    1  N2  UNL     1       9.764   9.779  15.230  1.00  0.00    -0.365 N 
HETATM    2  C3  UNL     1       9.030  10.723  15.856  1.00  0.00     0.090 A 
HETATM    3  C4  UNL     1       9.637  11.768  16.517  1.00  0.00     0.017 A 
HETATM    4  C5  UNL     1      11.019  11.842  16.535  1.00  0.00     0.003 A 
HETATM    5  C6  UNL     1      11.753  10.855  15.881  1.00  0.00     0.017 A 
HETATM    6  C7  UNL     1      11.106   9.826  15.231  1.00  0.00     0.090 A 
ENDROOT
BRANCH   1   7
HETATM    7  C2  UNL     1       9.070   8.716  14.559  1.00  0.00     0.155 C 
BRANCH   7   8
HETATM    8  C1  UNL     1       7.913   8.178  15.374  1.00  0.00     0.249 C 
BRANCH   8   9
HETATM    9  N1  UNL     1       7.991   6.731  15.327  1.00  0.00    -0.078 N 
ATOM     10  H13 UNL     1       8.589   6.387  14.575  1.00  0.00     0.274 HD
ATOM     11  H12 UNL     1       8.517   6.335  16.105  1.00  0.00     0.274 HD
ATOM     12  H11 UNL     1       7.035   6.380  15.270  1.00  0.00     0.274 HD
ENDBRANCH   8   9
ENDBRANCH   7   8
ENDBRANCH   1   7
TORSDOF 3
ENDMDL
MODEL 2
REMARK VINA RESULT: -3.531167678      0.045      1.580
REMARK  3 active torsions:
REMARK  status: ('A' for Active; 'I' for Inactive)
REMARK    1  A    between atoms: N1_1  and  C1_5 
REMARK    2  A    between atoms: C1_5  and  C2_6 
REMARK    3  A    between atoms: C2_6  and  N2_7 
ROOT
HETATM    1  N2  UNL     1       9.716   9.790  15.255  1.00  0.00    -0.365 N 
HETATM    2  C3  UNL     1      11.066   9.807  15.240  1.00  0.00     0.090 A 
HETATM    3  C4  UNL     1      11.767  10.815  15.865  1.00  0.00     0.017 A 
HETATM    4  C5  UNL     1      11.070  11.820  16.513  1.00  0.00     0.003 A 
HETATM    5  C6  UNL     1       9.677  11.779  16.512  1.00  0.00     0.017 A 
HETATM    6  C7  UNL     1       9.015  10.752  15.875  1.00  0.00     0.090 A 
ENDROOT
BRANCH   1   7
HETATM    7  C2  UNL     1       9.046   8.712  14.585  1.00  0.00     0.155 C 
BRANCH   7   8
HETATM    8  C1  UNL     1       7.906   8.145  15.403  1.00  0.00     0.249 C 
BRANCH   8   9
HETATM    9  N1  UNL     1       7.991   6.700  15.314  1.00  0.00    -0.078 N 
ATOM     10  H13 UNL     1       8.770   6.312  15.846  1.00  0.00     0.274 HD
ATOM     11  H12 UNL     1       7.241   6.225  15.815  1.00  0.00     0.274 HD
ATOM     12  H11 UNL     1       8.025   6.461  14.323  1.00  0.00     0.274 HD
ENDBRANCH   8   9
ENDBRANCH   7   8
ENDBRANCH   1   7
TORSDOF 3
ENDMDL
MODEL 3
REMARK VINA RESULT: -3.145950040      1.126      1.195
REMARK  3 active torsions:
REMARK  status: ('A' for Active; 'I' for Inactive)
REMARK    1  A    between atoms: N1_1  and  C1_5 
REMARK    2  A    between atoms: C1_5  and  C2_6 
REMARK    3  A    between atoms: C2_6  and  N2_7 
ROOT
HETATM    1  N2  UNL     1       9.983   9.495  16.317  1.00  0.00    -0.365 N 
HETATM    2  C3  UNL     1       9.271  10.456  16.945  1.00  0.00     0.090 A 
HETATM    3  C4  UNL     1       9.749  11.745  17.034  1.00  0.00     0.017 A 
HETATM    4  C5  UNL     1      10.976  12.050  16.471  1.00  0.00     0.003 A 
HETATM    5  C6  UNL     1      11.690  11.040  15.830  1.00  0.00     0.017 A 
HETATM    6  C7  UNL     1      11.176   9.763  15.762  1.00  0.00     0.090 A 
ENDROOT
BRANCH   1   7
HETATM    7  C2  UNL     1       9.429   8.172  16.258  1.00  0.00     0.155 C 
BRANCH   7   8
HETATM    8  C1  UNL     1       8.184   8.106  15.402  1.00  0.00     0.249 C 
BRANCH   8   9
HETATM    9  N1  UNL     1       8.430   8.913  14.223  1.00  0.00    -0.078 N 
ATOM     10  H13 UNL     1       9.257   9.504  14.308  1.00  0.00     0.274 HD
ATOM     11  H12 UNL     1       8.743   8.365  13.422  1.00  0.00     0.274 HD
ATOM     12  H11 UNL     1       7.578   9.442  14.036  1.00  0.00     0.274 HD
ENDBRANCH   8   9
ENDBRANCH   7   8
ENDBRANCH   1   7
TORSDOF 3
ENDMDL
MODEL 4
REMARK VINA RESULT: -3.110277439      1.123      1.959
REMARK  3 active torsions:
REMARK  status: ('A' for Active; 'I' for Inactive)
REMARK    1  A    between atoms: N1_1  and  C1_5 
REMARK    2  A    between atoms: C1_5  and  C2_6 
REMARK    3  A    between atoms: C2_6  and  N2_7 
ROOT
HETATM    1  N2  UNL     1       9.953   9.504  16.330  1.00  0.00    -0.365 N 
HETATM    2  C3  UNL     1      11.158   9.757  15.777  1.00  0.00     0.090 A 
HETATM    3  C4  UNL     1      11.706  11.021  15.822  1.00  0.00     0.017 A 
HETATM    4  C5  UNL     1      11.003  12.038  16.444  1.00  0.00     0.003 A 
HETATM    5  C6  UNL     1       9.761  11.751  17.006  1.00  0.00     0.017 A 
HETATM    6  C7  UNL     1       9.250  10.473  16.940  1.00  0.00     0.090 A 
ENDROOT
BRANCH   1   7
HETATM    7  C2  UNL     1       9.438   8.167  16.249  1.00  0.00     0.155 C 
BRANCH   7   8
HETATM    8  C1  UNL     1       8.202   8.077  15.381  1.00  0.00     0.249 C 
BRANCH   8   9
HETATM    9  N1  UNL     1       8.435   8.906  14.215  1.00  0.00    -0.078 N 
ATOM     10  H13 UNL     1       9.418   9.148  14.086  1.00  0.00     0.274 HD
ATOM     11  H12 UNL     1       8.308   8.405  13.336  1.00  0.00     0.274 HD
ATOM     12  H11 UNL     1       7.831   9.723  14.300  1.00  0.00     0.274 HD
ENDBRANCH   8   9
ENDBRANCH   7   8
ENDBRANCH   1   7
TORSDOF 3
ENDMDL
MODEL 5
REMARK VINA RESULT: -3.060012775      1.476      1.781
REMARK  3 active torsions:
REMARK  status: ('A' for Active; 'I' for Inactive)
REMARK    1  A    between atoms: N1_1  and  C1_5 
REMARK    2  A    between atoms: C1_5  and  C2_6 
REMARK    3  A    between atoms: C2_6  and  N2_7 
ROOT
HETATM    1  N2  UNL     1       9.880   9.937  16.041  1.00  0.00    -0.365 N 
HETATM    2  C3  UNL     1       9.844  11.284  15.954  1.00  0.00     0.090 A 
HETATM    3  C4  UNL     1       9.798  12.065  17.088  1.00  0.00     0.017 A 
HETATM    4  C5  UNL     1       9.787  11.453  18.329  1.00  0.00     0.003 A 
HETATM    5  C6  UNL     1       9.824  10.061  18.391  1.00  0.00     0.017 A 
HETATM    6  C7  UNL     1       9.871   9.316  17.232  1.00  0.00     0.090 A 
ENDROOT
BRANCH   1   7
HETATM    7  C2  UNL     1       9.928   9.180  14.822  1.00  0.00     0.155 C 
BRANCH   7   8
HETATM    8  C1  UNL     1       8.549   8.844  14.298  1.00  0.00     0.249 C 
BRANCH   8   9
HETATM    9  N1  UNL     1       7.841   8.158  15.361  1.00  0.00    -0.078 N 
ATOM     10  H13 UNL     1       6.952   8.598  15.599  1.00  0.00     0.274 HD
ATOM     11  H12 UNL     1       7.466   7.255  15.073  1.00  0.00     0.274 HD
ATOM     12  H11 UNL     1       8.479   8.091  16.154  1.00  0.00     0.274 HD
ENDBRANCH   8   9
ENDBRANCH   7   8
ENDBRANCH   1   7
TORSDOF 3
ENDMDL
