MODEL 1
REMARK VINA RESULT: -9.665187958      0.000      0.000
REMARK  10 active torsions:
REMARK  status: ('A' for Active; 'I' for Inactive)
REMARK    1  A    between atoms: C3_5  and  N2_6 
REMARK    2  A    between atoms: C4_11  and  N4_12 
REMARK    3  A    between atoms: C5_15  and  C6_16 
REMARK       I    between atoms: C6_16  and  N5_18 
REMARK    4  A    between atoms: N5_18  and  C7_20 
REMARK    5  A    between atoms: C12_25  and  C13_26 
REMARK    6  A    between atoms: C14_27  and  C15_28 
REMARK       I    between atoms: C15_28  and  N6_30 
REMARK    7  A    between atoms: N6_30  and  C16_32 
REMARK    8  A    between atoms: C18_34  and  C19_35 
REMARK    9  A    between atoms: C19_35  and  C20_36 
REMARK   10  A    between atoms: C20_36  and  N7_37 
REMARK       I    between atoms: N7_37  and  C21_39 
ROOT
HETATM    1  C7  UNL     1     -14.039   3.942  12.805  1.00  0.00     0.092 C 
HETATM    2  C8  UNL     1     -14.591   4.572  11.590  1.00  0.00     0.026 C 
HETATM    3  C9  UNL     1     -14.962   6.028  11.838  1.00  0.00     0.002 C 
HETATM    4  C10 UNL     1     -15.379   6.250  13.250  1.00  0.00     0.001 C 
HETATM    5  C11 UNL     1     -16.024   4.985  13.813  1.00  0.00     0.010 C 
HETATM    6  C12 UNL     1     -15.034   3.893  13.996  1.00  0.00     0.031 C 
ENDROOT
BRANCH   6   7
HETATM    7  C13 UNL     1     -15.629   2.527  14.033  1.00  0.00    -0.015 C 
HETATM    8  C14 UNL     1     -16.993   2.149  13.875  1.00  0.00     0.070 C 
BRANCH   8   9
HETATM    9  C15 UNL     1     -17.861   2.328  12.747  1.00  0.00     0.241 C 
HETATM   10  O2  UNL     1     -19.084   2.238  12.730  1.00  0.00    -0.269 OA
HETATM   11  N6  UNL     1     -17.290   2.657  11.446  1.00  0.00    -0.351 N 
ATOM     12  H6  UNL     1     -16.279   2.766  11.358  1.00  0.00     0.163 HD
BRANCH  11  13
HETATM   13  C16 UNL     1     -18.113   2.829  10.294  1.00  0.00     0.118 C 
HETATM   14  C17 UNL     1     -17.394   2.626   9.005  1.00  0.00     0.032 C 
HETATM   15  C18 UNL     1     -18.328   2.900   7.859  1.00  0.00    -0.005 C 
HETATM   16  C22 UNL     1     -19.064   4.205   8.005  1.00  0.00     0.020 C 
HETATM   17  C23 UNL     1     -19.960   4.011   9.248  1.00  0.00     0.044 C 
HETATM   18  C26 UNL     1     -18.264   5.373   8.441  1.00  0.00     0.277 C 
HETATM   19  C24 UNL     1     -18.869   4.159  10.327  1.00  0.00     0.245 C 
HETATM   20  N10 UNL     1     -18.160   5.276   9.873  1.00  0.00     0.091 N 
HETATM   21  C25 UNL     1     -18.382   6.514  10.556  1.00  0.00     0.310 C 
BRANCH  15  22
HETATM   22  C19 UNL     1     -17.782   2.624   6.517  1.00  0.00     0.025 C 
BRANCH  22  23
HETATM   23  C20 UNL     1     -17.146   1.326   6.237  1.00  0.00     0.122 C 
BRANCH  23  24
HETATM   24  N7  UNL     1     -17.926   0.580   5.256  1.00  0.00    -0.365 N 
HETATM   25  C21 UNL     1     -18.706  -0.559   5.591  1.00  0.00     0.181 C 
HETATM   26  N8  UNL     1     -18.892  -1.454   4.649  1.00  0.00    -0.374 N 
HETATM   27  N9  UNL     1     -19.295  -0.827   6.832  1.00  0.00    -0.064 NA
ATOM     28  H82 UNL     1     -18.463  -1.259   3.745  1.00  0.00     0.158 HD
ATOM     29  H81 UNL     1     -19.452  -2.271   4.889  1.00  0.00     0.158 HD
ATOM     30  H7  UNL     1     -17.911   0.890   4.284  1.00  0.00     0.162 HD
ENDBRANCH  23  24
ENDBRANCH  22  23
ENDBRANCH  15  22
ENDBRANCH  11  13
ENDBRANCH   8   9
ENDBRANCH   6   7
BRANCH   1  31
HETATM   31  N5  UNL     1     -12.775   4.527  13.186  1.00  0.00    -0.351 N 
HETATM   32  C6  UNL     1     -11.648   4.442  12.311  1.00  0.00     0.257 C 
HETATM   33  O1  UNL     1     -11.780   3.819  11.201  1.00  0.00    -0.267 OA
ATOM     34  H5  UNL     1     -12.686   5.002  14.084  1.00  0.00     0.163 HD
BRANCH  32  35
HETATM   35  C5  UNL     1     -10.336   4.997  12.563  1.00  0.00     0.098 A 
HETATM   36  C2  UNL     1     -10.277   6.356  12.860  1.00  0.00     0.042 A 
HETATM   37  C1  UNL     1     -11.503   7.189  12.811  1.00  0.00     0.070 C 
HETATM   38  N1  UNL     1      -9.107   6.906  13.156  1.00  0.00    -0.195 N 
HETATM   39  C3  UNL     1      -7.977   6.185  13.177  1.00  0.00     0.677 A 
ATOM     40  H1  UNL     1      -9.066   7.902  13.374  1.00  0.00     0.184 HD
HETATM   41  N3  UNL     1      -8.031   4.898  12.897  1.00  0.00    -0.176 N 
HETATM   42  C4  UNL     1      -9.186   4.220  12.576  1.00  0.00     0.132 A 
ATOM     43  H3  UNL     1      -7.159   4.369  12.920  1.00  0.00     0.186 HD
BRANCH  39  44
HETATM   44  N2  UNL     1      -6.885   6.787  13.476  1.00  0.00    -0.234 N 
ATOM     45  H22 UNL     1      -6.526   7.581  12.944  1.00  0.00     0.174 HD
ATOM     46  H21 UNL     1      -6.358   6.449  14.282  1.00  0.00     0.174 HD
ENDBRANCH  39  44
BRANCH  42  47
HETATM   47  N4  UNL     1      -9.147   2.973  12.353  1.00  0.00    -0.384 N 
ATOM     48  H42 UNL     1      -9.909   2.321  12.538  1.00  0.00     0.157 HD
ATOM     49  H41 UNL     1      -8.296   2.547  11.987  1.00  0.00     0.157 HD
ENDBRANCH  42  47
ENDBRANCH  32  35
ENDBRANCH   1  31
TORSDOF 10
ENDMDL
MODEL 2
REMARK VINA RESULT: -9.572566234      2.057      3.325
REMARK  10 active torsions:
REMARK  status: ('A' for Active; 'I' for Inactive)
REMARK    1  A    between atoms: C3_5  and  N2_6 
REMARK    2  A    between atoms: C4_11  and  N4_12 
REMARK    3  A    between atoms: C5_15  and  C6_16 
REMARK       I    between atoms: C6_16  and  N5_18 
REMARK    4  A    between atoms: N5_18  and  C7_20 
REMARK    5  A    between atoms: C12_25  and  C13_26 
REMARK    6  A    between atoms: C14_27  and  C15_28 
REMARK       I    between atoms: C15_28  and  N6_30 
REMARK    7  A    between atoms: N6_30  and  C16_32 
REMARK    8  A    between atoms: C18_34  and  C19_35 
REMARK    9  A    between atoms: C19_35  and  C20_36 
REMARK   10  A    between atoms: C20_36  and  N7_37 
REMARK       I    between atoms: N7_37  and  C21_39 
ROOT
HETATM    1  C7  UNL     1     -13.502   4.562  11.512  1.00  0.00     0.092 C 
HETATM    2  C8  UNL     1     -13.510   5.221  10.191  1.00  0.00     0.026 C 
HETATM    3  C9  UNL     1     -13.575   6.736  10.326  1.00  0.00     0.002 C 
HETATM    4  C10 UNL     1     -14.315   7.143  11.552  1.00  0.00     0.001 C 
HETATM    5  C11 UNL     1     -15.380   6.102  11.893  1.00  0.00     0.010 C 
HETATM    6  C12 UNL     1     -14.779   4.825  12.355  1.00  0.00     0.031 C 
ENDROOT
BRANCH   6   7
HETATM    7  C13 UNL     1     -15.671   3.639  12.207  1.00  0.00    -0.015 C 
HETATM    8  C14 UNL     1     -16.798   3.480  11.353  1.00  0.00     0.070 C 
BRANCH   8   9
HETATM    9  C15 UNL     1     -16.866   3.515   9.920  1.00  0.00     0.241 C 
HETATM   10  O2  UNL     1     -16.916   4.509   9.204  1.00  0.00    -0.269 OA
HETATM   11  N6  UNL     1     -16.878   2.263   9.171  1.00  0.00    -0.351 N 
ATOM     12  H6  UNL     1     -16.827   1.378   9.676  1.00  0.00     0.163 HD
BRANCH  11  13
HETATM   13  C16 UNL     1     -16.959   2.250   7.747  1.00  0.00     0.118 C 
HETATM   14  C17 UNL     1     -17.615   1.032   7.194  1.00  0.00     0.032 C 
HETATM   15  C18 UNL     1     -17.585   1.082   5.692  1.00  0.00    -0.005 C 
HETATM   16  C22 UNL     1     -16.219   1.403   5.145  1.00  0.00     0.020 C 
HETATM   17  C23 UNL     1     -15.935   2.843   5.626  1.00  0.00     0.044 C 
HETATM   18  C26 UNL     1     -15.074   0.692   5.760  1.00  0.00     0.277 C 
HETATM   19  C24 UNL     1     -15.602   2.519   7.096  1.00  0.00     0.245 C 
HETATM   20  N10 UNL     1     -14.757   1.412   6.965  1.00  0.00     0.091 N 
HETATM   21  C25 UNL     1     -13.356   1.631   7.158  1.00  0.00     0.310 C 
BRANCH  15  22
HETATM   22  C19 UNL     1     -18.305  -0.008   5.006  1.00  0.00     0.025 C 
BRANCH  22  23
HETATM   23  C20 UNL     1     -18.831   0.203   3.648  1.00  0.00     0.122 C 
BRANCH  23  24
HETATM   24  N7  UNL     1     -19.075  -1.078   2.993  1.00  0.00    -0.365 N 
HETATM   25  C21 UNL     1     -18.788  -1.314   1.623  1.00  0.00     0.181 C 
HETATM   26  N8  UNL     1     -19.514  -2.217   1.007  1.00  0.00    -0.374 N 
HETATM   27  N9  UNL     1     -17.807  -0.673   0.856  1.00  0.00    -0.064 NA
ATOM     28  H82 UNL     1     -20.229  -2.684   1.564  1.00  0.00     0.158 HD
ATOM     29  H81 UNL     1     -19.308  -2.387   0.023  1.00  0.00     0.158 HD
ATOM     30  H7  UNL     1     -19.470  -1.839   3.546  1.00  0.00     0.162 HD
ENDBRANCH  23  24
ENDBRANCH  22  23
ENDBRANCH  15  22
ENDBRANCH  11  13
ENDBRANCH   8   9
ENDBRANCH   6   7
BRANCH   1  31
HETATM   31  N5  UNL     1     -12.299   4.862  12.252  1.00  0.00    -0.351 N 
HETATM   32  C6  UNL     1     -11.016   4.575  11.692  1.00  0.00     0.257 C 
HETATM   33  O1  UNL     1     -10.961   4.028  10.536  1.00  0.00    -0.267 OA
ATOM     34  H5  UNL     1     -12.366   5.280  13.180  1.00  0.00     0.163 HD
BRANCH  32  35
HETATM   35  C5  UNL     1      -9.740   4.839  12.318  1.00  0.00     0.098 A 
HETATM   36  C2  UNL     1      -9.443   6.170  12.601  1.00  0.00     0.042 A 
HETATM   37  C1  UNL     1     -10.366   7.251  12.176  1.00  0.00     0.070 C 
HETATM   38  N1  UNL     1      -8.313   6.466  13.227  1.00  0.00    -0.195 N 
HETATM   39  C3  UNL     1      -7.443   5.513  13.595  1.00  0.00     0.677 A 
ATOM     40  H1  UNL     1      -8.099   7.442  13.434  1.00  0.00     0.184 HD
HETATM   41  N3  UNL     1      -7.722   4.252  13.329  1.00  0.00    -0.176 N 
HETATM   42  C4  UNL     1      -8.863   3.827  12.686  1.00  0.00     0.132 A 
ATOM     43  H3  UNL     1      -7.047   3.545  13.619  1.00  0.00     0.186 HD
BRANCH  39  44
HETATM   44  N2  UNL     1      -6.374   5.877  14.200  1.00  0.00    -0.234 N 
ATOM     45  H22 UNL     1      -6.377   6.280  15.138  1.00  0.00     0.174 HD
ATOM     46  H21 UNL     1      -5.485   5.759  13.712  1.00  0.00     0.174 HD
ENDBRANCH  39  44
BRANCH  42  47
HETATM   47  N4  UNL     1      -9.062   2.589  12.502  1.00  0.00    -0.384 N 
ATOM     48  H42 UNL     1      -9.972   2.131  12.537  1.00  0.00     0.157 HD
ATOM     49  H41 UNL     1      -8.273   1.966  12.328  1.00  0.00     0.157 HD
ENDBRANCH  42  47
ENDBRANCH  32  35
ENDBRANCH   1  31
TORSDOF 10
ENDMDL
MODEL 3
REMARK VINA RESULT: -9.560705760      1.119      1.419
REMARK  10 active torsions:
REMARK  status: ('A' for Active; 'I' for Inactive)
REMARK    1  A    between atoms: C3_5  and  N2_6 
REMARK    2  A    between atoms: C4_11  and  N4_12 
REMARK    3  A    between atoms: C5_15  and  C6_16 
REMARK       I    between atoms: C6_16  and  N5_18 
REMARK    4  A    between atoms: N5_18  and  C7_20 
REMARK    5  A    between atoms: C12_25  and  C13_26 
REMARK    6  A    between atoms: C14_27  and  C15_28 
REMARK       I    between atoms: C15_28  and  N6_30 
REMARK    7  A    between atoms: N6_30  and  C16_32 
REMARK    8  A    between atoms: C18_34  and  C19_35 
REMARK    9  A    between atoms: C19_35  and  C20_36 
REMARK   10  A    between atoms: C20_36  and  N7_37 
REMARK       I    between atoms: N7_37  and  C21_39 
ROOT
HETATM    1  C7  UNL     1     -13.948   3.859  12.804  1.00  0.00     0.092 C 
HETATM    2  C8  UNL     1     -14.424   4.404  11.518  1.00  0.00     0.026 C 
HETATM    3  C9  UNL     1     -14.774   5.881  11.635  1.00  0.00     0.002 C 
HETATM    4  C10 UNL     1     -15.257   6.220  13.003  1.00  0.00     0.001 C 
HETATM    5  C11 UNL     1     -15.957   5.014  13.626  1.00  0.00     0.010 C 
HETATM    6  C12 UNL     1     -15.002   3.921  13.943  1.00  0.00     0.031 C 
ENDROOT
BRANCH   6   7
HETATM    7  C13 UNL     1     -15.628   2.573  14.053  1.00  0.00    -0.015 C 
HETATM    8  C14 UNL     1     -17.001   2.220  13.916  1.00  0.00     0.070 C 
BRANCH   8   9
HETATM    9  C15 UNL     1     -17.866   2.358  12.780  1.00  0.00     0.241 C 
HETATM   10  O2  UNL     1     -19.092   2.382  12.779  1.00  0.00    -0.269 OA
HETATM   11  N6  UNL     1     -17.287   2.491  11.447  1.00  0.00    -0.351 N 
ATOM     12  H6  UNL     1     -16.272   2.495  11.342  1.00  0.00     0.163 HD
BRANCH  11  13
HETATM   13  C16 UNL     1     -18.108   2.616  10.288  1.00  0.00     0.118 C 
HETATM   14  C17 UNL     1     -17.622   1.832   9.119  1.00  0.00     0.032 C 
HETATM   15  C18 UNL     1     -18.512   2.089   7.935  1.00  0.00    -0.005 C 
HETATM   16  C22 UNL     1     -18.754   3.555   7.692  1.00  0.00     0.020 C 
HETATM   17  C23 UNL     1     -19.544   4.031   8.931  1.00  0.00     0.044 C 
HETATM   18  C26 UNL     1     -17.572   4.445   7.778  1.00  0.00     0.277 C 
HETATM   19  C24 UNL     1     -18.370   4.080   9.930  1.00  0.00     0.245 C 
HETATM   20  N10 UNL     1     -17.375   4.713   9.179  1.00  0.00     0.091 N 
HETATM   21  C25 UNL     1     -17.106   6.087   9.474  1.00  0.00     0.310 C 
BRANCH  15  22
HETATM   22  C19 UNL     1     -18.217   1.285   6.734  1.00  0.00     0.025 C 
BRANCH  22  23
HETATM   23  C20 UNL     1     -17.696  -0.085   6.879  1.00  0.00     0.122 C 
BRANCH  23  24
HETATM   24  N7  UNL     1     -16.561  -0.293   5.987  1.00  0.00    -0.365 N 
HETATM   25  C21 UNL     1     -15.284   0.286   6.211  1.00  0.00     0.181 C 
HETATM   26  N8  UNL     1     -14.540   0.521   5.155  1.00  0.00    -0.374 N 
HETATM   27  N9  UNL     1     -14.737   0.640   7.451  1.00  0.00    -0.064 NA
ATOM     28  H82 UNL     1     -14.938   0.264   4.252  1.00  0.00     0.158 HD
ATOM     29  H81 UNL     1     -13.623   0.937   5.316  1.00  0.00     0.158 HD
ATOM     30  H7  UNL     1     -16.690  -0.883   5.165  1.00  0.00     0.162 HD
ENDBRANCH  23  24
ENDBRANCH  22  23
ENDBRANCH  15  22
ENDBRANCH  11  13
ENDBRANCH   8   9
ENDBRANCH   6   7
BRANCH   1  31
HETATM   31  N5  UNL     1     -12.692   4.448  13.204  1.00  0.00    -0.351 N 
HETATM   32  C6  UNL     1     -11.565   4.412  12.325  1.00  0.00     0.257 C 
HETATM   33  O1  UNL     1     -11.690   3.827  11.194  1.00  0.00    -0.267 OA
ATOM     34  H5  UNL     1     -12.608   4.893  14.119  1.00  0.00     0.163 HD
BRANCH  32  35
HETATM   35  C5  UNL     1     -10.261   4.976  12.596  1.00  0.00     0.098 A 
HETATM   36  C2  UNL     1     -10.215   6.337  12.887  1.00  0.00     0.042 A 
HETATM   37  C1  UNL     1     -11.445   7.162  12.814  1.00  0.00     0.070 C 
HETATM   38  N1  UNL     1      -9.053   6.896  13.199  1.00  0.00    -0.195 N 
HETATM   39  C3  UNL     1      -7.919   6.182  13.241  1.00  0.00     0.677 A 
ATOM     40  H1  UNL     1      -9.022   7.893  13.412  1.00  0.00     0.184 HD
HETATM   41  N3  UNL     1      -7.960   4.893  12.966  1.00  0.00    -0.176 N 
HETATM   42  C4  UNL     1      -9.106   4.206  12.631  1.00  0.00     0.132 A 
ATOM     43  H3  UNL     1      -7.086   4.370  13.005  1.00  0.00     0.186 HD
BRANCH  39  44
HETATM   44  N2  UNL     1      -6.836   6.792  13.554  1.00  0.00    -0.234 N 
ATOM     45  H22 UNL     1      -6.729   7.320  14.422  1.00  0.00     0.174 HD
ATOM     46  H21 UNL     1      -6.055   6.746  12.900  1.00  0.00     0.174 HD
ENDBRANCH  39  44
BRANCH  42  47
HETATM   47  N4  UNL     1      -9.056   2.958  12.414  1.00  0.00    -0.384 N 
ATOM     48  H42 UNL     1      -9.205   2.515  11.508  1.00  0.00     0.157 HD
ATOM     49  H41 UNL     1      -8.882   2.314  13.186  1.00  0.00     0.157 HD
ENDBRANCH  42  47
ENDBRANCH  32  35
ENDBRANCH   1  31
TORSDOF 10
ENDMDL
MODEL 4
REMARK VINA RESULT: -9.240408914      3.346      8.203
REMARK  10 active torsions:
REMARK  status: ('A' for Active; 'I' for Inactive)
REMARK    1  A    between atoms: C3_5  and  N2_6 
REMARK    2  A    between atoms: C4_11  and  N4_12 
REMARK    3  A    between atoms: C5_15  and  C6_16 
REMARK       I    between atoms: C6_16  and  N5_18 
REMARK    4  A    between atoms: N5_18  and  C7_20 
REMARK    5  A    between atoms: C12_25  and  C13_26 
REMARK    6  A    between atoms: C14_27  and  C15_28 
REMARK       I    between atoms: C15_28  and  N6_30 
REMARK    7  A    between atoms: N6_30  and  C16_32 
REMARK    8  A    between atoms: C18_34  and  C19_35 
REMARK    9  A    between atoms: C19_35  and  C20_36 
REMARK   10  A    between atoms: C20_36  and  N7_37 
REMARK       I    between atoms: N7_37  and  C21_39 
ROOT
HETATM    1  C7  UNL     1     -17.826   4.376  11.337  1.00  0.00     0.092 C 
HETATM    2  C8  UNL     1     -19.302   4.374  11.302  1.00  0.00     0.026 C 
HETATM    3  C9  UNL     1     -19.880   3.357  12.275  1.00  0.00     0.002 C 
HETATM    4  C10 UNL     1     -18.970   2.190  12.448  1.00  0.00     0.001 C 
HETATM    5  C11 UNL     1     -18.176   1.949  11.166  1.00  0.00     0.010 C 
HETATM    6  C12 UNL     1     -17.184   3.026  10.917  1.00  0.00     0.031 C 
ENDROOT
BRANCH   6   7
HETATM    7  C13 UNL     1     -16.759   3.151   9.494  1.00  0.00    -0.015 C 
HETATM    8  C14 UNL     1     -15.857   4.090   8.917  1.00  0.00     0.070 C 
BRANCH   8   9
HETATM    9  C15 UNL     1     -14.464   4.298   9.190  1.00  0.00     0.241 C 
HETATM   10  O2  UNL     1     -13.520   3.633   8.779  1.00  0.00    -0.269 OA
HETATM   11  N6  UNL     1     -14.058   5.409  10.044  1.00  0.00    -0.351 N 
ATOM     12  H6  UNL     1     -14.771   6.031  10.427  1.00  0.00     0.163 HD
BRANCH  11  13
HETATM   13  C16 UNL     1     -12.686   5.646  10.354  1.00  0.00     0.118 C 
HETATM   14  C17 UNL     1     -12.107   4.660  11.309  1.00  0.00     0.032 C 
HETATM   15  C18 UNL     1     -10.687   5.039  11.624  1.00  0.00    -0.005 C 
HETATM   16  C22 UNL     1     -10.539   6.489  12.001  1.00  0.00     0.020 C 
HETATM   17  C23 UNL     1     -10.913   7.266  10.720  1.00  0.00     0.044 C 
HETATM   18  C26 UNL     1     -11.545   7.036  12.941  1.00  0.00     0.277 C 
HETATM   19  C24 UNL     1     -12.443   7.089  10.798  1.00  0.00     0.245 C 
HETATM   20  N10 UNL     1     -12.699   7.364  12.145  1.00  0.00     0.091 N 
HETATM   21  C25 UNL     1     -13.274   8.638  12.456  1.00  0.00     0.310 C 
BRANCH  15  22
HETATM   22  C19 UNL     1      -9.949   4.083  12.471  1.00  0.00     0.025 C 
BRANCH  22  23
HETATM   23  C20 UNL     1      -8.486   3.972  12.346  1.00  0.00     0.122 C 
BRANCH  23  24
HETATM   24  N7  UNL     1      -7.845   4.247  13.628  1.00  0.00    -0.365 N 
HETATM   25  C21 UNL     1      -7.185   5.471  13.915  1.00  0.00     0.181 C 
HETATM   26  N8  UNL     1      -6.208   5.432  14.792  1.00  0.00    -0.374 N 
HETATM   27  N9  UNL     1      -7.468   6.722  13.352  1.00  0.00    -0.064 NA
ATOM     28  H82 UNL     1      -6.001   4.522  15.202  1.00  0.00     0.158 HD
ATOM     29  H81 UNL     1      -5.734   6.310  14.999  1.00  0.00     0.158 HD
ATOM     30  H7  UNL     1      -7.873   3.529  14.351  1.00  0.00     0.162 HD
ENDBRANCH  23  24
ENDBRANCH  22  23
ENDBRANCH  15  22
ENDBRANCH  11  13
ENDBRANCH   8   9
ENDBRANCH   6   7
BRANCH   1  31
HETATM   31  N5  UNL     1     -17.321   4.838  12.608  1.00  0.00    -0.351 N 
HETATM   32  C6  UNL     1     -16.483   5.994  12.675  1.00  0.00     0.257 C 
HETATM   33  O1  UNL     1     -16.175   6.590  11.586  1.00  0.00    -0.267 OA
ATOM     34  H5  UNL     1     -17.563   4.336  13.462  1.00  0.00     0.163 HD
BRANCH  32  35
HETATM   35  C5  UNL     1     -15.926   6.567  13.881  1.00  0.00     0.098 A 
HETATM   36  C2  UNL     1     -14.900   5.856  14.498  1.00  0.00     0.042 A 
HETATM   37  C1  UNL     1     -14.490   4.529  13.979  1.00  0.00     0.070 C 
HETATM   38  N1  UNL     1     -14.314   6.363  15.574  1.00  0.00    -0.195 N 
HETATM   39  C3  UNL     1     -14.686   7.546  16.085  1.00  0.00     0.677 A 
ATOM     40  H1  UNL     1     -13.562   5.841  16.024  1.00  0.00     0.184 HD
HETATM   41  N3  UNL     1     -15.657   8.221  15.502  1.00  0.00    -0.176 N 
HETATM   42  C4  UNL     1     -16.336   7.796  14.383  1.00  0.00     0.132 A 
ATOM     43  H3  UNL     1     -15.922   9.119  15.908  1.00  0.00     0.186 HD
BRANCH  39  44
HETATM   44  N2  UNL     1     -14.069   7.972  17.125  1.00  0.00    -0.234 N 
ATOM     45  H22 UNL     1     -13.684   7.348  17.835  1.00  0.00     0.174 HD
ATOM     46  H21 UNL     1     -13.966   8.980  17.241  1.00  0.00     0.174 HD
ENDBRANCH  39  44
BRANCH  42  47
HETATM   47  N4  UNL     1     -17.235   8.528  13.871  1.00  0.00    -0.384 N 
ATOM     48  H42 UNL     1     -17.414   9.499  14.124  1.00  0.00     0.157 HD
ATOM     49  H41 UNL     1     -17.865   8.144  13.167  1.00  0.00     0.157 HD
ENDBRANCH  42  47
ENDBRANCH  32  35
ENDBRANCH   1  31
TORSDOF 10
ENDMDL
MODEL 5
REMARK VINA RESULT: -9.172601138      4.782      7.943
REMARK  10 active torsions:
REMARK  status: ('A' for Active; 'I' for Inactive)
REMARK    1  A    between atoms: C3_5  and  N2_6 
REMARK    2  A    between atoms: C4_11  and  N4_12 
REMARK    3  A    between atoms: C5_15  and  C6_16 
REMARK       I    between atoms: C6_16  and  N5_18 
REMARK    4  A    between atoms: N5_18  and  C7_20 
REMARK    5  A    between atoms: C12_25  and  C13_26 
REMARK    6  A    between atoms: C14_27  and  C15_28 
REMARK       I    between atoms: C15_28  and  N6_30 
REMARK    7  A    between atoms: N6_30  and  C16_32 
REMARK    8  A    between atoms: C18_34  and  C19_35 
REMARK    9  A    between atoms: C19_35  and  C20_36 
REMARK   10  A    between atoms: C20_36  and  N7_37 
REMARK       I    between atoms: N7_37  and  C21_39 
ROOT
HETATM    1  C7  UNL     1     -16.060   8.412  15.821  1.00  0.00     0.092 C 
HETATM    2  C8  UNL     1     -16.948   9.277  16.623  1.00  0.00     0.026 C 
HETATM    3  C9  UNL     1     -16.164  10.072  17.658  1.00  0.00     0.002 C 
HETATM    4  C10 UNL     1     -14.958   9.328  18.117  1.00  0.00     0.001 C 
HETATM    5  C11 UNL     1     -15.213   7.823  18.052  1.00  0.00     0.010 C 
HETATM    6  C12 UNL     1     -15.310   7.337  16.652  1.00  0.00     0.031 C 
ENDROOT
BRANCH   6   7
HETATM    7  C13 UNL     1     -16.048   6.051  16.500  1.00  0.00    -0.015 C 
HETATM    8  C14 UNL     1     -16.272   5.293  15.316  1.00  0.00     0.070 C 
BRANCH   8   9
HETATM    9  C15 UNL     1     -15.319   4.670  14.441  1.00  0.00     0.241 C 
HETATM   10  O2  UNL     1     -15.245   3.481  14.150  1.00  0.00    -0.269 OA
HETATM   11  N6  UNL     1     -14.299   5.487  13.793  1.00  0.00    -0.351 N 
ATOM     12  H6  UNL     1     -14.283   6.493  13.962  1.00  0.00     0.163 HD
BRANCH  11  13
HETATM   13  C16 UNL     1     -13.323   4.909  12.928  1.00  0.00     0.118 C 
HETATM   14  C17 UNL     1     -11.930   5.358  13.208  1.00  0.00     0.032 C 
HETATM   15  C18 UNL     1     -10.994   4.751  12.200  1.00  0.00    -0.005 C 
HETATM   16  C22 UNL     1     -11.471   4.921  10.782  1.00  0.00     0.020 C 
HETATM   17  C23 UNL     1     -12.773   4.095  10.706  1.00  0.00     0.044 C 
HETATM   18  C26 UNL     1     -11.989   6.259  10.413  1.00  0.00     0.277 C 
HETATM   19  C24 UNL     1     -13.697   5.077  11.454  1.00  0.00     0.245 C 
HETATM   20  N10 UNL     1     -13.352   6.301  10.873  1.00  0.00     0.091 N 
HETATM   21  C25 UNL     1     -14.268   6.855   9.922  1.00  0.00     0.310 C 
BRANCH  15  22
HETATM   22  C19 UNL     1      -9.561   5.017  12.426  1.00  0.00     0.025 C 
BRANCH  22  23
HETATM   23  C20 UNL     1      -9.045   6.392  12.313  1.00  0.00     0.122 C 
BRANCH  23  24
HETATM   24  N7  UNL     1      -7.902   6.579  13.200  1.00  0.00    -0.365 N 
HETATM   25  C21 UNL     1      -7.091   5.506  13.655  1.00  0.00     0.181 C 
HETATM   26  N8  UNL     1      -6.496   5.656  14.815  1.00  0.00    -0.374 N 
HETATM   27  N9  UNL     1      -6.864   4.295  12.989  1.00  0.00    -0.064 NA
ATOM     28  H82 UNL     1      -6.661   6.537  15.301  1.00  0.00     0.158 HD
ATOM     29  H81 UNL     1      -5.913   4.885  15.142  1.00  0.00     0.158 HD
ATOM     30  H7  UNL     1      -7.675   7.525  13.508  1.00  0.00     0.162 HD
ENDBRANCH  23  24
ENDBRANCH  22  23
ENDBRANCH  15  22
ENDBRANCH  11  13
ENDBRANCH   8   9
ENDBRANCH   6   7
BRANCH   1  31
HETATM   31  N5  UNL     1     -15.156   9.185  15.003  1.00  0.00    -0.351 N 
HETATM   32  C6  UNL     1     -14.993   8.877  13.617  1.00  0.00     0.257 C 
HETATM   33  O1  UNL     1     -15.647   7.891  13.129  1.00  0.00    -0.267 OA
ATOM     34  H5  UNL     1     -14.630   9.955  15.417  1.00  0.00     0.163 HD
BRANCH  32  35
HETATM   35  C5  UNL     1     -14.136   9.579  12.687  1.00  0.00     0.098 A 
HETATM   36  C2  UNL     1     -14.740  10.540  11.880  1.00  0.00     0.042 A 
HETATM   37  C1  UNL     1     -16.210  10.738  11.921  1.00  0.00     0.070 C 
HETATM   38  N1  UNL     1     -13.993  11.255  11.050  1.00  0.00    -0.195 N 
HETATM   39  C3  UNL     1     -12.666  11.076  10.968  1.00  0.00     0.677 A 
ATOM     40  H1  UNL     1     -14.438  11.958  10.460  1.00  0.00     0.184 HD
HETATM   41  N3  UNL     1     -12.092  10.167  11.731  1.00  0.00    -0.176 N 
HETATM   42  C4  UNL     1     -12.765   9.368  12.629  1.00  0.00     0.132 A 
ATOM     43  H3  UNL     1     -11.082  10.049  11.652  1.00  0.00     0.186 HD
BRANCH  39  44
HETATM   44  N2  UNL     1     -12.012  11.808  10.144  1.00  0.00    -0.234 N 
ATOM     45  H22 UNL     1     -11.127  11.517   9.726  1.00  0.00     0.174 HD
ATOM     46  H21 UNL     1     -12.398  12.721   9.905  1.00  0.00     0.174 HD
ENDBRANCH  39  44
BRANCH  42  47
HETATM   47  N4  UNL     1     -12.124   8.543  13.346  1.00  0.00    -0.384 N 
ATOM     48  H42 UNL     1     -12.079   8.564  14.365  1.00  0.00     0.157 HD
ATOM     49  H41 UNL     1     -11.577   7.803  12.907  1.00  0.00     0.157 HD
ENDBRANCH  42  47
ENDBRANCH  32  35
ENDBRANCH   1  31
TORSDOF 10
ENDMDL
