MODEL 1
REMARK VINA RESULT: -7.216953943      0.000      0.000
REMARK  11 active torsions:
REMARK  status: ('A' for Active; 'I' for Inactive)
REMARK    1  A    between atoms: C2_2  and  N1_4 
REMARK    2  A    between atoms: C2_2  and  C4_8 
REMARK    3  A    between atoms: C4_8  and  C5_9 
REMARK       I    between atoms: C5_9  and  N2_11 
REMARK    4  A    between atoms: N2_11  and  C6_13 
REMARK    5  A    between atoms: C10_17  and  N3_18 
REMARK       I    between atoms: N3_18  and  C11_20 
REMARK       I    between atoms: C11_20  and  N5_24 
REMARK    6  A    between atoms: N5_24  and  C12_26 
REMARK    7  A    between atoms: C14_31  and  C15_32 
REMARK    8  A    between atoms: C15_32  and  N7_33 
REMARK    9  A    between atoms: N7_33  and  S1_35 
REMARK   10  A    between atoms: S1_35  and  C16_38 
REMARK   11  A    between atoms: C19_41  and  C20_42 
ROOT
HETATM    1  C12 UNL     1     -14.296  10.314  13.067  1.00  0.00     0.327 C 
HETATM    2  C13 UNL     1     -13.753  11.505  12.305  1.00  0.00     0.289 C 
HETATM    3  N6  UNL     1     -12.430  11.071  11.835  1.00  0.00    -0.041 N 
ATOM      4  H61 UNL     1     -11.645  11.457  12.359  1.00  0.00     0.279 HD
ATOM      5  H62 UNL     1     -12.152  11.456  10.933  1.00  0.00     0.279 HD
HETATM    6  C14 UNL     1     -12.528   9.630  11.871  1.00  0.00     0.403 C 
HETATM    7  N8  UNL     1     -13.125   9.437  13.186  1.00  0.00    -0.021 N 
ATOM      8  H81 UNL     1     -13.318   8.471  13.449  1.00  0.00     0.282 HD
ATOM      9  H82 UNL     1     -12.514   9.617  13.982  1.00  0.00     0.282 HD
ENDROOT
BRANCH   1  10
HETATM   10  N5  UNL     1     -15.305   9.611  12.330  1.00  0.00    -0.196 N 
HETATM   11  C11 UNL     1     -16.578   9.298  12.936  1.00  0.00     0.669 C 
HETATM   12  N3  UNL     1     -16.586   9.428  14.336  1.00  0.00    -0.220 N 
HETATM   13  N4  UNL     1     -17.546   8.958  12.192  1.00  0.00    -0.235 N 
ATOM     14  H3  UNL     1     -16.837  10.333  14.733  1.00  0.00     0.178 HD
ATOM     15  H42 UNL     1     -18.446   8.736  12.621  1.00  0.00     0.174 HD
ATOM     16  H41 UNL     1     -17.540   8.863  11.177  1.00  0.00     0.174 HD
ATOM     17  H5  UNL     1     -15.123   9.330  11.368  1.00  0.00     0.180 HD
BRANCH  12  18
HETATM   18  C10 UNL     1     -16.249   8.317  15.271  1.00  0.00     0.122 C 
HETATM   19  C6  UNL     1     -17.417   8.112  16.148  1.00  0.00     0.107 C 
HETATM   20  C7  UNL     1     -17.331   9.327  17.065  1.00  0.00     0.027 C 
HETATM   21  C8  UNL     1     -15.842   9.510  17.265  1.00  0.00     0.004 C 
HETATM   22  C9  UNL     1     -15.131   8.867  16.131  1.00  0.00     0.028 C 
BRANCH  19  23
HETATM   23  N2  UNL     1     -17.602   6.918  16.878  1.00  0.00    -0.354 N 
HETATM   24  C5  UNL     1     -18.572   5.928  16.849  1.00  0.00     0.220 C 
HETATM   25  O1  UNL     1     -19.531   5.927  16.080  1.00  0.00    -0.274 OA
ATOM     26  H2  UNL     1     -16.871   6.748  17.569  1.00  0.00     0.162 HD
BRANCH  24  27
HETATM   27  C4  UNL     1     -18.490   4.756  17.778  1.00  0.00     0.140 C 
BRANCH  27  28
HETATM   28  C2  UNL     1     -19.547   4.879  18.851  1.00  0.00     0.124 C 
HETATM   29  C1  UNL     1     -19.461   3.816  19.900  1.00  0.00     0.046 C 
HETATM   30  C3  UNL     1     -19.765   6.204  19.458  1.00  0.00     0.046 C 
BRANCH  28  31
HETATM   31  N1  UNL     1     -20.861   4.575  18.145  1.00  0.00    -0.071 N 
ATOM     32  H13 UNL     1     -20.961   3.608  17.837  1.00  0.00     0.275 HD
ATOM     33  H12 UNL     1     -21.679   4.579  18.754  1.00  0.00     0.275 HD
ATOM     34  H11 UNL     1     -20.891   5.263  17.393  1.00  0.00     0.275 HD
ENDBRANCH  28  31
ENDBRANCH  27  28
ENDBRANCH  24  27
ENDBRANCH  19  23
ENDBRANCH  12  18
ENDBRANCH   1  10
BRANCH   6  35
HETATM   35  C15 UNL     1     -11.239   8.904  11.770  1.00  0.00     0.195 C 
BRANCH  35  36
HETATM   36  N7  UNL     1     -10.803   8.261  12.988  1.00  0.00    -0.312 N 
ATOM     37  H7  UNL     1     -10.730   8.687  13.911  1.00  0.00     0.172 HD
BRANCH  36  38
HETATM   38  S1  UNL     1     -10.425   6.597  12.563  1.00  0.00     0.258 S 
HETATM   39  O2  UNL     1     -10.032   6.588  11.137  1.00  0.00    -0.201 OA
HETATM   40  O3  UNL     1      -9.318   6.161  13.453  1.00  0.00    -0.201 OA
BRANCH  38  41
HETATM   41  C16 UNL     1     -11.860   5.647  12.836  1.00  0.00     0.079 A 
HETATM   42  C17 UNL     1     -12.771   6.145  13.762  1.00  0.00     0.026 A 
HETATM   43  C18 UNL     1     -13.935   5.456  14.015  1.00  0.00     0.009 A 
HETATM   44  C19 UNL     1     -14.230   4.254  13.356  1.00  0.00    -0.051 A 
HETATM   45  C24 UNL     1     -13.322   3.783  12.455  1.00  0.00     0.009 A 
HETATM   46  C25 UNL     1     -12.130   4.462  12.177  1.00  0.00     0.026 A 
BRANCH  44  47
HETATM   47  C20 UNL     1     -15.487   3.518  13.610  1.00  0.00    -0.024 C 
HETATM   48  C21 UNL     1     -16.279   3.251  12.354  1.00  0.00     0.019 C 
HETATM   49  C22 UNL     1     -15.205   2.219  14.305  1.00  0.00     0.019 C 
HETATM   50  C23 UNL     1     -16.385   4.331  14.540  1.00  0.00     0.019 C 
ENDBRANCH  44  47
ENDBRANCH  38  41
ENDBRANCH  36  38
ENDBRANCH  35  36
ENDBRANCH   6  35
TORSDOF 11
ENDMDL
MODEL 2
REMARK VINA RESULT: -7.183483475      1.874      2.493
REMARK  11 active torsions:
REMARK  status: ('A' for Active; 'I' for Inactive)
REMARK    1  A    between atoms: C2_2  and  N1_4 
REMARK    2  A    between atoms: C2_2  and  C4_8 
REMARK    3  A    between atoms: C4_8  and  C5_9 
REMARK       I    between atoms: C5_9  and  N2_11 
REMARK    4  A    between atoms: N2_11  and  C6_13 
REMARK    5  A    between atoms: C10_17  and  N3_18 
REMARK       I    between atoms: N3_18  and  C11_20 
REMARK       I    between atoms: C11_20  and  N5_24 
REMARK    6  A    between atoms: N5_24  and  C12_26 
REMARK    7  A    between atoms: C14_31  and  C15_32 
REMARK    8  A    between atoms: C15_32  and  N7_33 
REMARK    9  A    between atoms: N7_33  and  S1_35 
REMARK   10  A    between atoms: S1_35  and  C16_38 
REMARK   11  A    between atoms: C19_41  and  C20_42 
ROOT
HETATM    1  C12 UNL     1     -12.943   7.863  13.410  1.00  0.00     0.327 C 
HETATM    2  C13 UNL     1     -11.996   8.755  12.636  1.00  0.00     0.289 C 
HETATM    3  N6  UNL     1     -10.855   7.890  12.311  1.00  0.00    -0.041 N 
ATOM      4  H61 UNL     1     -10.024   8.049  12.881  1.00  0.00     0.279 HD
ATOM      5  H62 UNL     1     -10.408   8.093  11.417  1.00  0.00     0.279 HD
HETATM    6  C14 UNL     1     -11.412   6.562  12.418  1.00  0.00     0.403 C 
HETATM    7  N8  UNL     1     -12.126   6.674  13.683  1.00  0.00    -0.021 N 
ATOM      8  H81 UNL     1     -12.636   5.843  13.980  1.00  0.00     0.282 HD
ATOM      9  H82 UNL     1     -11.545   6.716  14.519  1.00  0.00     0.282 HD
ENDROOT
BRANCH   1  10
HETATM   10  N5  UNL     1     -14.073   7.457  12.627  1.00  0.00    -0.196 N 
HETATM   11  C11 UNL     1     -15.411   7.537  13.163  1.00  0.00     0.669 C 
HETATM   12  N3  UNL     1     -15.453   7.704  14.558  1.00  0.00    -0.220 N 
HETATM   13  N4  UNL     1     -16.397   7.467  12.370  1.00  0.00    -0.235 N 
ATOM     14  H3  UNL     1     -15.454   8.654  14.929  1.00  0.00     0.178 HD
ATOM     15  H42 UNL     1     -17.343   7.524  12.749  1.00  0.00     0.174 HD
ATOM     16  H41 UNL     1     -16.367   7.346  11.358  1.00  0.00     0.174 HD
ATOM     17  H5  UNL     1     -13.930   7.108  11.679  1.00  0.00     0.180 HD
BRANCH  12  18
HETATM   18  C10 UNL     1     -15.496   6.570  15.525  1.00  0.00     0.122 C 
HETATM   19  C6  UNL     1     -16.636   6.807  16.429  1.00  0.00     0.107 C 
HETATM   20  C7  UNL     1     -16.107   7.940  17.302  1.00  0.00     0.027 C 
HETATM   21  C8  UNL     1     -14.641   7.597  17.469  1.00  0.00     0.004 C 
HETATM   22  C9  UNL     1     -14.233   6.717  16.345  1.00  0.00     0.028 C 
BRANCH  19  23
HETATM   23  N2  UNL     1     -17.204   5.771  17.203  1.00  0.00    -0.354 N 
HETATM   24  C5  UNL     1     -18.483   5.244  17.290  1.00  0.00     0.220 C 
HETATM   25  O1  UNL     1     -19.434   5.631  16.616  1.00  0.00    -0.274 OA
ATOM     26  H2  UNL     1     -16.536   5.318  17.826  1.00  0.00     0.162 HD
BRANCH  24  27
HETATM   27  C4  UNL     1     -18.779   4.120  18.237  1.00  0.00     0.140 C 
BRANCH  27  28
HETATM   28  C2  UNL     1     -19.785   4.573  19.269  1.00  0.00     0.124 C 
HETATM   29  C1  UNL     1     -19.874   3.666  20.455  1.00  0.00     0.046 C 
HETATM   30  C3  UNL     1     -19.759   5.987  19.685  1.00  0.00     0.046 C 
BRANCH  28  31
HETATM   31  N1  UNL     1     -21.140   4.411  18.595  1.00  0.00    -0.071 N 
ATOM     32  H13 UNL     1     -21.098   4.029  17.650  1.00  0.00     0.275 HD
ATOM     33  H12 UNL     1     -21.719   3.668  18.986  1.00  0.00     0.275 HD
ATOM     34  H11 UNL     1     -21.549   5.342  18.657  1.00  0.00     0.275 HD
ENDBRANCH  28  31
ENDBRANCH  27  28
ENDBRANCH  24  27
ENDBRANCH  19  23
ENDBRANCH  12  18
ENDBRANCH   1  10
BRANCH   6  35
HETATM   35  C15 UNL     1     -10.421   5.460  12.472  1.00  0.00     0.195 C 
BRANCH  35  36
HETATM   36  N7  UNL     1     -10.938   4.155  12.128  1.00  0.00    -0.312 N 
ATOM     37  H7  UNL     1     -10.668   3.263  12.542  1.00  0.00     0.172 HD
BRANCH  36  38
HETATM   38  S1  UNL     1     -12.124   4.410  10.856  1.00  0.00     0.258 S 
HETATM   39  O2  UNL     1     -12.030   5.829  10.448  1.00  0.00    -0.201 OA
HETATM   40  O3  UNL     1     -11.780   3.483   9.748  1.00  0.00    -0.201 OA
BRANCH  38  41
HETATM   41  C16 UNL     1     -13.693   4.038  11.520  1.00  0.00     0.079 A 
HETATM   42  C17 UNL     1     -13.727   3.630  12.849  1.00  0.00     0.026 A 
HETATM   43  C18 UNL     1     -14.932   3.338  13.444  1.00  0.00     0.009 A 
HETATM   44  C19 UNL     1     -16.140   3.443  12.738  1.00  0.00    -0.051 A 
HETATM   45  C24 UNL     1     -16.082   3.842  11.436  1.00  0.00     0.009 A 
HETATM   46  C25 UNL     1     -14.871   4.147  10.805  1.00  0.00     0.026 A 
BRANCH  44  47
HETATM   47  C20 UNL     1     -17.440   3.147  13.376  1.00  0.00    -0.024 C 
HETATM   48  C21 UNL     1     -18.336   2.286  12.520  1.00  0.00     0.019 C 
HETATM   49  C22 UNL     1     -17.235   2.482  14.705  1.00  0.00     0.019 C 
HETATM   50  C23 UNL     1     -18.195   4.448  13.644  1.00  0.00     0.019 C 
ENDBRANCH  44  47
ENDBRANCH  38  41
ENDBRANCH  36  38
ENDBRANCH  35  36
ENDBRANCH   6  35
TORSDOF 11
ENDMDL
MODEL 3
REMARK VINA RESULT: -7.149745694      7.044     10.017
REMARK  11 active torsions:
REMARK  status: ('A' for Active; 'I' for Inactive)
REMARK    1  A    between atoms: C2_2  and  N1_4 
REMARK    2  A    between atoms: C2_2  and  C4_8 
REMARK    3  A    between atoms: C4_8  and  C5_9 
REMARK       I    between atoms: C5_9  and  N2_11 
REMARK    4  A    between atoms: N2_11  and  C6_13 
REMARK    5  A    between atoms: C10_17  and  N3_18 
REMARK       I    between atoms: N3_18  and  C11_20 
REMARK       I    between atoms: C11_20  and  N5_24 
REMARK    6  A    between atoms: N5_24  and  C12_26 
REMARK    7  A    between atoms: C14_31  and  C15_32 
REMARK    8  A    between atoms: C15_32  and  N7_33 
REMARK    9  A    between atoms: N7_33  and  S1_35 
REMARK   10  A    between atoms: S1_35  and  C16_38 
REMARK   11  A    between atoms: C19_41  and  C20_42 
ROOT
HETATM    1  C12 UNL     1     -19.376   3.034  11.607  1.00  0.00     0.327 C 
HETATM    2  C13 UNL     1     -20.845   2.672  11.553  1.00  0.00     0.289 C 
HETATM    3  N6  UNL     1     -21.041   2.123  10.205  1.00  0.00    -0.041 N 
ATOM      4  H61 UNL     1     -21.504   2.755   9.552  1.00  0.00     0.279 HD
ATOM      5  H62 UNL     1     -21.739   1.382  10.145  1.00  0.00     0.279 HD
HETATM    6  C14 UNL     1     -19.707   1.728   9.818  1.00  0.00     0.403 C 
HETATM    7  N8  UNL     1     -18.955   2.913  10.207  1.00  0.00    -0.021 N 
ATOM      8  H81 UNL     1     -17.949   2.873  10.047  1.00  0.00     0.282 HD
ATOM      9  H82 UNL     1     -19.096   3.740   9.627  1.00  0.00     0.282 HD
ENDROOT
BRANCH   1  10
HETATM   10  N5  UNL     1     -18.614   2.101  12.384  1.00  0.00    -0.196 N 
HETATM   11  C11 UNL     1     -17.926   2.524  13.582  1.00  0.00     0.669 C 
HETATM   12  N3  UNL     1     -17.798   3.919  13.698  1.00  0.00    -0.220 N 
HETATM   13  N4  UNL     1     -17.522   1.646  14.402  1.00  0.00    -0.235 N 
ATOM     14  H3  UNL     1     -18.540   4.432  14.173  1.00  0.00     0.178 HD
ATOM     15  H42 UNL     1     -17.037   1.945  15.248  1.00  0.00     0.174 HD
ATOM     16  H41 UNL     1     -17.615   0.634  14.317  1.00  0.00     0.174 HD
ATOM     17  H5  UNL     1     -18.557   1.127  12.088  1.00  0.00     0.180 HD
BRANCH  12  18
HETATM   18  C10 UNL     1     -16.638   4.690  13.165  1.00  0.00     0.122 C 
HETATM   19  C6  UNL     1     -15.565   4.622  14.174  1.00  0.00     0.107 C 
HETATM   20  C7  UNL     1     -16.095   5.563  15.251  1.00  0.00     0.027 C 
HETATM   21  C8  UNL     1     -16.770   6.660  14.455  1.00  0.00     0.004 C 
HETATM   22  C9  UNL     1     -17.121   6.123  13.116  1.00  0.00     0.028 C 
BRANCH  19  23
HETATM   23  N2  UNL     1     -14.219   4.900  13.853  1.00  0.00    -0.354 N 
HETATM   24  C5  UNL     1     -13.304   4.302  12.999  1.00  0.00     0.220 C 
HETATM   25  O1  UNL     1     -13.556   3.330  12.292  1.00  0.00    -0.274 OA
ATOM     26  H2  UNL     1     -13.841   5.705  14.351  1.00  0.00     0.162 HD
BRANCH  24  27
HETATM   27  C4  UNL     1     -11.912   4.844  12.879  1.00  0.00     0.140 C 
BRANCH  27  28
HETATM   28  C2  UNL     1     -11.700   5.405  11.492  1.00  0.00     0.124 C 
HETATM   29  C1  UNL     1     -12.922   6.045  10.914  1.00  0.00     0.046 C 
HETATM   30  C3  UNL     1     -10.506   6.236  11.258  1.00  0.00     0.046 C 
BRANCH  28  31
HETATM   31  N1  UNL     1     -11.484   4.188  10.604  1.00  0.00    -0.071 N 
ATOM     32  H13 UNL     1     -11.762   3.302  11.027  1.00  0.00     0.275 HD
ATOM     33  H12 UNL     1     -12.116   4.129   9.806  1.00  0.00     0.275 HD
ATOM     34  H11 UNL     1     -10.496   4.246  10.358  1.00  0.00     0.275 HD
ENDBRANCH  28  31
ENDBRANCH  27  28
ENDBRANCH  24  27
ENDBRANCH  19  23
ENDBRANCH  12  18
ENDBRANCH   1  10
BRANCH   6  35
HETATM   35  C15 UNL     1     -19.524   1.443   8.374  1.00  0.00     0.195 C 
BRANCH  35  36
HETATM   36  N7  UNL     1     -18.648   0.333   8.076  1.00  0.00    -0.312 N 
ATOM     37  H7  UNL     1     -18.784  -0.642   8.345  1.00  0.00     0.172 HD
BRANCH  36  38
HETATM   38  S1  UNL     1     -17.303   0.993   7.157  1.00  0.00     0.258 S 
HETATM   39  O2  UNL     1     -17.284   2.453   7.397  1.00  0.00    -0.201 OA
HETATM   40  O3  UNL     1     -16.070   0.327   7.651  1.00  0.00    -0.201 OA
BRANCH  38  41
HETATM   41  C16 UNL     1     -17.585   0.624   5.477  1.00  0.00     0.079 A 
HETATM   42  C17 UNL     1     -18.506  -0.381   5.205  1.00  0.00     0.026 A 
HETATM   43  C18 UNL     1     -18.790  -0.713   3.901  1.00  0.00     0.009 A 
HETATM   44  C19 UNL     1     -18.171  -0.056   2.828  1.00  0.00    -0.051 A 
HETATM   45  C24 UNL     1     -17.270   0.925   3.118  1.00  0.00     0.009 A 
HETATM   46  C25 UNL     1     -16.961   1.284   4.435  1.00  0.00     0.026 A 
BRANCH  44  47
HETATM   47  C20 UNL     1     -18.486  -0.395   1.424  1.00  0.00    -0.024 C 
HETATM   48  C21 UNL     1     -19.683   0.352   0.889  1.00  0.00     0.019 C 
HETATM   49  C22 UNL     1     -17.302  -0.133   0.540  1.00  0.00     0.019 C 
HETATM   50  C23 UNL     1     -18.803  -1.885   1.308  1.00  0.00     0.019 C 
ENDBRANCH  44  47
ENDBRANCH  38  41
ENDBRANCH  36  38
ENDBRANCH  35  36
ENDBRANCH   6  35
TORSDOF 11
ENDMDL
MODEL 4
REMARK VINA RESULT: -7.040238171      6.497      9.685
REMARK  11 active torsions:
REMARK  status: ('A' for Active; 'I' for Inactive)
REMARK    1  A    between atoms: C2_2  and  N1_4 
REMARK    2  A    between atoms: C2_2  and  C4_8 
REMARK    3  A    between atoms: C4_8  and  C5_9 
REMARK       I    between atoms: C5_9  and  N2_11 
REMARK    4  A    between atoms: N2_11  and  C6_13 
REMARK    5  A    between atoms: C10_17  and  N3_18 
REMARK       I    between atoms: N3_18  and  C11_20 
REMARK       I    between atoms: C11_20  and  N5_24 
REMARK    6  A    between atoms: N5_24  and  C12_26 
REMARK    7  A    between atoms: C14_31  and  C15_32 
REMARK    8  A    between atoms: C15_32  and  N7_33 
REMARK    9  A    between atoms: N7_33  and  S1_35 
REMARK   10  A    between atoms: S1_35  and  C16_38 
REMARK   11  A    between atoms: C19_41  and  C20_42 
ROOT
HETATM    1  C12 UNL     1     -17.600   3.206  12.677  1.00  0.00     0.327 C 
HETATM    2  C13 UNL     1     -18.620   2.126  12.969  1.00  0.00     0.289 C 
HETATM    3  N6  UNL     1     -19.146   1.748  11.650  1.00  0.00    -0.041 N 
ATOM      4  H61 UNL     1     -20.073   2.117  11.441  1.00  0.00     0.279 HD
ATOM      5  H62 UNL     1     -19.402   0.765  11.560  1.00  0.00     0.279 HD
HETATM    6  C14 UNL     1     -18.106   2.185  10.748  1.00  0.00     0.403 C 
HETATM    7  N8  UNL     1     -17.849   3.522  11.266  1.00  0.00    -0.021 N 
ATOM      8  H81 UNL     1     -17.115   4.048  10.792  1.00  0.00     0.282 HD
ATOM      9  H82 UNL     1     -18.575   4.215  11.087  1.00  0.00     0.282 HD
ENDROOT
BRANCH   1  10
HETATM   10  N5  UNL     1     -16.253   2.729  12.796  1.00  0.00    -0.196 N 
HETATM   11  C11 UNL     1     -15.380   3.231  13.831  1.00  0.00     0.669 C 
HETATM   12  N3  UNL     1     -15.842   4.411  14.438  1.00  0.00    -0.220 N 
HETATM   13  N4  UNL     1     -14.321   2.592  14.106  1.00  0.00    -0.235 N 
ATOM     14  H3  UNL     1     -16.446   4.326  15.256  1.00  0.00     0.178 HD
ATOM     15  H42 UNL     1     -13.703   2.947  14.837  1.00  0.00     0.174 HD
ATOM     16  H41 UNL     1     -13.985   1.736  13.665  1.00  0.00     0.174 HD
ATOM     17  H5  UNL     1     -15.908   2.026  12.143  1.00  0.00     0.180 HD
BRANCH  12  18
HETATM   18  C10 UNL     1     -15.500   5.779  13.954  1.00  0.00     0.122 C 
HETATM   19  C6  UNL     1     -14.127   6.074  14.405  1.00  0.00     0.107 C 
HETATM   20  C7  UNL     1     -14.339   6.316  15.896  1.00  0.00     0.027 C 
HETATM   21  C8  UNL     1     -15.676   7.025  15.949  1.00  0.00     0.004 C 
HETATM   22  C9  UNL     1     -16.431   6.698  14.714  1.00  0.00     0.028 C 
BRANCH  19  23
HETATM   23  N2  UNL     1     -13.350   7.093  13.815  1.00  0.00    -0.354 N 
HETATM   24  C5  UNL     1     -12.049   7.139  13.338  1.00  0.00     0.220 C 
HETATM   25  O1  UNL     1     -11.282   6.179  13.339  1.00  0.00    -0.274 OA
ATOM     26  H2  UNL     1     -13.847   7.979  13.721  1.00  0.00     0.162 HD
BRANCH  24  27
HETATM   27  C4  UNL     1     -11.496   8.405  12.758  1.00  0.00     0.140 C 
BRANCH  27  28
HETATM   28  C2  UNL     1     -11.538   8.337  11.249  1.00  0.00     0.124 C 
HETATM   29  C1  UNL     1     -12.832   7.812  10.711  1.00  0.00     0.046 C 
HETATM   30  C3  UNL     1     -11.092   9.520  10.491  1.00  0.00     0.046 C 
BRANCH  28  31
HETATM   31  N1  UNL     1     -10.534   7.257  10.876  1.00  0.00    -0.071 N 
ATOM     32  H13 UNL     1     -10.157   6.738  11.670  1.00  0.00     0.275 HD
ATOM     33  H12 UNL     1     -10.938   6.449  10.402  1.00  0.00     0.275 HD
ATOM     34  H11 UNL     1      -9.835   7.760  10.330  1.00  0.00     0.275 HD
ENDBRANCH  28  31
ENDBRANCH  27  28
ENDBRANCH  24  27
ENDBRANCH  19  23
ENDBRANCH  12  18
ENDBRANCH   1  10
BRANCH   6  35
HETATM   35  C15 UNL     1     -18.491   2.243   9.317  1.00  0.00     0.195 C 
BRANCH  35  36
HETATM   36  N7  UNL     1     -18.331   1.004   8.591  1.00  0.00    -0.312 N 
ATOM     37  H7  UNL     1     -18.879   0.152   8.709  1.00  0.00     0.172 HD
BRANCH  36  38
HETATM   38  S1  UNL     1     -17.006   1.256   7.463  1.00  0.00     0.258 S 
HETATM   39  O2  UNL     1     -16.646   2.689   7.526  1.00  0.00    -0.201 OA
HETATM   40  O3  UNL     1     -15.890   0.377   7.899  1.00  0.00    -0.201 OA
BRANCH  38  41
HETATM   41  C16 UNL     1     -17.574   0.808   5.878  1.00  0.00     0.079 A 
HETATM   42  C17 UNL     1     -17.151   1.599   4.816  1.00  0.00     0.026 A 
HETATM   43  C18 UNL     1     -17.546   1.293   3.535  1.00  0.00     0.009 A 
HETATM   44  C19 UNL     1     -18.373   0.192   3.268  1.00  0.00    -0.051 A 
HETATM   45  C24 UNL     1     -18.778  -0.568   4.324  1.00  0.00     0.009 A 
HETATM   46  C25 UNL     1     -18.391  -0.282   5.639  1.00  0.00     0.026 A 
BRANCH  44  47
HETATM   47  C20 UNL     1     -18.787  -0.152   1.892  1.00  0.00    -0.024 C 
HETATM   48  C21 UNL     1     -18.747  -1.636   1.616  1.00  0.00     0.019 C 
HETATM   49  C22 UNL     1     -20.166   0.367   1.610  1.00  0.00     0.019 C 
HETATM   50  C23 UNL     1     -17.849   0.513   0.886  1.00  0.00     0.019 C 
ENDBRANCH  44  47
ENDBRANCH  38  41
ENDBRANCH  36  38
ENDBRANCH  35  36
ENDBRANCH   6  35
TORSDOF 11
ENDMDL
MODEL 5
REMARK VINA RESULT: -7.016693831      4.569      7.085
REMARK  11 active torsions:
REMARK  status: ('A' for Active; 'I' for Inactive)
REMARK    1  A    between atoms: C2_2  and  N1_4 
REMARK    2  A    between atoms: C2_2  and  C4_8 
REMARK    3  A    between atoms: C4_8  and  C5_9 
REMARK       I    between atoms: C5_9  and  N2_11 
REMARK    4  A    between atoms: N2_11  and  C6_13 
REMARK    5  A    between atoms: C10_17  and  N3_18 
REMARK       I    between atoms: N3_18  and  C11_20 
REMARK       I    between atoms: C11_20  and  N5_24 
REMARK    6  A    between atoms: N5_24  and  C12_26 
REMARK    7  A    between atoms: C14_31  and  C15_32 
REMARK    8  A    between atoms: C15_32  and  N7_33 
REMARK    9  A    between atoms: N7_33  and  S1_35 
REMARK   10  A    between atoms: S1_35  and  C16_38 
REMARK   11  A    between atoms: C19_41  and  C20_42 
ROOT
HETATM    1  C12 UNL     1     -18.956   2.648  10.738  1.00  0.00     0.327 C 
HETATM    2  C13 UNL     1     -20.301   2.354  10.107  1.00  0.00     0.289 C 
HETATM    3  N6  UNL     1     -19.980   1.902   8.747  1.00  0.00    -0.041 N 
ATOM      4  H61 UNL     1     -20.151   2.594   8.017  1.00  0.00     0.279 HD
ATOM      5  H62 UNL     1     -20.614   1.197   8.372  1.00  0.00     0.279 HD
HETATM    6  C14 UNL     1     -18.605   1.476   8.862  1.00  0.00     0.403 C 
HETATM    7  N8  UNL     1     -18.037   2.600   9.595  1.00  0.00    -0.021 N 
ATOM      8  H81 UNL     1     -17.046   2.527   9.823  1.00  0.00     0.282 HD
ATOM      9  H82 UNL     1     -17.936   3.468   9.069  1.00  0.00     0.282 HD
ENDROOT
BRANCH   1  10
HETATM   10  N5  UNL     1     -18.559   1.635  11.671  1.00  0.00    -0.196 N 
HETATM   11  C11 UNL     1     -18.592   1.885  13.093  1.00  0.00     0.669 C 
HETATM   12  N3  UNL     1     -18.703   3.246  13.425  1.00  0.00    -0.220 N 
HETATM   13  N4  UNL     1     -18.534   0.904  13.892  1.00  0.00    -0.235 N 
ATOM     14  H3  UNL     1     -19.638   3.642  13.528  1.00  0.00     0.178 HD
ATOM     15  H42 UNL     1     -18.557   1.081  14.897  1.00  0.00     0.174 HD
ATOM     16  H41 UNL     1     -18.453  -0.084  13.651  1.00  0.00     0.174 HD
ATOM     17  H5  UNL     1     -18.251   0.726  11.327  1.00  0.00     0.180 HD
BRANCH  12  18
HETATM   18  C10 UNL     1     -17.531   4.144  13.635  1.00  0.00     0.122 C 
HETATM   19  C6  UNL     1     -17.766   4.886  14.888  1.00  0.00     0.107 C 
HETATM   20  C7  UNL     1     -18.844   5.877  14.461  1.00  0.00     0.027 C 
HETATM   21  C8  UNL     1     -18.449   6.235  13.044  1.00  0.00     0.004 C 
HETATM   22  C9  UNL     1     -17.605   5.142  12.500  1.00  0.00     0.028 C 
BRANCH  19  23
HETATM   23  N2  UNL     1     -16.717   5.523  15.587  1.00  0.00    -0.354 N 
HETATM   24  C5  UNL     1     -16.608   6.041  16.868  1.00  0.00     0.220 C 
HETATM   25  O1  UNL     1     -17.509   6.010  17.701  1.00  0.00    -0.274 OA
ATOM     26  H2  UNL     1     -15.865   5.622  15.036  1.00  0.00     0.162 HD
BRANCH  24  27
HETATM   27  C4  UNL     1     -15.329   6.676  17.324  1.00  0.00     0.140 C 
BRANCH  27  28
HETATM   28  C2  UNL     1     -15.417   8.175  17.164  1.00  0.00     0.124 C 
HETATM   29  C1  UNL     1     -14.230   8.905  17.708  1.00  0.00     0.046 C 
HETATM   30  C3  UNL     1     -15.807   8.707  15.846  1.00  0.00     0.046 C 
BRANCH  28  31
HETATM   31  N1  UNL     1     -16.550   8.603  18.086  1.00  0.00    -0.071 N 
ATOM     32  H13 UNL     1     -17.369   7.996  18.059  1.00  0.00     0.275 HD
ATOM     33  H12 UNL     1     -16.356   8.478  19.079  1.00  0.00     0.275 HD
ATOM     34  H11 UNL     1     -16.730   9.568  17.809  1.00  0.00     0.275 HD
ENDBRANCH  28  31
ENDBRANCH  27  28
ENDBRANCH  24  27
ENDBRANCH  19  23
ENDBRANCH  12  18
ENDBRANCH   1  10
BRANCH   6  35
HETATM   35  C15 UNL     1     -17.893   1.277   7.576  1.00  0.00     0.195 C 
BRANCH  35  36
HETATM   36  N7  UNL     1     -17.116   2.410   7.126  1.00  0.00    -0.312 N 
ATOM     37  H7  UNL     1     -17.473   3.321   6.841  1.00  0.00     0.172 HD
BRANCH  36  38
HETATM   38  S1  UNL     1     -15.432   1.905   7.169  1.00  0.00     0.258 S 
HETATM   39  O2  UNL     1     -15.402   0.526   7.701  1.00  0.00    -0.201 OA
HETATM   40  O3  UNL     1     -14.920   1.981   5.776  1.00  0.00    -0.201 OA
BRANCH  38  41
HETATM   41  C16 UNL     1     -14.580   3.012   8.211  1.00  0.00     0.079 A 
HETATM   42  C17 UNL     1     -15.280   4.137   8.633  1.00  0.00     0.026 A 
HETATM   43  C18 UNL     1     -14.675   5.044   9.472  1.00  0.00     0.009 A 
HETATM   44  C19 UNL     1     -13.358   4.862   9.918  1.00  0.00    -0.051 A 
HETATM   45  C24 UNL     1     -12.690   3.754   9.490  1.00  0.00     0.009 A 
HETATM   46  C25 UNL     1     -13.280   2.813   8.637  1.00  0.00     0.026 A 
BRANCH  44  47
HETATM   47  C20 UNL     1     -12.709   5.824  10.833  1.00  0.00    -0.024 C 
HETATM   48  C21 UNL     1     -12.597   7.211  10.250  1.00  0.00     0.019 C 
HETATM   49  C22 UNL     1     -13.448   5.891  12.137  1.00  0.00     0.019 C 
HETATM   50  C23 UNL     1     -11.289   5.359  11.152  1.00  0.00     0.019 C 
ENDBRANCH  44  47
ENDBRANCH  38  41
ENDBRANCH  36  38
ENDBRANCH  35  36
ENDBRANCH   6  35
TORSDOF 11
ENDMDL
