MODEL 1
REMARK VINA RESULT: -12.415543297      0.000      0.000
REMARK  4 active torsions:
REMARK  status: ('A' for Active; 'I' for Inactive)
REMARK    1  A    between atoms: C4_5  and  N1_6 
REMARK    2  A    between atoms: N1_6  and  N2_8 
REMARK    3  A    between atoms: C7_12  and  C8_13 
REMARK    4  A    between atoms: C15_20  and  C16_21 
ROOT
HETATM    1  N2  UNL     1      12.745  -1.381  29.392  1.00  0.00    -0.289 N 
ATOM      2  H2  UNL     1      12.948  -1.158  28.418  1.00  0.00     0.188 HD
HETATM    3  C5  UNL     1      11.950  -0.594  29.989  1.00  0.00     0.092 C 
HETATM    4  C6  UNL     1      11.394   0.566  29.228  1.00  0.00     0.082 C 
HETATM    5  C7  UNL     1      10.057   0.876  29.824  1.00  0.00    -0.002 C 
HETATM    6  C14 UNL     1      10.153   1.298  31.248  1.00  0.00     0.031 C 
HETATM    7  C15 UNL     1      11.140   0.450  32.038  1.00  0.00     0.087 C 
HETATM    8  N3  UNL     1      11.539  -0.733  31.349  1.00  0.00    -0.374 N 
ATOM      9  H3  UNL     1      11.531  -1.643  31.811  1.00  0.00     0.161 HD
ENDROOT
BRANCH   1  10
HETATM   10  N1  UNL     1      13.366  -2.498  29.899  1.00  0.00    -0.298 N 
ATOM     11  H1  UNL     1      12.855  -3.174  30.467  1.00  0.00     0.187 HD
BRANCH  10  12
HETATM   12  C4  UNL     1      14.745  -2.680  29.606  1.00  0.00     0.070 A 
HETATM   13  C3  UNL     1      15.537  -1.599  29.303  1.00  0.00     0.036 A 
HETATM   14  C2  UNL     1      16.880  -1.773  29.016  1.00  0.00     0.044 A 
HETATM   15  C1  UNL     1      17.395  -3.051  29.043  1.00  0.00     0.118 A 
HETATM   16  F1  UNL     1      18.725  -3.207  28.758  1.00  0.00    -0.206 F 
HETATM   17  C23 UNL     1      16.612  -4.131  29.343  1.00  0.00     0.068 A 
HETATM   18  C22 UNL     1      15.264  -3.953  29.631  1.00  0.00     0.065 A 
HETATM   19 CL1  UNL     1      14.261  -5.329  30.015  1.00  0.00    -0.082 Cl
ENDBRANCH  10  12
ENDBRANCH   1  10
BRANCH   5  20
HETATM   20  C8  UNL     1       9.261   1.885  29.042  1.00  0.00    -0.010 C 
HETATM   21  C9  UNL     1       9.591   3.316  29.392  1.00  0.00     0.005 C 
HETATM   22  C10 UNL     1       8.389   4.161  28.952  1.00  0.00     0.000 C 
HETATM   23  C11 UNL     1       7.818   3.631  27.679  1.00  0.00     0.000 C 
HETATM   24  C12 UNL     1       8.816   2.853  26.847  1.00  0.00     0.000 C 
HETATM   25  C13 UNL     1       9.304   1.620  27.563  1.00  0.00     0.005 C 
ENDBRANCH   5  20
BRANCH   7  26
HETATM   26  C16 UNL     1      10.573   0.238  33.404  1.00  0.00     0.008 C 
HETATM   27  C17 UNL     1      11.053   1.278  34.384  1.00  0.00     0.007 C 
HETATM   28  C18 UNL     1      10.275   1.257  35.661  1.00  0.00     0.000 C 
HETATM   29  C19 UNL     1       8.821   1.526  35.311  1.00  0.00     0.000 C 
HETATM   30  C20 UNL     1       8.339   0.288  34.562  1.00  0.00     0.000 C 
HETATM   31  C21 UNL     1       9.070   0.238  33.257  1.00  0.00     0.007 C 
ENDBRANCH   7  26
TORSDOF 4
ENDMDL
MODEL 2
REMARK VINA RESULT: -11.949771583      1.164      4.570
REMARK  4 active torsions:
REMARK  status: ('A' for Active; 'I' for Inactive)
REMARK    1  A    between atoms: C4_5  and  N1_6 
REMARK    2  A    between atoms: N1_6  and  N2_8 
REMARK    3  A    between atoms: C7_12  and  C8_13 
REMARK    4  A    between atoms: C15_20  and  C16_21 
ROOT
HETATM    1  N2  UNL     1      12.634  -1.521  30.226  1.00  0.00    -0.289 N 
ATOM      2  H2  UNL     1      12.854  -2.024  31.086  1.00  0.00     0.188 HD
HETATM    3  C5  UNL     1      11.734  -0.633  30.316  1.00  0.00     0.092 C 
HETATM    4  C6  UNL     1      11.089  -0.406  31.646  1.00  0.00     0.082 C 
HETATM    5  C7  UNL     1      10.661   1.027  31.683  1.00  0.00    -0.002 C 
HETATM    6  C14 UNL     1       9.639   1.342  30.647  1.00  0.00     0.031 C 
HETATM    7  C15 UNL     1       9.956   0.696  29.306  1.00  0.00     0.087 C 
HETATM    8  N3  UNL     1      11.284   0.180  29.232  1.00  0.00    -0.374 N 
ATOM      9  H3  UNL     1      11.888   0.384  28.436  1.00  0.00     0.161 HD
ENDROOT
BRANCH   1  10
HETATM   10  N1  UNL     1      13.348  -1.889  29.110  1.00  0.00    -0.298 N 
ATOM     11  H1  UNL     1      12.927  -1.860  28.181  1.00  0.00     0.187 HD
BRANCH  10  12
HETATM   12  C4  UNL     1      14.694  -2.310  29.294  1.00  0.00     0.070 A 
HETATM   13  C3  UNL     1      15.726  -1.417  29.140  1.00  0.00     0.036 A 
HETATM   14  C2  UNL     1      17.037  -1.823  29.318  1.00  0.00     0.044 A 
HETATM   15  C1  UNL     1      17.275  -3.140  29.651  1.00  0.00     0.118 A 
HETATM   16  F1  UNL     1      18.576  -3.527  29.824  1.00  0.00    -0.206 F 
HETATM   17  C23 UNL     1      16.252  -4.033  29.805  1.00  0.00     0.068 A 
HETATM   18  C22 UNL     1      14.937  -3.622  29.625  1.00  0.00     0.065 A 
HETATM   19 CL1  UNL     1      13.627  -4.760  29.821  1.00  0.00    -0.082 Cl
ENDBRANCH  10  12
ENDBRANCH   1  10
BRANCH   5  20
HETATM   20  C8  UNL     1      10.181   1.483  33.033  1.00  0.00    -0.010 C 
HETATM   21  C9  UNL     1       9.597   2.876  33.027  1.00  0.00     0.005 C 
HETATM   22  C10 UNL     1       9.662   3.383  34.472  1.00  0.00     0.000 C 
HETATM   23  C11 UNL     1       9.383   2.270  35.428  1.00  0.00     0.000 C 
HETATM   24  C12 UNL     1       8.560   1.150  34.827  1.00  0.00     0.000 C 
HETATM   25  C13 UNL     1       9.279   0.475  33.687  1.00  0.00     0.005 C 
ENDBRANCH   5  20
BRANCH   7  26
HETATM   26  C16 UNL     1       9.583   1.663  28.230  1.00  0.00     0.008 C 
HETATM   27  C17 UNL     1       8.414   2.528  28.628  1.00  0.00     0.007 C 
HETATM   28  C18 UNL     1       8.221   3.684  27.699  1.00  0.00     0.000 C 
HETATM   29  C19 UNL     1       9.495   4.510  27.730  1.00  0.00     0.000 C 
HETATM   30  C20 UNL     1      10.559   3.658  27.046  1.00  0.00     0.000 C 
HETATM   31  C21 UNL     1      10.820   2.473  27.924  1.00  0.00     0.007 C 
ENDBRANCH   7  26
TORSDOF 4
ENDMDL
MODEL 3
REMARK VINA RESULT: -11.879267072      1.681      4.898
REMARK  4 active torsions:
REMARK  status: ('A' for Active; 'I' for Inactive)
REMARK    1  A    between atoms: C4_5  and  N1_6 
REMARK    2  A    between atoms: N1_6  and  N2_8 
REMARK    3  A    between atoms: C7_12  and  C8_13 
REMARK    4  A    between atoms: C15_20  and  C16_21 
ROOT
HETATM    1  N2  UNL     1      12.815  -1.332  30.380  1.00  0.00    -0.289 N 
ATOM      2  H2  UNL     1      12.976  -1.856  31.240  1.00  0.00     0.188 HD
HETATM    3  C5  UNL     1      11.814  -0.555  30.380  1.00  0.00     0.092 C 
HETATM    4  C6  UNL     1      10.976  -0.477  31.616  1.00  0.00     0.082 C 
HETATM    5  C7  UNL     1      10.383   0.896  31.653  1.00  0.00    -0.002 C 
HETATM    6  C14 UNL     1       9.478   1.156  30.499  1.00  0.00     0.031 C 
HETATM    7  C15 UNL     1      10.045   0.626  29.189  1.00  0.00     0.087 C 
HETATM    8  N3  UNL     1      11.421   0.264  29.279  1.00  0.00    -0.374 N 
ATOM      9  H3  UNL     1      12.098   0.578  28.584  1.00  0.00     0.161 HD
ENDROOT
BRANCH   1  10
HETATM   10  N1  UNL     1      13.710  -1.555  29.359  1.00  0.00    -0.298 N 
ATOM     11  H1  UNL     1      13.912  -0.833  28.667  1.00  0.00     0.187 HD
BRANCH  10  12
HETATM   12  C4  UNL     1      14.346  -2.825  29.301  1.00  0.00     0.070 A 
HETATM   13  C3  UNL     1      13.595  -3.973  29.232  1.00  0.00     0.036 A 
HETATM   14  C2  UNL     1      14.210  -5.211  29.175  1.00  0.00     0.044 A 
HETATM   15  C1  UNL     1      15.588  -5.259  29.191  1.00  0.00     0.118 A 
HETATM   16  F1  UNL     1      16.183  -6.491  29.135  1.00  0.00    -0.206 F 
HETATM   17  C23 UNL     1      16.341  -4.120  29.260  1.00  0.00     0.068 A 
HETATM   18  C22 UNL     1      15.720  -2.879  29.317  1.00  0.00     0.065 A 
HETATM   19 CL1  UNL     1      16.678  -1.422  29.405  1.00  0.00    -0.082 Cl
ENDBRANCH  10  12
ENDBRANCH   1  10
BRANCH   5  20
HETATM   20  C8  UNL     1       9.677   1.219  32.941  1.00  0.00    -0.010 C 
HETATM   21  C9  UNL     1       8.214   1.547  32.762  1.00  0.00     0.005 C 
HETATM   22  C10 UNL     1       7.791   2.346  34.000  1.00  0.00     0.000 C 
HETATM   23  C11 UNL     1       8.476   1.822  35.219  1.00  0.00     0.000 C 
HETATM   24  C12 UNL     1       8.902   0.373  35.095  1.00  0.00     0.000 C 
HETATM   25  C13 UNL     1       9.918   0.179  33.998  1.00  0.00     0.005 C 
ENDBRANCH   5  20
BRANCH   7  26
HETATM   26  C16 UNL     1       9.707   1.606  28.114  1.00  0.00     0.008 C 
HETATM   27  C17 UNL     1       8.442   2.368  28.418  1.00  0.00     0.007 C 
HETATM   28  C18 UNL     1       8.255   3.542  27.512  1.00  0.00     0.000 C 
HETATM   29  C19 UNL     1       9.453   4.457  27.701  1.00  0.00     0.000 C 
HETATM   30  C20 UNL     1      10.642   3.713  27.102  1.00  0.00     0.000 C 
HETATM   31  C21 UNL     1      10.903   2.516  27.962  1.00  0.00     0.007 C 
ENDBRANCH   7  26
TORSDOF 4
ENDMDL
MODEL 4
REMARK VINA RESULT: -11.802065612      0.705      1.122
REMARK  4 active torsions:
REMARK  status: ('A' for Active; 'I' for Inactive)
REMARK    1  A    between atoms: C4_5  and  N1_6 
REMARK    2  A    between atoms: N1_6  and  N2_8 
REMARK    3  A    between atoms: C7_12  and  C8_13 
REMARK    4  A    between atoms: C15_20  and  C16_21 
ROOT
HETATM    1  N2  UNL     1      12.679  -1.173  29.713  1.00  0.00    -0.289 N 
ATOM      2  H2  UNL     1      12.832  -1.056  28.712  1.00  0.00     0.188 HD
HETATM    3  C5  UNL     1      11.900  -0.334  30.258  1.00  0.00     0.092 C 
HETATM    4  C6  UNL     1      11.290   0.729  29.402  1.00  0.00     0.082 C 
HETATM    5  C7  UNL     1       9.977   1.087  30.024  1.00  0.00    -0.002 C 
HETATM    6  C14 UNL     1      10.133   1.665  31.387  1.00  0.00     0.031 C 
HETATM    7  C15 UNL     1      11.169   0.920  32.217  1.00  0.00     0.087 C 
HETATM    8  N3  UNL     1      11.555  -0.327  31.643  1.00  0.00    -0.374 N 
ATOM      9  H3  UNL     1      11.583  -1.181  32.201  1.00  0.00     0.161 HD
ENDROOT
BRANCH   1  10
HETATM   10  N1  UNL     1      13.341  -2.221  30.309  1.00  0.00    -0.298 N 
ATOM     11  H1  UNL     1      12.923  -2.738  31.082  1.00  0.00     0.187 HD
BRANCH  10  12
HETATM   12  C4  UNL     1      14.629  -2.560  29.810  1.00  0.00     0.070 A 
HETATM   13  C3  UNL     1      15.478  -1.577  29.363  1.00  0.00     0.036 A 
HETATM   14  C2  UNL     1      16.733  -1.904  28.877  1.00  0.00     0.044 A 
HETATM   15  C1  UNL     1      17.101  -3.232  28.855  1.00  0.00     0.118 A 
HETATM   16  F1  UNL     1      18.345  -3.539  28.372  1.00  0.00    -0.206 F 
HETATM   17  C23 UNL     1      16.260  -4.214  29.299  1.00  0.00     0.068 A 
HETATM   18  C22 UNL     1      15.001  -3.882  29.786  1.00  0.00     0.065 A 
HETATM   19 CL1  UNL     1      13.924  -5.134  30.354  1.00  0.00    -0.082 Cl
ENDBRANCH  10  12
ENDBRANCH   1  10
BRANCH   5  20
HETATM   20  C8  UNL     1       9.130   1.995  29.176  1.00  0.00    -0.010 C 
HETATM   21  C9  UNL     1       9.422   3.462  29.382  1.00  0.00     0.005 C 
HETATM   22  C10 UNL     1       8.184   4.226  28.901  1.00  0.00     0.000 C 
HETATM   23  C11 UNL     1       7.596   3.563  27.699  1.00  0.00     0.000 C 
HETATM   24  C12 UNL     1       8.596   2.741  26.914  1.00  0.00     0.000 C 
HETATM   25  C13 UNL     1       9.142   1.595  27.727  1.00  0.00     0.005 C 
ENDBRANCH   5  20
BRANCH   7  26
HETATM   26  C16 UNL     1      10.670   0.853  33.623  1.00  0.00     0.008 C 
HETATM   27  C17 UNL     1       9.200   0.522  33.687  1.00  0.00     0.007 C 
HETATM   28  C18 UNL     1       8.759   0.163  35.070  1.00  0.00     0.000 C 
HETATM   29  C19 UNL     1       9.568  -1.047  35.504  1.00  0.00     0.000 C 
HETATM   30  C20 UNL     1      10.997  -0.546  35.690  1.00  0.00     0.000 C 
HETATM   31  C21 UNL     1      11.520  -0.170  34.339  1.00  0.00     0.007 C 
ENDBRANCH   7  26
TORSDOF 4
ENDMDL
MODEL 5
REMARK VINA RESULT: -11.414976928      1.511      1.963
REMARK  4 active torsions:
REMARK  status: ('A' for Active; 'I' for Inactive)
REMARK    1  A    between atoms: C4_5  and  N1_6 
REMARK    2  A    between atoms: N1_6  and  N2_8 
REMARK    3  A    between atoms: C7_12  and  C8_13 
REMARK    4  A    between atoms: C15_20  and  C16_21 
ROOT
HETATM    1  N2  UNL     1      13.317  -1.570  30.004  1.00  0.00    -0.289 N 
ATOM      2  H2  UNL     1      13.748  -1.454  29.086  1.00  0.00     0.188 HD
HETATM    3  C5  UNL     1      12.397  -0.748  30.294  1.00  0.00     0.092 C 
HETATM    4  C6  UNL     1      12.033   0.296  29.288  1.00  0.00     0.082 C 
HETATM    5  C7  UNL     1      10.590   0.625  29.506  1.00  0.00    -0.002 C 
HETATM    6  C14 UNL     1      10.337   1.212  30.850  1.00  0.00     0.031 C 
HETATM    7  C15 UNL     1      11.110   0.496  31.949  1.00  0.00     0.087 C 
HETATM    8  N3  UNL     1      11.671  -0.744  31.523  1.00  0.00    -0.374 N 
ATOM      9  H3  UNL     1      11.558  -1.594  32.075  1.00  0.00     0.161 HD
ENDROOT
BRANCH   1  10
HETATM   10  N1  UNL     1      13.806  -2.599  30.775  1.00  0.00    -0.298 N 
ATOM     11  H1  UNL     1      13.696  -2.595  31.790  1.00  0.00     0.187 HD
BRANCH  10  12
HETATM   12  C4  UNL     1      14.468  -3.668  30.112  1.00  0.00     0.070 A 
HETATM   13  C3  UNL     1      13.835  -4.875  29.943  1.00  0.00     0.036 A 
HETATM   14  C2  UNL     1      14.477  -5.918  29.298  1.00  0.00     0.044 A 
HETATM   15  C1  UNL     1      15.759  -5.712  28.836  1.00  0.00     0.118 A 
HETATM   16  F1  UNL     1      16.381  -6.753  28.200  1.00  0.00    -0.206 F 
HETATM   17  C23 UNL     1      16.394  -4.513  29.001  1.00  0.00     0.068 A 
HETATM   18  C22 UNL     1      15.746  -3.468  29.649  1.00  0.00     0.065 A 
HETATM   19 CL1  UNL     1      16.554  -1.934  29.862  1.00  0.00    -0.082 Cl
ENDBRANCH  10  12
ENDBRANCH   1  10
BRANCH   5  20
HETATM   20  C8  UNL     1      10.000   1.508  28.441  1.00  0.00    -0.010 C 
HETATM   21  C9  UNL     1       8.865   2.373  28.934  1.00  0.00     0.005 C 
HETATM   22  C10 UNL     1       8.054   2.776  27.697  1.00  0.00     0.000 C 
HETATM   23  C11 UNL     1       8.960   3.017  26.535  1.00  0.00     0.000 C 
HETATM   24  C12 UNL     1      10.371   3.394  26.938  1.00  0.00     0.000 C 
HETATM   25  C13 UNL     1      11.051   2.287  27.702  1.00  0.00     0.005 C 
ENDBRANCH   5  20
BRANCH   7  26
HETATM   26  C16 UNL     1      10.232   0.423  33.155  1.00  0.00     0.008 C 
HETATM   27  C17 UNL     1      10.454   1.586  34.089  1.00  0.00     0.007 C 
HETATM   28  C18 UNL     1       9.390   1.685  35.135  1.00  0.00     0.000 C 
HETATM   29  C19 UNL     1       8.062   1.860  34.419  1.00  0.00     0.000 C 
HETATM   30  C20 UNL     1       7.783   0.526  33.732  1.00  0.00     0.000 C 
HETATM   31  C21 UNL     1       8.808   0.352  32.654  1.00  0.00     0.007 C 
ENDBRANCH   7  26
TORSDOF 4
ENDMDL
