MODEL 1
REMARK VINA RESULT: -9.465136182      0.000      0.000
REMARK  4 active torsions:
REMARK  status: ('A' for Active; 'I' for Inactive)
REMARK    1  A    between atoms: C2_2  and  C4_4 
REMARK    2  A    between atoms: C9_9  and  O1_10 
REMARK    3  A    between atoms: C17_20  and  C19_22 
REMARK    4  A    between atoms: C19_22  and  C20_23 
REMARK       I    between atoms: C20_23  and  N1_25 
ROOT
HETATM    1  C20 UNL     1      10.063   4.674  37.020  1.00  0.00     0.321 C 
HETATM    2  O2  UNL     1      10.013   5.894  37.286  1.00  0.00    -0.254 OA
HETATM    3  N1  UNL     1      11.147   3.871  37.304  1.00  0.00    -0.244 NA
HETATM    4  O3  UNL     1      12.124   3.147  37.559  1.00  0.00    -0.215 OA
ATOM      5  H3  UNL     1      12.871   2.594  37.754  1.00  0.00     0.261 HD
ENDROOT
BRANCH   1   6
HETATM    6  C19 UNL     1       8.892   4.022  36.355  1.00  0.00     0.134 C 
BRANCH   6   7
HETATM    7  C17 UNL     1       9.171   3.095  35.219  1.00  0.00     0.001 C 
HETATM    8  C16 UNL     1       9.631   1.741  35.615  1.00  0.00     0.002 C 
HETATM    9  C12 UNL     1       9.597   0.825  34.405  1.00  0.00     0.005 C 
HETATM   10  C15 UNL     1       8.836   1.025  36.640  1.00  0.00     0.006 C 
HETATM   11  C11 UNL     1       8.290   0.809  33.717  1.00  0.00     0.068 C 
HETATM   12  C13 UNL     1       9.778  -0.523  35.094  1.00  0.00     0.006 C 
HETATM   13  C10 UNL     1       7.726   2.121  33.341  1.00  0.00     0.069 C 
HETATM   14  S1  UNL     1       8.504   0.041  32.086  1.00  0.00    -0.123 SA
HETATM   15  C7  UNL     1       8.132   2.582  32.044  1.00  0.00    -0.031 A 
HETATM   16  C21 UNL     1       7.813   3.025  34.490  1.00  0.00     0.188 C 
HETATM   17  C6  UNL     1       8.579   1.605  31.210  1.00  0.00     0.008 A 
HETATM   18  C8  UNL     1       8.135   3.852  31.482  1.00  0.00     0.046 A 
HETATM   19  C5  UNL     1       9.003   1.790  29.934  1.00  0.00     0.033 A 
HETATM   20  C4  UNL     1       9.003   3.066  29.381  1.00  0.00     0.003 A 
HETATM   21  C9  UNL     1       8.562   4.076  30.186  1.00  0.00     0.077 A 
HETATM   22  F1  UNL     1       7.332   4.286  34.366  1.00  0.00    -0.248 F 
HETATM   23  C14 UNL     1       8.823  -0.448  36.238  1.00  0.00     0.001 C 
HETATM   24  C18 UNL     1      10.207   3.708  34.313  1.00  0.00     0.019 C 
BRANCH  20  25
HETATM   25  C2  UNL     1       9.489   3.196  28.019  1.00  0.00    -0.058 C 
HETATM   26  C1  UNL     1       8.720   3.072  26.980  1.00  0.00     0.019 C 
HETATM   27  C3  UNL     1      10.931   3.515  27.793  1.00  0.00     0.048 C 
ENDBRANCH  20  25
BRANCH  21  28
HETATM   28  O1  UNL     1       8.552   5.375  29.665  1.00  0.00    -0.360 OA
ATOM     29  H1  UNL     1       7.922   5.576  28.983  1.00  0.00     0.217 HD
ENDBRANCH  21  28
ENDBRANCH   6   7
ENDBRANCH   1   6
TORSDOF 4
ENDMDL
MODEL 2
REMARK VINA RESULT: -9.454894004      0.673      1.196
REMARK  4 active torsions:
REMARK  status: ('A' for Active; 'I' for Inactive)
REMARK    1  A    between atoms: C2_2  and  C4_4 
REMARK    2  A    between atoms: C9_9  and  O1_10 
REMARK    3  A    between atoms: C17_20  and  C19_22 
REMARK    4  A    between atoms: C19_22  and  C20_23 
REMARK       I    between atoms: C20_23  and  N1_25 
ROOT
HETATM    1  C20 UNL     1       9.952   4.673  37.276  1.00  0.00     0.321 C 
HETATM    2  O2  UNL     1      10.371   3.987  38.233  1.00  0.00    -0.254 OA
HETATM    3  N1  UNL     1      10.480   5.895  36.919  1.00  0.00    -0.244 NA
HETATM    4  O3  UNL     1      10.956   6.997  36.597  1.00  0.00    -0.215 OA
ATOM      5  H3  UNL     1      11.320   7.839  36.351  1.00  0.00     0.261 HD
ENDROOT
BRANCH   1   6
HETATM    6  C19 UNL     1       8.809   4.162  36.455  1.00  0.00     0.134 C 
BRANCH   6   7
HETATM    7  C17 UNL     1       9.126   3.224  35.340  1.00  0.00     0.001 C 
HETATM    8  C16 UNL     1       9.592   1.880  35.765  1.00  0.00     0.002 C 
HETATM    9  C12 UNL     1       9.598   0.948  34.569  1.00  0.00     0.005 C 
HETATM   10  C15 UNL     1       8.779   1.169  36.781  1.00  0.00     0.006 C 
HETATM   11  C11 UNL     1       8.308   0.907  33.849  1.00  0.00     0.068 C 
HETATM   12  C13 UNL     1       9.777  -0.389  35.280  1.00  0.00     0.006 C 
HETATM   13  C10 UNL     1       7.739   2.207  33.441  1.00  0.00     0.069 C 
HETATM   14  S1  UNL     1       8.571   0.120  32.234  1.00  0.00    -0.123 SA
HETATM   15  C7  UNL     1       8.171   2.655  32.148  1.00  0.00    -0.031 A 
HETATM   16  C21 UNL     1       7.787   3.128  34.578  1.00  0.00     0.188 C 
HETATM   17  C6  UNL     1       8.650   1.672  31.338  1.00  0.00     0.008 A 
HETATM   18  C8  UNL     1       8.175   3.918  31.569  1.00  0.00     0.046 A 
HETATM   19  C5  UNL     1       9.104   1.844  30.071  1.00  0.00     0.033 A 
HETATM   20  C4  UNL     1       9.103   3.113  29.500  1.00  0.00     0.003 A 
HETATM   21  C9  UNL     1       8.631   4.129  30.280  1.00  0.00     0.077 A 
HETATM   22  F1  UNL     1       7.296   4.382  34.425  1.00  0.00    -0.248 F 
HETATM   23  C14 UNL     1       8.793  -0.309  36.399  1.00  0.00     0.001 C 
HETATM   24  C18 UNL     1      10.178   3.836  34.451  1.00  0.00     0.019 C 
BRANCH  20  25
HETATM   25  C2  UNL     1       9.621   3.230  28.149  1.00  0.00    -0.058 C 
HETATM   26  C1  UNL     1      10.880   3.410  27.889  1.00  0.00     0.019 C 
HETATM   27  C3  UNL     1       8.675   3.111  26.998  1.00  0.00     0.048 C 
ENDBRANCH  20  25
BRANCH  21  28
HETATM   28  O1  UNL     1       8.619   5.420  29.741  1.00  0.00    -0.360 OA
ATOM     29  H1  UNL     1       8.851   6.143  30.311  1.00  0.00     0.217 HD
ENDBRANCH  21  28
ENDBRANCH   6   7
ENDBRANCH   1   6
TORSDOF 4
ENDMDL
MODEL 3
REMARK VINA RESULT: -9.230617755      3.293      6.954
REMARK  4 active torsions:
REMARK  status: ('A' for Active; 'I' for Inactive)
REMARK    1  A    between atoms: C2_2  and  C4_4 
REMARK    2  A    between atoms: C9_9  and  O1_10 
REMARK    3  A    between atoms: C17_20  and  C19_22 
REMARK    4  A    between atoms: C19_22  and  C20_23 
REMARK       I    between atoms: C20_23  and  N1_25 
ROOT
HETATM    1  C20 UNL     1      11.581  -0.031  29.603  1.00  0.00     0.321 C 
HETATM    2  O2  UNL     1      11.956   0.861  28.813  1.00  0.00    -0.254 OA
HETATM    3  N1  UNL     1      12.376  -1.083  30.003  1.00  0.00    -0.244 NA
HETATM    4  O3  UNL     1      13.091  -2.033  30.364  1.00  0.00    -0.215 OA
ATOM      5  H3  UNL     1      13.639  -2.758  30.640  1.00  0.00     0.261 HD
ENDROOT
BRANCH   1   6
HETATM    6  C19 UNL     1      10.194   0.022  30.162  1.00  0.00     0.134 C 
BRANCH   6   7
HETATM    7  C17 UNL     1       9.783   1.268  30.872  1.00  0.00     0.001 C 
HETATM    8  C16 UNL     1       9.608   2.457  30.002  1.00  0.00     0.002 C 
HETATM    9  C12 UNL     1       8.919   3.558  30.787  1.00  0.00     0.005 C 
HETATM   10  C15 UNL     1       8.773   2.294  28.788  1.00  0.00     0.006 C 
HETATM   11  C11 UNL     1       7.660   3.124  31.426  1.00  0.00     0.068 C 
HETATM   12  C13 UNL     1       8.562   4.505  29.648  1.00  0.00     0.006 C 
HETATM   13  C10 UNL     1       7.729   1.909  32.263  1.00  0.00     0.069 C 
HETATM   14  S1  UNL     1       7.177   4.368  32.657  1.00  0.00    -0.123 SA
HETATM   15  C7  UNL     1       8.057   2.164  33.637  1.00  0.00    -0.031 A 
HETATM   16  C21 UNL     1       8.446   0.864  31.530  1.00  0.00     0.188 C 
HETATM   17  C6  UNL     1       7.822   3.439  34.049  1.00  0.00     0.008 A 
HETATM   18  C8  UNL     1       8.560   1.332  34.629  1.00  0.00     0.046 A 
HETATM   19  C5  UNL     1       8.039   3.917  35.301  1.00  0.00     0.033 A 
HETATM   20  C4  UNL     1       8.543   3.075  36.287  1.00  0.00     0.003 A 
HETATM   21  C9  UNL     1       8.793   1.786  35.914  1.00  0.00     0.077 A 
HETATM   22  F1  UNL     1       8.610  -0.348  32.114  1.00  0.00    -0.248 F 
HETATM   23  C14 UNL     1       7.987   3.592  28.617  1.00  0.00     0.001 C 
HETATM   24  C18 UNL     1      10.797   1.598  31.937  1.00  0.00     0.019 C 
BRANCH  20  25
HETATM   25  C2  UNL     1       8.771   3.655  37.598  1.00  0.00    -0.058 C 
HETATM   26  C1  UNL     1       7.905   3.582  38.563  1.00  0.00     0.019 C 
HETATM   27  C3  UNL     1      10.069   4.345  37.868  1.00  0.00     0.048 C 
ENDBRANCH  20  25
BRANCH  21  28
HETATM   28  O1  UNL     1       9.305   0.911  36.879  1.00  0.00    -0.360 OA
ATOM     29  H1  UNL     1      10.242   0.920  37.036  1.00  0.00     0.217 HD
ENDBRANCH  21  28
ENDBRANCH   6   7
ENDBRANCH   1   6
TORSDOF 4
ENDMDL
MODEL 4
REMARK VINA RESULT: -9.109468853      3.781      6.400
REMARK  4 active torsions:
REMARK  status: ('A' for Active; 'I' for Inactive)
REMARK    1  A    between atoms: C2_2  and  C4_4 
REMARK    2  A    between atoms: C9_9  and  O1_10 
REMARK    3  A    between atoms: C17_20  and  C19_22 
REMARK    4  A    between atoms: C19_22  and  C20_23 
REMARK       I    between atoms: C20_23  and  N1_25 
ROOT
HETATM    1  C20 UNL     1      10.086   4.107  27.737  1.00  0.00     0.321 C 
HETATM    2  O2  UNL     1       9.353   5.118  27.735  1.00  0.00    -0.254 OA
HETATM    3  N1  UNL     1      10.488   3.448  26.596  1.00  0.00    -0.244 NA
HETATM    4  O3  UNL     1      10.851   2.854  25.567  1.00  0.00    -0.215 OA
ATOM      5  H3  UNL     1      11.128   2.400  24.780  1.00  0.00     0.261 HD
ENDROOT
BRANCH   1   6
HETATM    6  C19 UNL     1      10.569   3.557  29.043  1.00  0.00     0.134 C 
BRANCH   6   7
HETATM    7  C17 UNL     1       9.595   2.790  29.872  1.00  0.00     0.001 C 
HETATM    8  C16 UNL     1       9.710   1.314  29.769  1.00  0.00     0.002 C 
HETATM    9  C12 UNL     1       8.878   0.667  30.861  1.00  0.00     0.005 C 
HETATM   10  C15 UNL     1      11.060   0.725  29.939  1.00  0.00     0.006 C 
HETATM   11  C11 UNL     1       9.186   1.175  32.213  1.00  0.00     0.068 C 
HETATM   12  C13 UNL     1       9.396  -0.764  30.770  1.00  0.00     0.006 C 
HETATM   13  C10 UNL     1       9.155   2.640  32.392  1.00  0.00     0.069 C 
HETATM   14  S1  UNL     1       7.861   0.658  33.342  1.00  0.00    -0.123 SA
HETATM   15  C7  UNL     1       7.866   3.158  32.754  1.00  0.00    -0.031 A 
HETATM   16  C21 UNL     1       9.908   3.270  31.305  1.00  0.00     0.188 C 
HETATM   17  C6  UNL     1       7.019   2.241  33.295  1.00  0.00     0.008 A 
HETATM   18  C8  UNL     1       7.333   4.438  32.662  1.00  0.00     0.046 A 
HETATM   19  C5  UNL     1       5.756   2.491  33.725  1.00  0.00     0.033 A 
HETATM   20  C4  UNL     1       5.232   3.777  33.629  1.00  0.00     0.003 A 
HETATM   21  C9  UNL     1       6.051   4.727  33.090  1.00  0.00     0.077 A 
HETATM   22  F1  UNL     1      10.020   4.620  31.285  1.00  0.00    -0.248 F 
HETATM   23  C14 UNL     1      10.876  -0.583  30.705  1.00  0.00     0.001 C 
HETATM   24  C18 UNL     1       8.190   3.188  29.495  1.00  0.00     0.019 C 
BRANCH  20  25
HETATM   25  C2  UNL     1       3.868   3.970  34.089  1.00  0.00    -0.058 C 
HETATM   26  C1  UNL     1       2.832   3.635  33.382  1.00  0.00     0.019 C 
HETATM   27  C3  UNL     1       3.638   4.555  35.444  1.00  0.00     0.048 C 
ENDBRANCH  20  25
BRANCH  21  28
HETATM   28  O1  UNL     1       5.556   6.030  32.974  1.00  0.00    -0.360 OA
ATOM     29  H1  UNL     1       5.710   6.494  32.159  1.00  0.00     0.217 HD
ENDBRANCH  21  28
ENDBRANCH   6   7
ENDBRANCH   1   6
TORSDOF 4
ENDMDL
MODEL 5
REMARK VINA RESULT: -8.962119056      2.019      2.548
REMARK  4 active torsions:
REMARK  status: ('A' for Active; 'I' for Inactive)
REMARK    1  A    between atoms: C2_2  and  C4_4 
REMARK    2  A    between atoms: C9_9  and  O1_10 
REMARK    3  A    between atoms: C17_20  and  C19_22 
REMARK    4  A    between atoms: C19_22  and  C20_23 
REMARK       I    between atoms: C20_23  and  N1_25 
ROOT
HETATM    1  C20 UNL     1       7.444   4.370  35.426  1.00  0.00     0.321 C 
HETATM    2  O2  UNL     1       8.237   5.109  36.047  1.00  0.00    -0.254 OA
HETATM    3  N1  UNL     1       6.318   4.827  34.777  1.00  0.00    -0.244 NA
HETATM    4  O3  UNL     1       5.302   5.239  34.191  1.00  0.00    -0.215 OA
ATOM      5  H3  UNL     1       4.526   5.555  33.744  1.00  0.00     0.261 HD
ENDROOT
BRANCH   1   6
HETATM    6  C19 UNL     1       7.708   2.898  35.370  1.00  0.00     0.134 C 
BRANCH   6   7
HETATM    7  C17 UNL     1       8.703   2.413  34.370  1.00  0.00     0.001 C 
HETATM    8  C16 UNL     1       9.834   1.637  34.937  1.00  0.00     0.002 C 
HETATM    9  C12 UNL     1      10.598   0.966  33.811  1.00  0.00     0.005 C 
HETATM   10  C15 UNL     1       9.501   0.530  35.865  1.00  0.00     0.006 C 
HETATM   11  C11 UNL     1       9.741   0.162  32.916  1.00  0.00     0.068 C 
HETATM   12  C13 UNL     1      11.462   0.004  34.619  1.00  0.00     0.006 C 
HETATM   13  C10 UNL     1       8.555   0.838  32.354  1.00  0.00     0.069 C 
HETATM   14  S1  UNL     1      10.674  -0.218  31.405  1.00  0.00    -0.123 SA
HETATM   15  C7  UNL     1       8.801   1.514  31.113  1.00  0.00    -0.031 A 
HETATM   16  C21 UNL     1       7.848   1.536  33.430  1.00  0.00     0.188 C 
HETATM   17  C6  UNL     1       9.902   1.082  30.440  1.00  0.00     0.008 A 
HETATM   18  C8  UNL     1       8.104   2.527  30.466  1.00  0.00     0.046 A 
HETATM   19  C5  UNL     1      10.333   1.556  29.243  1.00  0.00     0.033 A 
HETATM   20  C4  UNL     1       9.627   2.570  28.604  1.00  0.00     0.003 A 
HETATM   21  C9  UNL     1       8.515   3.033  29.247  1.00  0.00     0.077 A 
HETATM   22  F1  UNL     1       6.713   2.214  33.134  1.00  0.00    -0.248 F 
HETATM   23  C14 UNL     1      10.489  -0.598  35.577  1.00  0.00     0.001 C 
HETATM   24  C18 UNL     1       9.262   3.586  33.606  1.00  0.00     0.019 C 
BRANCH  20  25
HETATM   25  C2  UNL     1      10.154   3.045  27.337  1.00  0.00    -0.058 C 
HETATM   26  C1  UNL     1      11.148   3.876  27.254  1.00  0.00     0.019 C 
HETATM   27  C3  UNL     1       9.551   2.538  26.067  1.00  0.00     0.048 C 
ENDBRANCH  20  25
BRANCH  21  28
HETATM   28  O1  UNL     1       7.782   4.057  28.636  1.00  0.00    -0.360 OA
ATOM     29  H1  UNL     1       6.857   3.910  28.478  1.00  0.00     0.217 HD
ENDBRANCH  21  28
ENDBRANCH   6   7
ENDBRANCH   1   6
TORSDOF 4
ENDMDL
