MODEL 1
REMARK VINA RESULT: -7.598842507      0.000      0.000
REMARK  13 active torsions:
REMARK  status: ('A' for Active; 'I' for Inactive)
REMARK    1  A    between atoms: C4_4  and  C5_5 
REMARK    2  A    between atoms: C5_5  and  C6_6 
REMARK    3  A    between atoms: C6_6  and  O1_9 
REMARK    4  A    between atoms: C11_15  and  C12_16 
REMARK    5  A    between atoms: C15_21  and  O6_22 
REMARK    6  A    between atoms: C15_21  and  C16_24 
REMARK    7  A    between atoms: C17_25  and  C18_26 
REMARK    8  A    between atoms: C19_27  and  C21_29 
REMARK    9  A    between atoms: C23_31  and  C24_32 
REMARK   10  A    between atoms: C24_32  and  C25_33 
REMARK   11  A    between atoms: C26_35  and  O8_36 
REMARK   12  A    between atoms: C26_35  and  C27_38 
REMARK   13  A    between atoms: N1_43  and  C32_44 
ROOT
HETATM    1  C1  UNL     1      -4.200   5.344  20.864  1.00  0.00     0.015 C 
HETATM    2  C2  UNL     1      -3.558   4.216  20.820  1.00  0.00    -0.079 C 
HETATM    3  C3  UNL     1      -2.480   4.066  19.767  1.00  0.00     0.065 C 
HETATM    4  C4  UNL     1      -2.883   2.803  19.044  1.00  0.00     0.130 C 
HETATM    5  O2  UNL     1      -3.147   1.750  19.849  1.00  0.00    -0.362 OA
HETATM    6  C9  UNL     1      -4.228   1.954  20.791  1.00  0.00     0.171 C 
HETATM    7  C10 UNL     1      -5.375   2.232  19.918  1.00  0.00     0.184 C 
HETATM    8  O3  UNL     1      -6.100   3.160  19.877  1.00  0.00    -0.293 OA
HETATM    9  C11 UNL     1      -5.453   1.041  19.041  1.00  0.00     0.201 C 
HETATM   10  C14 UNL     1      -5.232  -0.026  20.069  1.00  0.00     0.187 C 
HETATM   11  O5  UNL     1      -5.600  -1.163  19.929  1.00  0.00    -0.293 OA
HETATM   12  C15 UNL     1      -4.497   0.575  21.251  1.00  0.00     0.176 C 
HETATM   13  C23 UNL     1      -3.740   3.003  21.661  1.00  0.00     0.064 C 
ENDROOT
BRANCH  12  14
HETATM   14  O6  UNL     1      -3.218  -0.109  21.192  1.00  0.00    -0.374 OA
ATOM     15  H6  UNL     1      -3.427  -1.036  21.173  1.00  0.00     0.211 HD
ENDBRANCH  12  14
BRANCH  12  16
HETATM   16  C16 UNL     1      -5.098   0.299  22.525  1.00  0.00     0.022 C 
HETATM   17  C17 UNL     1      -4.665  -0.044  23.698  1.00  0.00    -0.000 C 
BRANCH  17  18
HETATM   18  C18 UNL     1      -3.347  -0.289  24.189  1.00  0.00     0.002 C 
HETATM   19  C19 UNL     1      -3.021  -0.848  25.343  1.00  0.00    -0.084 C 
HETATM   20  C20 UNL     1      -1.573  -1.020  25.681  1.00  0.00     0.043 C 
BRANCH  19  21
HETATM   21  C21 UNL     1      -3.980  -1.323  26.338  1.00  0.00     0.029 C 
HETATM   22  C22 UNL     1      -3.290  -1.344  27.707  1.00  0.00     0.010 C 
ENDBRANCH  19  21
ENDBRANCH  17  18
ENDBRANCH  12  16
BRANCH  13  23
HETATM   23  C24 UNL     1      -4.321   3.373  22.947  1.00  0.00     0.077 C 
BRANCH  23  24
HETATM   24  C25 UNL     1      -3.384   4.123  23.874  1.00  0.00     0.362 C 
HETATM   25  O7  UNL     1      -4.092   5.264  24.329  1.00  0.00    -0.320 OA
HETATM   26  C26 UNL     1      -3.252   6.168  24.920  1.00  0.00     0.169 C 
HETATM   27  C29 UNL     1      -2.061   5.623  25.602  1.00  0.00     0.072 C 
HETATM   28  C30 UNL     1      -0.814   6.217  24.927  1.00  0.00     0.017 C 
HETATM   29  C31 UNL     1      -1.968   4.146  25.715  1.00  0.00     0.285 C 
HETATM   30  N1  UNL     1      -2.991   3.413  25.029  1.00  0.00     0.117 N 
BRANCH  26  31
HETATM   31  O8  UNL     1      -2.904   7.110  23.921  1.00  0.00    -0.365 OA
ATOM     32  H8  UNL     1      -3.483   7.853  24.036  1.00  0.00     0.213 HD
ENDBRANCH  26  31
BRANCH  26  33
HETATM   33  C27 UNL     1      -4.112   6.972  25.910  1.00  0.00     0.064 C 
HETATM   34  C28 UNL     1      -3.810   8.432  25.859  1.00  0.00     0.010 C 
ENDBRANCH  26  33
BRANCH  30  35
HETATM   35  C32 UNL     1      -4.070   2.982  25.878  1.00  0.00     0.271 C 
HETATM   36  C33 UNL     1      -3.573   2.301  27.141  1.00  0.00     0.037 C 
ENDBRANCH  30  35
ENDBRANCH  23  24
ENDBRANCH  13  23
BRANCH   4  37
HETATM   37  C5  UNL     1      -1.762   2.379  18.140  1.00  0.00     0.069 C 
BRANCH  37  38
HETATM   38  C6  UNL     1      -1.975   2.475  16.684  1.00  0.00     0.053 C 
HETATM   39  C7  UNL     1      -0.698   2.347  15.874  1.00  0.00     0.045 C 
HETATM   40  C8  UNL     1      -3.125   1.712  16.102  1.00  0.00     0.045 C 
BRANCH  38  41
HETATM   41  O1  UNL     1      -2.341   3.859  16.469  1.00  0.00    -0.391 OA
ATOM     42  H1  UNL     1      -3.029   3.819  15.816  1.00  0.00     0.210 HD
ENDBRANCH  38  41
ENDBRANCH  37  38
ENDBRANCH   4  37
BRANCH   9  43
HETATM   43  C12 UNL     1      -6.714   0.903  18.294  1.00  0.00     0.141 C 
HETATM   44  C13 UNL     1      -6.724   1.211  16.856  1.00  0.00     0.092 C 
HETATM   45  O4  UNL     1      -7.768   0.541  18.801  1.00  0.00    -0.297 OA
ENDBRANCH   9  43
TORSDOF 13
ENDMDL
MODEL 2
REMARK VINA RESULT: -7.399724097      4.666      8.590
REMARK  13 active torsions:
REMARK  status: ('A' for Active; 'I' for Inactive)
REMARK    1  A    between atoms: C4_4  and  C5_5 
REMARK    2  A    between atoms: C5_5  and  C6_6 
REMARK    3  A    between atoms: C6_6  and  O1_9 
REMARK    4  A    between atoms: C11_15  and  C12_16 
REMARK    5  A    between atoms: C15_21  and  O6_22 
REMARK    6  A    between atoms: C15_21  and  C16_24 
REMARK    7  A    between atoms: C17_25  and  C18_26 
REMARK    8  A    between atoms: C19_27  and  C21_29 
REMARK    9  A    between atoms: C23_31  and  C24_32 
REMARK   10  A    between atoms: C24_32  and  C25_33 
REMARK   11  A    between atoms: C26_35  and  O8_36 
REMARK   12  A    between atoms: C26_35  and  C27_38 
REMARK   13  A    between atoms: N1_43  and  C32_44 
ROOT
HETATM    1  C1  UNL     1       1.866   5.210  25.808  1.00  0.00     0.015 C 
HETATM    2  C2  UNL     1       1.130   5.147  26.876  1.00  0.00    -0.079 C 
HETATM    3  C3  UNL     1       1.800   5.430  28.205  1.00  0.00     0.065 C 
HETATM    4  C4  UNL     1       1.466   4.206  29.023  1.00  0.00     0.130 C 
HETATM    5  O2  UNL     1       0.157   3.866  29.023  1.00  0.00    -0.362 OA
HETATM    6  C9  UNL     1      -0.396   3.557  27.720  1.00  0.00     0.171 C 
HETATM    7  C10 UNL     1       0.428   2.427  27.274  1.00  0.00     0.184 C 
HETATM    8  O3  UNL     1       1.089   2.294  26.309  1.00  0.00    -0.293 OA
HETATM    9  C11 UNL     1       0.255   1.417  28.343  1.00  0.00     0.201 C 
HETATM   10  C14 UNL     1      -1.223   1.539  28.549  1.00  0.00     0.187 C 
HETATM   11  O5  UNL     1      -1.899   0.660  29.019  1.00  0.00    -0.293 OA
HETATM   12  C15 UNL     1      -1.674   2.907  28.078  1.00  0.00     0.176 C 
HETATM   13  C23 UNL     1      -0.313   4.810  27.000  1.00  0.00     0.064 C 
ENDROOT
BRANCH  12  14
HETATM   14  O6  UNL     1      -2.093   3.532  29.318  1.00  0.00    -0.374 OA
ATOM     15  H6  UNL     1      -1.527   4.287  29.426  1.00  0.00     0.211 HD
ENDBRANCH  12  14
BRANCH  12  16
HETATM   16  C16 UNL     1      -2.795   2.885  27.182  1.00  0.00     0.022 C 
HETATM   17  C17 UNL     1      -3.226   2.085  26.258  1.00  0.00    -0.000 C 
BRANCH  17  18
HETATM   18  C18 UNL     1      -2.714   0.850  25.755  1.00  0.00     0.002 C 
HETATM   19  C19 UNL     1      -3.304   0.036  24.896  1.00  0.00    -0.084 C 
HETATM   20  C20 UNL     1      -2.601  -1.222  24.489  1.00  0.00     0.043 C 
BRANCH  19  21
HETATM   21  C21 UNL     1      -4.617   0.267  24.298  1.00  0.00     0.029 C 
HETATM   22  C22 UNL     1      -4.448   0.359  22.776  1.00  0.00     0.010 C 
ENDBRANCH  19  21
ENDBRANCH  17  18
ENDBRANCH  12  16
BRANCH  13  23
HETATM   23  C24 UNL     1      -1.003   5.113  25.750  1.00  0.00     0.077 C 
BRANCH  23  24
HETATM   24  C25 UNL     1      -1.872   6.355  25.791  1.00  0.00     0.362 C 
HETATM   25  O7  UNL     1      -1.181   7.357  25.063  1.00  0.00    -0.320 OA
HETATM   26  C26 UNL     1      -1.717   8.595  25.289  1.00  0.00     0.169 C 
HETATM   27  C29 UNL     1      -3.163   8.652  25.581  1.00  0.00     0.072 C 
HETATM   28  C30 UNL     1      -3.343   9.276  26.974  1.00  0.00     0.017 C 
HETATM   29  C31 UNL     1      -3.926   7.385  25.448  1.00  0.00     0.285 C 
HETATM   30  N1  UNL     1      -3.137   6.220  25.177  1.00  0.00     0.117 N 
BRANCH  26  31
HETATM   31  O8  UNL     1      -0.947   9.186  26.322  1.00  0.00    -0.365 OA
ATOM     32  H8  UNL     1      -1.104   8.672  27.105  1.00  0.00     0.213 HD
ENDBRANCH  26  31
BRANCH  26  33
HETATM   33  C27 UNL     1      -1.389   9.440  24.047  1.00  0.00     0.064 C 
HETATM   34  C28 UNL     1      -2.615   9.994  23.404  1.00  0.00     0.010 C 
ENDBRANCH  26  33
BRANCH  30  35
HETATM   35  C32 UNL     1      -3.105   5.847  23.787  1.00  0.00     0.271 C 
HETATM   36  C33 UNL     1      -3.796   4.519  23.531  1.00  0.00     0.037 C 
ENDBRANCH  30  35
ENDBRANCH  23  24
ENDBRANCH  13  23
BRANCH   4  37
HETATM   37  C5  UNL     1       1.840   4.459  30.455  1.00  0.00     0.069 C 
BRANCH  37  38
HETATM   38  C6  UNL     1       2.810   3.545  31.086  1.00  0.00     0.053 C 
HETATM   39  C7  UNL     1       4.250   3.822  30.694  1.00  0.00     0.045 C 
HETATM   40  C8  UNL     1       2.638   3.255  32.546  1.00  0.00     0.045 C 
BRANCH  38  41
HETATM   41  O1  UNL     1       2.556   2.267  30.454  1.00  0.00    -0.391 OA
ATOM     42  H1  UNL     1       3.417   1.961  30.195  1.00  0.00     0.210 HD
ENDBRANCH  38  41
ENDBRANCH  37  38
ENDBRANCH   4  37
BRANCH   9  43
HETATM   43  C12 UNL     1       0.702   0.059  27.992  1.00  0.00     0.141 C 
HETATM   44  C13 UNL     1       0.474  -0.432  26.625  1.00  0.00     0.092 C 
HETATM   45  O4  UNL     1       1.260  -0.698  28.778  1.00  0.00    -0.297 OA
ENDBRANCH   9  43
TORSDOF 13
ENDMDL
MODEL 3
REMARK VINA RESULT: -7.267037563      4.433      8.468
REMARK  13 active torsions:
REMARK  status: ('A' for Active; 'I' for Inactive)
REMARK    1  A    between atoms: C4_4  and  C5_5 
REMARK    2  A    between atoms: C5_5  and  C6_6 
REMARK    3  A    between atoms: C6_6  and  O1_9 
REMARK    4  A    between atoms: C11_15  and  C12_16 
REMARK    5  A    between atoms: C15_21  and  O6_22 
REMARK    6  A    between atoms: C15_21  and  C16_24 
REMARK    7  A    between atoms: C17_25  and  C18_26 
REMARK    8  A    between atoms: C19_27  and  C21_29 
REMARK    9  A    between atoms: C23_31  and  C24_32 
REMARK   10  A    between atoms: C24_32  and  C25_33 
REMARK   11  A    between atoms: C26_35  and  O8_36 
REMARK   12  A    between atoms: C26_35  and  C27_38 
REMARK   13  A    between atoms: N1_43  and  C32_44 
ROOT
HETATM    1  C1  UNL     1       1.457   5.263  25.849  1.00  0.00     0.015 C 
HETATM    2  C2  UNL     1       0.748   5.123  26.927  1.00  0.00    -0.079 C 
HETATM    3  C3  UNL     1       1.424   5.407  28.252  1.00  0.00     0.065 C 
HETATM    4  C4  UNL     1       1.181   4.141  29.038  1.00  0.00     0.130 C 
HETATM    5  O2  UNL     1      -0.104   3.720  29.049  1.00  0.00    -0.362 OA
HETATM    6  C9  UNL     1      -0.661   3.417  27.747  1.00  0.00     0.171 C 
HETATM    7  C10 UNL     1       0.222   2.353  27.253  1.00  0.00     0.184 C 
HETATM    8  O3  UNL     1       0.871   2.291  26.272  1.00  0.00    -0.293 OA
HETATM    9  C11 UNL     1       0.132   1.303  28.292  1.00  0.00     0.201 C 
HETATM   10  C14 UNL     1      -1.347   1.326  28.527  1.00  0.00     0.187 C 
HETATM   11  O5  UNL     1      -1.958   0.394  28.981  1.00  0.00    -0.293 OA
HETATM   12  C15 UNL     1      -1.890   2.677  28.106  1.00  0.00     0.176 C 
HETATM   13  C23 UNL     1      -0.670   4.693  27.065  1.00  0.00     0.064 C 
ENDROOT
BRANCH  12  14
HETATM   14  O6  UNL     1      -2.324   3.238  29.372  1.00  0.00    -0.374 OA
ATOM     15  H6  UNL     1      -3.266   3.123  29.392  1.00  0.00     0.211 HD
ENDBRANCH  12  14
BRANCH  12  16
HETATM   16  C16 UNL     1      -3.025   2.612  27.229  1.00  0.00     0.022 C 
HETATM   17  C17 UNL     1      -3.417   1.823  26.279  1.00  0.00    -0.000 C 
BRANCH  17  18
HETATM   18  C18 UNL     1      -2.829   0.650  25.716  1.00  0.00     0.002 C 
HETATM   19  C19 UNL     1      -3.359  -0.143  24.799  1.00  0.00    -0.084 C 
HETATM   20  C20 UNL     1      -2.580  -1.334  24.334  1.00  0.00     0.043 C 
BRANCH  19  21
HETATM   21  C21 UNL     1      -4.672   0.053  24.189  1.00  0.00     0.029 C 
HETATM   22  C22 UNL     1      -4.471   0.470  22.727  1.00  0.00     0.010 C 
ENDBRANCH  19  21
ENDBRANCH  17  18
ENDBRANCH  12  16
BRANCH  13  23
HETATM   23  C24 UNL     1      -1.400   4.990  25.837  1.00  0.00     0.077 C 
BRANCH  23  24
HETATM   24  C25 UNL     1      -1.963   6.396  25.758  1.00  0.00     0.362 C 
HETATM   25  O7  UNL     1      -3.141   6.318  24.974  1.00  0.00    -0.320 OA
HETATM   26  C26 UNL     1      -3.562   7.560  24.583  1.00  0.00     0.169 C 
HETATM   27  C29 UNL     1      -3.263   8.682  25.494  1.00  0.00     0.072 C 
HETATM   28  C30 UNL     1      -2.390   9.692  24.732  1.00  0.00     0.017 C 
HETATM   29  C31 UNL     1      -2.676   8.339  26.814  1.00  0.00     0.285 C 
HETATM   30  N1  UNL     1      -2.346   6.956  26.997  1.00  0.00     0.117 N 
BRANCH  26  31
HETATM   31  O8  UNL     1      -3.031   7.775  23.287  1.00  0.00    -0.365 OA
ATOM     32  H8  UNL     1      -2.915   8.713  23.195  1.00  0.00     0.213 HD
ENDBRANCH  26  31
BRANCH  26  33
HETATM   33  C27 UNL     1      -5.079   7.448  24.352  1.00  0.00     0.064 C 
HETATM   34  C28 UNL     1      -5.412   7.183  22.923  1.00  0.00     0.010 C 
ENDBRANCH  26  33
BRANCH  30  35
HETATM   35  C32 UNL     1      -3.339   6.210  27.724  1.00  0.00     0.271 C 
HETATM   36  C33 UNL     1      -3.326   6.528  29.209  1.00  0.00     0.037 C 
ENDBRANCH  30  35
ENDBRANCH  23  24
ENDBRANCH  13  23
BRANCH   4  37
HETATM   37  C5  UNL     1       1.567   4.373  30.470  1.00  0.00     0.069 C 
BRANCH  37  38
HETATM   38  C6  UNL     1       2.610   3.509  31.053  1.00  0.00     0.053 C 
HETATM   39  C7  UNL     1       4.015   3.868  30.605  1.00  0.00     0.045 C 
HETATM   40  C8  UNL     1       2.514   3.200  32.515  1.00  0.00     0.045 C 
BRANCH  38  41
HETATM   41  O1  UNL     1       2.400   2.224  30.419  1.00  0.00    -0.391 OA
ATOM     42  H1  UNL     1       3.127   1.694  30.723  1.00  0.00     0.210 HD
ENDBRANCH  38  41
ENDBRANCH  37  38
ENDBRANCH   4  37
BRANCH   9  43
HETATM   43  C12 UNL     1       0.655  -0.014  27.891  1.00  0.00     0.141 C 
HETATM   44  C13 UNL     1       0.378  -0.503  26.533  1.00  0.00     0.092 C 
HETATM   45  O4  UNL     1       1.316  -0.735  28.628  1.00  0.00    -0.297 OA
ENDBRANCH   9  43
TORSDOF 13
ENDMDL
MODEL 4
REMARK VINA RESULT: -7.003465373      3.968      7.739
REMARK  13 active torsions:
REMARK  status: ('A' for Active; 'I' for Inactive)
REMARK    1  A    between atoms: C4_4  and  C5_5 
REMARK    2  A    between atoms: C5_5  and  C6_6 
REMARK    3  A    between atoms: C6_6  and  O1_9 
REMARK    4  A    between atoms: C11_15  and  C12_16 
REMARK    5  A    between atoms: C15_21  and  O6_22 
REMARK    6  A    between atoms: C15_21  and  C16_24 
REMARK    7  A    between atoms: C17_25  and  C18_26 
REMARK    8  A    between atoms: C19_27  and  C21_29 
REMARK    9  A    between atoms: C23_31  and  C24_32 
REMARK   10  A    between atoms: C24_32  and  C25_33 
REMARK   11  A    between atoms: C26_35  and  O8_36 
REMARK   12  A    between atoms: C26_35  and  C27_38 
REMARK   13  A    between atoms: N1_43  and  C32_44 
ROOT
HETATM    1  C1  UNL     1      -1.319   6.138  30.057  1.00  0.00     0.015 C 
HETATM    2  C2  UNL     1      -0.992   5.582  28.930  1.00  0.00    -0.079 C 
HETATM    3  C3  UNL     1       0.309   6.015  28.287  1.00  0.00     0.065 C 
HETATM    4  C4  UNL     1      -0.117   6.428  26.899  1.00  0.00     0.130 C 
HETATM    5  O2  UNL     1      -0.885   5.523  26.251  1.00  0.00    -0.362 OA
HETATM    6  C9  UNL     1      -2.138   5.203  26.903  1.00  0.00     0.171 C 
HETATM    7  C10 UNL     1      -2.818   6.503  26.962  1.00  0.00     0.184 C 
HETATM    8  O3  UNL     1      -3.238   7.106  27.882  1.00  0.00    -0.293 OA
HETATM    9  C11 UNL     1      -2.879   6.938  25.548  1.00  0.00     0.201 C 
HETATM   10  C14 UNL     1      -3.284   5.642  24.917  1.00  0.00     0.187 C 
HETATM   11  O5  UNL     1      -3.845   5.572  23.854  1.00  0.00    -0.293 OA
HETATM   12  C15 UNL     1      -2.871   4.502  25.827  1.00  0.00     0.176 C 
HETATM   13  C23 UNL     1      -1.736   4.566  28.139  1.00  0.00     0.064 C 
ENDROOT
BRANCH  12  14
HETATM   14  O6  UNL     1      -1.854   3.835  25.036  1.00  0.00    -0.374 OA
ATOM     15  H6  UNL     1      -1.046   4.302  25.215  1.00  0.00     0.211 HD
ENDBRANCH  12  14
BRANCH  12  16
HETATM   16  C16 UNL     1      -3.917   3.559  26.106  1.00  0.00     0.022 C 
HETATM   17  C17 UNL     1      -4.531   2.634  25.438  1.00  0.00    -0.000 C 
BRANCH  17  18
HETATM   18  C18 UNL     1      -4.388   2.180  24.091  1.00  0.00     0.002 C 
HETATM   19  C19 UNL     1      -4.490   0.935  23.657  1.00  0.00    -0.084 C 
HETATM   20  C20 UNL     1      -4.304   0.659  22.197  1.00  0.00     0.043 C 
BRANCH  19  21
HETATM   21  C21 UNL     1      -4.775  -0.221  24.504  1.00  0.00     0.029 C 
HETATM   22  C22 UNL     1      -3.882  -1.384  24.058  1.00  0.00     0.010 C 
ENDBRANCH  19  21
ENDBRANCH  17  18
ENDBRANCH  12  16
BRANCH  13  23
HETATM   23  C24 UNL     1      -2.612   3.796  29.016  1.00  0.00     0.077 C 
BRANCH  23  24
HETATM   24  C25 UNL     1      -2.488   2.292  28.873  1.00  0.00     0.362 C 
HETATM   25  O7  UNL     1      -1.344   2.054  28.070  1.00  0.00    -0.320 OA
HETATM   26  C26 UNL     1      -1.309   0.761  27.623  1.00  0.00     0.169 C 
HETATM   27  C29 UNL     1      -1.918  -0.262  28.496  1.00  0.00     0.072 C 
HETATM   28  C30 UNL     1      -3.054  -0.938  27.712  1.00  0.00     0.017 C 
HETATM   29  C31 UNL     1      -2.369   0.182  29.838  1.00  0.00     0.285 C 
HETATM   30  N1  UNL     1      -2.277   1.592  30.081  1.00  0.00     0.117 N 
BRANCH  26  31
HETATM   31  O8  UNL     1      -1.889   0.766  26.330  1.00  0.00    -0.365 OA
ATOM     32  H8  UNL     1      -1.601  -0.032  25.902  1.00  0.00     0.213 HD
ENDBRANCH  26  31
BRANCH  26  33
HETATM   33  C27 UNL     1       0.172   0.434  27.368  1.00  0.00     0.064 C 
HETATM   34  C28 UNL     1       0.842   1.472  26.534  1.00  0.00     0.010 C 
ENDBRANCH  26  33
BRANCH  30  35
HETATM   35  C32 UNL     1      -1.104   1.983  30.817  1.00  0.00     0.271 C 
HETATM   36  C33 UNL     1      -0.614   0.886  31.746  1.00  0.00     0.037 C 
ENDBRANCH  30  35
ENDBRANCH  23  24
ENDBRANCH  13  23
BRANCH   4  37
HETATM   37  C5  UNL     1       1.107   6.633  26.053  1.00  0.00     0.069 C 
BRANCH  37  38
HETATM   38  C6  UNL     1       1.189   7.864  25.246  1.00  0.00     0.053 C 
HETATM   39  C7  UNL     1       0.876   9.125  26.029  1.00  0.00     0.045 C 
HETATM   40  C8  UNL     1       2.364   8.012  24.328  1.00  0.00     0.045 C 
BRANCH  38  41
HETATM   41  O1  UNL     1       0.061   7.772  24.342  1.00  0.00    -0.391 OA
ATOM     42  H1  UNL     1       0.374   8.169  23.538  1.00  0.00     0.210 HD
ENDBRANCH  38  41
ENDBRANCH  37  38
ENDBRANCH   4  37
BRANCH   9  43
HETATM   43  C12 UNL     1      -3.804   8.051  25.281  1.00  0.00     0.141 C 
HETATM   44  C13 UNL     1      -3.249   9.372  24.948  1.00  0.00     0.092 C 
HETATM   45  O4  UNL     1      -5.024   7.945  25.318  1.00  0.00    -0.297 OA
ENDBRANCH   9  43
TORSDOF 13
ENDMDL
MODEL 5
REMARK VINA RESULT: -6.975421972      4.910      8.745
REMARK  13 active torsions:
REMARK  status: ('A' for Active; 'I' for Inactive)
REMARK    1  A    between atoms: C4_4  and  C5_5 
REMARK    2  A    between atoms: C5_5  and  C6_6 
REMARK    3  A    between atoms: C6_6  and  O1_9 
REMARK    4  A    between atoms: C11_15  and  C12_16 
REMARK    5  A    between atoms: C15_21  and  O6_22 
REMARK    6  A    between atoms: C15_21  and  C16_24 
REMARK    7  A    between atoms: C17_25  and  C18_26 
REMARK    8  A    between atoms: C19_27  and  C21_29 
REMARK    9  A    between atoms: C23_31  and  C24_32 
REMARK   10  A    between atoms: C24_32  and  C25_33 
REMARK   11  A    between atoms: C26_35  and  O8_36 
REMARK   12  A    between atoms: C26_35  and  C27_38 
REMARK   13  A    between atoms: N1_43  and  C32_44 
ROOT
HETATM    1  C1  UNL     1       2.372   5.110  25.849  1.00  0.00     0.015 C 
HETATM    2  C2  UNL     1       1.536   5.117  26.843  1.00  0.00    -0.079 C 
HETATM    3  C3  UNL     1       2.092   5.391  28.224  1.00  0.00     0.065 C 
HETATM    4  C4  UNL     1       1.607   4.209  29.029  1.00  0.00     0.130 C 
HETATM    5  O2  UNL     1       0.287   3.947  28.908  1.00  0.00    -0.362 OA
HETATM    6  C9  UNL     1      -0.158   3.640  27.564  1.00  0.00     0.171 C 
HETATM    7  C10 UNL     1       0.635   2.452  27.221  1.00  0.00     0.184 C 
HETATM    8  O3  UNL     1       1.375   2.258  26.326  1.00  0.00    -0.293 OA
HETATM    9  C11 UNL     1       0.300   1.480  28.286  1.00  0.00     0.201 C 
HETATM   10  C14 UNL     1      -1.181   1.693  28.346  1.00  0.00     0.187 C 
HETATM   11  O5  UNL     1      -1.951   0.867  28.765  1.00  0.00    -0.293 OA
HETATM   12  C15 UNL     1      -1.501   3.074  27.809  1.00  0.00     0.176 C 
HETATM   13  C23 UNL     1       0.069   4.868  26.833  1.00  0.00     0.064 C 
ENDROOT
BRANCH  12  14
HETATM   14  O6  UNL     1      -1.998   3.752  28.991  1.00  0.00    -0.374 OA
ATOM     15  H6  UNL     1      -2.329   4.588  28.684  1.00  0.00     0.211 HD
ENDBRANCH  12  14
BRANCH  12  16
HETATM   16  C16 UNL     1      -2.532   3.096  26.810  1.00  0.00     0.022 C 
HETATM   17  C17 UNL     1      -2.965   2.272  25.908  1.00  0.00    -0.000 C 
BRANCH  17  18
HETATM   18  C18 UNL     1      -2.553   0.952  25.552  1.00  0.00     0.002 C 
HETATM   19  C19 UNL     1      -3.244   0.066  24.853  1.00  0.00    -0.084 C 
HETATM   20  C20 UNL     1      -2.636  -1.275  24.581  1.00  0.00     0.043 C 
BRANCH  19  21
HETATM   21  C21 UNL     1      -4.581   0.293  24.312  1.00  0.00     0.029 C 
HETATM   22  C22 UNL     1      -4.472   0.441  22.790  1.00  0.00     0.010 C 
ENDBRANCH  19  21
ENDBRANCH  17  18
ENDBRANCH  12  16
BRANCH  13  23
HETATM   23  C24 UNL     1      -0.479   5.180  25.517  1.00  0.00     0.077 C 
BRANCH  23  24
HETATM   24  C25 UNL     1      -1.489   6.311  25.504  1.00  0.00     0.362 C 
HETATM   25  O7  UNL     1      -1.777   6.613  26.859  1.00  0.00    -0.320 OA
HETATM   26  C26 UNL     1      -2.892   7.398  26.969  1.00  0.00     0.169 C 
HETATM   27  C29 UNL     1      -3.166   8.325  25.852  1.00  0.00     0.072 C 
HETATM   28  C30 UNL     1      -4.540   7.965  25.264  1.00  0.00     0.017 C 
HETATM   29  C31 UNL     1      -2.129   8.429  24.795  1.00  0.00     0.285 C 
HETATM   30  N1  UNL     1      -1.034   7.513  24.918  1.00  0.00     0.117 N 
BRANCH  26  31
HETATM   31  O8  UNL     1      -3.980   6.523  27.208  1.00  0.00    -0.365 OA
ATOM     32  H8  UNL     1      -4.290   6.237  26.357  1.00  0.00     0.213 HD
ENDBRANCH  26  31
BRANCH  26  33
HETATM   33  C27 UNL     1      -2.742   8.178  28.286  1.00  0.00     0.064 C 
HETATM   34  C28 UNL     1      -1.449   7.884  28.969  1.00  0.00     0.010 C 
ENDBRANCH  26  33
BRANCH  30  35
HETATM   35  C32 UNL     1       0.139   8.083  25.526  1.00  0.00     0.271 C 
HETATM   36  C33 UNL     1       1.231   8.374  24.511  1.00  0.00     0.037 C 
ENDBRANCH  30  35
ENDBRANCH  23  24
ENDBRANCH  13  23
BRANCH   4  37
HETATM   37  C5  UNL     1       1.859   4.474  30.485  1.00  0.00     0.069 C 
BRANCH  37  38
HETATM   38  C6  UNL     1       2.762   3.558  31.207  1.00  0.00     0.053 C 
HETATM   39  C7  UNL     1       4.233   3.871  31.004  1.00  0.00     0.045 C 
HETATM   40  C8  UNL     1       2.417   3.223  32.625  1.00  0.00     0.045 C 
BRANCH  38  41
HETATM   41  O1  UNL     1       2.615   2.296  30.514  1.00  0.00    -0.391 OA
ATOM     42  H1  UNL     1       1.685   2.109  30.564  1.00  0.00     0.210 HD
ENDBRANCH  38  41
ENDBRANCH  37  38
ENDBRANCH   4  37
BRANCH   9  43
HETATM   43  C12 UNL     1       0.695   0.090  28.005  1.00  0.00     0.141 C 
HETATM   44  C13 UNL     1       0.461  -0.455  26.659  1.00  0.00     0.092 C 
HETATM   45  O4  UNL     1       1.214  -0.650  28.831  1.00  0.00    -0.297 OA
ENDBRANCH   9  43
TORSDOF 13
ENDMDL
