MODEL 1
REMARK VINA RESULT: -6.605387336      0.000      0.000
REMARK  8 active torsions:
REMARK  status: ('A' for Active; 'I' for Inactive)
REMARK    1  A    between atoms: N1_2  and  C2_3 
REMARK    2  A    between atoms: N1_2  and  C4_9 
REMARK    3  A    between atoms: C2_3  and  C3_4 
REMARK    4  A    between atoms: C3_4  and  N2_5 
REMARK    5  A    between atoms: C4_9  and  C5_10 
REMARK    6  A    between atoms: C7_18  and  O1_19 
REMARK    7  A    between atoms: C7_18  and  C8_21 
REMARK    8  A    between atoms: C8_21  and  O2_22 
ROOT
HETATM    1  C5  UNL     1      25.164  -8.000  15.487  1.00  0.00     0.185 C 
HETATM    2  N3  UNL     1      23.842  -7.515  15.699  1.00  0.00    -0.127 NA
HETATM    3  N4  UNL     1      22.986  -8.616  15.805  1.00  0.00    -0.277 N 
ATOM      4  H4  UNL     1      22.050  -8.473  16.181  1.00  0.00     0.185 HD
HETATM    5  C6  UNL     1      23.368  -9.928  15.409  1.00  0.00     0.202 C 
HETATM    6  N5  UNL     1      22.655 -11.060  15.843  1.00  0.00    -0.062 NA
HETATM    7  N6  UNL     1      24.406 -10.074  14.626  1.00  0.00    -0.329 N 
ATOM      8  H6  UNL     1      24.716 -10.995  14.316  1.00  0.00     0.165 HD
HETATM    9  C7  UNL     1      25.102  -8.847  14.213  1.00  0.00     0.176 C 
ENDROOT
BRANCH   1  10
HETATM   10  C4  UNL     1      26.217  -6.959  15.362  1.00  0.00     0.299 C 
BRANCH  10  11
HETATM   11  N1  UNL     1      27.220  -6.959  16.362  1.00  0.00     0.087 N 
HETATM   12  C1  UNL     1      27.587  -8.332  16.633  1.00  0.00     0.310 C 
BRANCH  11  13
HETATM   13  C2  UNL     1      26.998  -6.153  17.510  1.00  0.00     0.299 C 
BRANCH  13  14
HETATM   14  C3  UNL     1      28.208  -5.304  17.881  1.00  0.00     0.259 C 
BRANCH  14  15
HETATM   15  N2  UNL     1      27.830  -4.095  18.586  1.00  0.00    -0.078 N 
ATOM     16  H23 UNL     1      28.194  -3.265  18.117  1.00  0.00     0.274 HD
ATOM     17  H22 UNL     1      26.832  -3.909  18.492  1.00  0.00     0.274 HD
ATOM     18  H21 UNL     1      28.111  -4.120  19.567  1.00  0.00     0.274 HD
ENDBRANCH  14  15
ENDBRANCH  13  14
ENDBRANCH  11  13
ENDBRANCH  10  11
ENDBRANCH   1  10
BRANCH   9  19
HETATM   19  O1  UNL     1      24.289  -8.259  13.249  1.00  0.00    -0.367 OA
ATOM     20  H1  UNL     1      24.740  -8.176  12.417  1.00  0.00     0.212 HD
ENDBRANCH   9  19
BRANCH   9  21
HETATM   21  C8  UNL     1      26.458  -9.199  13.699  1.00  0.00     0.227 C 
BRANCH  21  22
HETATM   22  O2  UNL     1      26.570  -8.605  12.426  1.00  0.00    -0.396 OA
ATOM     23  H2  UNL     1      25.947  -9.051  11.865  1.00  0.00     0.209 HD
ENDBRANCH  21  22
ENDBRANCH   9  21
TORSDOF 8
ENDMDL
MODEL 2
REMARK VINA RESULT: -6.198625066      2.707      4.646
REMARK  8 active torsions:
REMARK  status: ('A' for Active; 'I' for Inactive)
REMARK    1  A    between atoms: N1_2  and  C2_3 
REMARK    2  A    between atoms: N1_2  and  C4_9 
REMARK    3  A    between atoms: C2_3  and  C3_4 
REMARK    4  A    between atoms: C3_4  and  N2_5 
REMARK    5  A    between atoms: C4_9  and  C5_10 
REMARK    6  A    between atoms: C7_18  and  O1_19 
REMARK    7  A    between atoms: C7_18  and  C8_21 
REMARK    8  A    between atoms: C8_21  and  O2_22 
ROOT
HETATM    1  C5  UNL     1      26.509  -9.493  14.738  1.00  0.00     0.185 C 
HETATM    2  N3  UNL     1      27.142 -10.577  14.065  1.00  0.00    -0.127 NA
HETATM    3  N4  UNL     1      27.719 -11.410  15.028  1.00  0.00    -0.277 N 
ATOM      4  H4  UNL     1      28.015 -12.346  14.751  1.00  0.00     0.185 HD
HETATM    5  C6  UNL     1      27.910 -11.007  16.379  1.00  0.00     0.202 C 
HETATM    6  N5  UNL     1      28.150 -11.948  17.397  1.00  0.00    -0.062 NA
HETATM    7  N6  UNL     1      27.862  -9.733  16.670  1.00  0.00    -0.329 N 
ATOM      8  H6  UNL     1      27.994  -9.397  17.625  1.00  0.00     0.165 HD
HETATM    9  C7  UNL     1      27.608  -8.808  15.556  1.00  0.00     0.176 C 
ENDROOT
BRANCH   1  10
HETATM   10  C4  UNL     1      25.828  -8.504  13.863  1.00  0.00     0.299 C 
BRANCH  10  11
HETATM   11  N1  UNL     1      24.444  -8.309  14.099  1.00  0.00     0.087 N 
HETATM   12  C1  UNL     1      24.166  -6.892  14.000  1.00  0.00     0.310 C 
BRANCH  11  13
HETATM   13  C2  UNL     1      23.873  -8.963  15.223  1.00  0.00     0.299 C 
BRANCH  13  14
HETATM   14  C3  UNL     1      23.461  -7.996  16.325  1.00  0.00     0.259 C 
BRANCH  14  15
HETATM   15  N2  UNL     1      22.069  -8.153  16.695  1.00  0.00    -0.078 N 
ATOM     16  H23 UNL     1      21.626  -8.901  16.160  1.00  0.00     0.274 HD
ATOM     17  H22 UNL     1      21.977  -8.548  17.631  1.00  0.00     0.274 HD
ATOM     18  H21 UNL     1      21.549  -7.280  16.610  1.00  0.00     0.274 HD
ENDBRANCH  14  15
ENDBRANCH  13  14
ENDBRANCH  11  13
ENDBRANCH  10  11
ENDBRANCH   1  10
BRANCH   9  19
HETATM   19  O1  UNL     1      28.802  -8.736  14.847  1.00  0.00    -0.367 OA
ATOM     20  H1  UNL     1      29.483  -8.310  15.354  1.00  0.00     0.212 HD
ENDBRANCH   9  19
BRANCH   9  21
HETATM   21  C8  UNL     1      27.171  -7.489  16.101  1.00  0.00     0.227 C 
BRANCH  21  22
HETATM   22  O2  UNL     1      28.188  -7.063  16.978  1.00  0.00    -0.396 OA
ATOM     23  H2  UNL     1      28.634  -7.847  17.275  1.00  0.00     0.209 HD
ENDBRANCH  21  22
ENDBRANCH   9  21
TORSDOF 8
ENDMDL
MODEL 3
REMARK VINA RESULT: -5.752257417      1.991      4.772
REMARK  8 active torsions:
REMARK  status: ('A' for Active; 'I' for Inactive)
REMARK    1  A    between atoms: N1_2  and  C2_3 
REMARK    2  A    between atoms: N1_2  and  C4_9 
REMARK    3  A    between atoms: C2_3  and  C3_4 
REMARK    4  A    between atoms: C3_4  and  N2_5 
REMARK    5  A    between atoms: C4_9  and  C5_10 
REMARK    6  A    between atoms: C7_18  and  O1_19 
REMARK    7  A    between atoms: C7_18  and  C8_21 
REMARK    8  A    between atoms: C8_21  and  O2_22 
ROOT
HETATM    1  C5  UNL     1      25.266  -9.531  15.210  1.00  0.00     0.185 C 
HETATM    2  N3  UNL     1      26.440 -10.329  15.318  1.00  0.00    -0.127 NA
HETATM    3  N4  UNL     1      27.465  -9.528  15.832  1.00  0.00    -0.277 N 
ATOM      4  H4  UNL     1      28.307  -9.980  16.188  1.00  0.00     0.185 HD
HETATM    5  C6  UNL     1      27.382  -8.109  15.879  1.00  0.00     0.202 C 
HETATM    6  N5  UNL     1      28.235  -7.353  16.704  1.00  0.00    -0.062 NA
HETATM    7  N6  UNL     1      26.493  -7.503  15.135  1.00  0.00    -0.329 N 
ATOM      8  H6  UNL     1      26.398  -6.487  15.136  1.00  0.00     0.165 HD
HETATM    9  C7  UNL     1      25.637  -8.357  14.298  1.00  0.00     0.176 C 
ENDROOT
BRANCH   1  10
HETATM   10  C4  UNL     1      24.062 -10.226  14.687  1.00  0.00     0.299 C 
BRANCH  10  11
HETATM   11  N1  UNL     1      23.144 -10.704  15.656  1.00  0.00     0.087 N 
HETATM   12  C1  UNL     1      22.749 -12.044  15.280  1.00  0.00     0.310 C 
BRANCH  11  13
HETATM   13  C2  UNL     1      22.081  -9.840  16.030  1.00  0.00     0.299 C 
BRANCH  13  14
HETATM   14  C3  UNL     1      22.567  -8.502  16.574  1.00  0.00     0.259 C 
BRANCH  14  15
HETATM   15  N2  UNL     1      21.486  -7.549  16.724  1.00  0.00    -0.078 N 
ATOM     16  H23 UNL     1      21.645  -6.718  16.154  1.00  0.00     0.274 HD
ATOM     17  H22 UNL     1      20.631  -7.887  16.282  1.00  0.00     0.274 HD
ATOM     18  H21 UNL     1      21.324  -7.303  17.701  1.00  0.00     0.274 HD
ENDBRANCH  14  15
ENDBRANCH  13  14
ENDBRANCH  11  13
ENDBRANCH  10  11
ENDBRANCH   1  10
BRANCH   9  19
HETATM   19  O1  UNL     1      26.438  -8.769  13.238  1.00  0.00    -0.367 OA
ATOM     20  H1  UNL     1      26.764  -8.029  12.740  1.00  0.00     0.212 HD
ENDBRANCH   9  19
BRANCH   9  21
HETATM   21  C8  UNL     1      24.442  -7.578  13.861  1.00  0.00     0.227 C 
BRANCH  21  22
HETATM   22  O2  UNL     1      24.690  -6.236  14.210  1.00  0.00    -0.396 OA
ATOM     23  H2  UNL     1      24.007  -5.720  13.799  1.00  0.00     0.209 HD
ENDBRANCH  21  22
ENDBRANCH   9  21
TORSDOF 8
ENDMDL
MODEL 4
REMARK VINA RESULT: -5.722853942      2.687      5.424
REMARK  8 active torsions:
REMARK  status: ('A' for Active; 'I' for Inactive)
REMARK    1  A    between atoms: N1_2  and  C2_3 
REMARK    2  A    between atoms: N1_2  and  C4_9 
REMARK    3  A    between atoms: C2_3  and  C3_4 
REMARK    4  A    between atoms: C3_4  and  N2_5 
REMARK    5  A    between atoms: C4_9  and  C5_10 
REMARK    6  A    between atoms: C7_18  and  O1_19 
REMARK    7  A    between atoms: C7_18  and  C8_21 
REMARK    8  A    between atoms: C8_21  and  O2_22 
ROOT
HETATM    1  C5  UNL     1      26.578  -9.479  14.876  1.00  0.00     0.185 C 
HETATM    2  N3  UNL     1      27.227 -10.217  13.846  1.00  0.00    -0.127 NA
HETATM    3  N4  UNL     1      28.252 -10.970  14.429  1.00  0.00    -0.277 N 
ATOM      4  H4  UNL     1      28.672 -11.725  13.889  1.00  0.00     0.185 HD
HETATM    5  C6  UNL     1      28.732 -10.725  15.746  1.00  0.00     0.202 C 
HETATM    6  N5  UNL     1      29.487 -11.688  16.440  1.00  0.00    -0.062 NA
HETATM    7  N6  UNL     1      28.461  -9.579  16.314  1.00  0.00    -0.329 N 
ATOM      8  H6  UNL     1      28.785  -9.359  17.256  1.00  0.00     0.165 HD
HETATM    9  C7  UNL     1      27.667  -8.622  15.529  1.00  0.00     0.176 C 
ENDROOT
BRANCH   1  10
HETATM   10  C4  UNL     1      25.446  -8.623  14.438  1.00  0.00     0.299 C 
BRANCH  10  11
HETATM   11  N1  UNL     1      24.150  -9.060  14.810  1.00  0.00     0.087 N 
HETATM   12  C1  UNL     1      23.609  -8.108  15.756  1.00  0.00     0.310 C 
BRANCH  11  13
HETATM   13  C2  UNL     1      23.998 -10.425  15.169  1.00  0.00     0.299 C 
BRANCH  13  14
HETATM   14  C3  UNL     1      22.556 -10.797  15.490  1.00  0.00     0.259 C 
BRANCH  14  15
HETATM   15  N2  UNL     1      22.215 -12.122  15.013  1.00  0.00    -0.078 N 
ATOM     16  H23 UNL     1      22.859 -12.824  15.379  1.00  0.00     0.274 HD
ATOM     17  H22 UNL     1      21.351 -12.458  15.438  1.00  0.00     0.274 HD
ATOM     18  H21 UNL     1      22.165 -12.162  13.994  1.00  0.00     0.274 HD
ENDBRANCH  14  15
ENDBRANCH  13  14
ENDBRANCH  11  13
ENDBRANCH  10  11
ENDBRANCH   1  10
BRANCH   9  19
HETATM   19  O1  UNL     1      28.539  -8.097  14.582  1.00  0.00    -0.367 OA
ATOM     20  H1  UNL     1      28.547  -7.147  14.603  1.00  0.00     0.212 HD
ENDBRANCH   9  19
BRANCH   9  21
HETATM   21  C8  UNL     1      27.102  -7.585  16.442  1.00  0.00     0.227 C 
BRANCH  21  22
HETATM   22  O2  UNL     1      28.197  -7.002  17.110  1.00  0.00    -0.396 OA
ATOM     23  H2  UNL     1      27.940  -6.113  17.324  1.00  0.00     0.209 HD
ENDBRANCH  21  22
ENDBRANCH   9  21
TORSDOF 8
ENDMDL
MODEL 5
REMARK VINA RESULT: -5.688750705      3.637      4.950
REMARK  8 active torsions:
REMARK  status: ('A' for Active; 'I' for Inactive)
REMARK    1  A    between atoms: N1_2  and  C2_3 
REMARK    2  A    between atoms: N1_2  and  C4_9 
REMARK    3  A    between atoms: C2_3  and  C3_4 
REMARK    4  A    between atoms: C3_4  and  N2_5 
REMARK    5  A    between atoms: C4_9  and  C5_10 
REMARK    6  A    between atoms: C7_18  and  O1_19 
REMARK    7  A    between atoms: C7_18  and  C8_21 
REMARK    8  A    between atoms: C8_21  and  O2_22 
ROOT
HETATM    1  C5  UNL     1      26.948 -10.002  14.808  1.00  0.00     0.185 C 
HETATM    2  N3  UNL     1      25.751 -10.679  15.178  1.00  0.00    -0.127 NA
HETATM    3  N4  UNL     1      24.666  -9.944  14.690  1.00  0.00    -0.277 N 
ATOM      4  H4  UNL     1      23.749 -10.388  14.661  1.00  0.00     0.185 HD
HETATM    5  C6  UNL     1      24.789  -8.604  14.231  1.00  0.00     0.202 C 
HETATM    6  N5  UNL     1      23.798  -8.011  13.427  1.00  0.00    -0.062 NA
HETATM    7  N6  UNL     1      25.848  -7.915  14.570  1.00  0.00    -0.329 N 
ATOM      8  H6  UNL     1      25.978  -6.950  14.265  1.00  0.00     0.165 HD
HETATM    9  C7  UNL     1      26.841  -8.598  15.412  1.00  0.00     0.176 C 
ENDROOT
BRANCH   1  10
HETATM   10  C4  UNL     1      28.213 -10.651  15.238  1.00  0.00     0.299 C 
BRANCH  10  11
HETATM   11  N1  UNL     1      28.082 -11.881  15.929  1.00  0.00     0.087 N 
HETATM   12  C1  UNL     1      27.999 -11.596  17.345  1.00  0.00     0.310 C 
BRANCH  11  13
HETATM   13  C2  UNL     1      28.971 -12.929  15.571  1.00  0.00     0.299 C 
BRANCH  13  14
HETATM   14  C3  UNL     1      29.585 -13.624  16.780  1.00  0.00     0.259 C 
BRANCH  14  15
HETATM   15  N2  UNL     1      31.031 -13.685  16.698  1.00  0.00    -0.078 N 
ATOM     16  H23 UNL     1      31.348 -13.624  15.730  1.00  0.00     0.274 HD
ATOM     17  H22 UNL     1      31.458 -12.834  17.063  1.00  0.00     0.274 HD
ATOM     18  H21 UNL     1      31.406 -14.514  17.159  1.00  0.00     0.274 HD
ENDBRANCH  14  15
ENDBRANCH  13  14
ENDBRANCH  11  13
ENDBRANCH  10  11
ENDBRANCH   1  10
BRANCH   9  19
HETATM   19  O1  UNL     1      26.291  -8.633  16.689  1.00  0.00    -0.367 OA
ATOM     20  H1  UNL     1      26.582  -7.897  17.214  1.00  0.00     0.212 HD
ENDBRANCH   9  19
BRANCH   9  21
HETATM   21  C8  UNL     1      28.133  -7.854  15.351  1.00  0.00     0.227 C 
BRANCH  21  22
HETATM   22  O2  UNL     1      28.397  -7.405  16.660  1.00  0.00    -0.396 OA
ATOM     23  H2  UNL     1      28.822  -8.125  17.111  1.00  0.00     0.209 HD
ENDBRANCH  21  22
ENDBRANCH   9  21
TORSDOF 8
ENDMDL
