MODEL 1
REMARK VINA RESULT: -9.281605588      0.000      0.000
REMARK  15 active torsions:
REMARK  status: ('A' for Active; 'I' for Inactive)
REMARK    1  A    between atoms: C2_2  and  O2_4 
REMARK    2  A    between atoms: O2_4  and  C3_5 
REMARK    3  A    between atoms: C4_6  and  C5_7 
REMARK    4  A    between atoms: C5_7  and  S1_8 
REMARK    5  A    between atoms: S1_8  and  C6_9 
REMARK    6  A    between atoms: C6_9  and  C7_10 
REMARK    7  A    between atoms: C7_10  and  C8_11 
REMARK    8  A    between atoms: C8_11  and  N1_12 
REMARK    9  A    between atoms: C8_11  and  N6_22 
REMARK   10  A    between atoms: N1_12  and  N2_14 
REMARK   11  A    between atoms: C11_29  and  O3_30 
REMARK   12  A    between atoms: C12_32  and  N10_33 
REMARK   13  A    between atoms: C13_40  and  N12_41 
REMARK   14  A    between atoms: C15_45  and  N14_46 
REMARK   15  A    between atoms: C16_51  and  N16_52 
ROOT
HETATM    1  C3  UNL     1     -18.730  22.892   3.124  1.00  0.00     0.192 A 
HETATM    2  C4  UNL     1     -18.891  21.523   3.778  1.00  0.00     0.086 A 
HETATM    3  C12 UNL     1     -19.849  20.822   2.897  1.00  0.00     0.390 A 
HETATM    4  N11 UNL     1     -20.225  21.653   1.786  1.00  0.00    -0.021 N 
ATOM      5 1H11 UNL     1     -21.236  21.750   1.696  1.00  0.00     0.282 HD
ATOM      6 2H11 UNL     1     -20.046  21.205   0.887  1.00  0.00     0.282 HD
HETATM    7  C13 UNL     1     -19.566  22.911   1.909  1.00  0.00     0.341 A 
ENDROOT
BRANCH   2   8
HETATM    8  C5  UNL     1     -19.280  21.649   5.208  1.00  0.00     0.085 C 
BRANCH   8   9
HETATM    9  S1  UNL     1     -18.144  20.885   6.327  1.00  0.00    -0.168 SA
BRANCH   9  10
HETATM   10  C6  UNL     1     -16.672  21.752   6.777  1.00  0.00     0.077 C 
BRANCH  10  11
HETATM   11  C7  UNL     1     -15.471  21.271   5.931  1.00  0.00     0.060 C 
BRANCH  11  12
HETATM   12  C8  UNL     1     -14.205  21.519   6.689  1.00  0.00     0.229 C 
BRANCH  12  13
HETATM   13  N1  UNL     1     -14.426  22.550   7.675  1.00  0.00    -0.274 N 
ATOM     14  H1  UNL     1     -15.216  22.418   8.306  1.00  0.00     0.186 HD
BRANCH  13  15
HETATM   15  N2  UNL     1     -13.673  23.702   7.850  1.00  0.00    -0.118 N 
HETATM   16  N3  UNL     1     -14.130  24.951   7.634  1.00  0.00    -0.258 N 
HETATM   17  C9  UNL     1     -13.148  25.821   7.878  1.00  0.00     0.219 A 
ATOM     18  H3  UNL     1     -15.074  25.193   7.332  1.00  0.00     0.191 HD
HETATM   19  N4  UNL     1     -12.102  25.072   8.243  1.00  0.00    -0.278 N 
HETATM   20  N5  UNL     1     -12.418  23.772   8.227  1.00  0.00    -0.205 N 
ATOM     21  H4  UNL     1     -11.186  25.442   8.500  1.00  0.00     0.189 HD
ATOM     22  H5  UNL     1     -11.805  22.990   8.461  1.00  0.00     0.212 HD
ENDBRANCH  13  15
ENDBRANCH  12  13
BRANCH  12  23
HETATM   23  N6  UNL     1     -13.685  20.349   7.349  1.00  0.00    -0.228 N 
HETATM   24  N7  UNL     1     -14.462  19.275   7.567  1.00  0.00    -0.235 N 
HETATM   25  N8  UNL     1     -13.774  18.339   8.187  1.00  0.00    -0.269 N 
ATOM     26  H7  UNL     1     -15.442  19.197   7.294  1.00  0.00     0.208 HD
HETATM   27  C10 UNL     1     -12.526  18.772   8.392  1.00  0.00     0.184 A 
ATOM     28  H8  UNL     1     -14.136  17.428   8.467  1.00  0.00     0.190 HD
HETATM   29  N9  UNL     1     -11.437  18.122   9.014  1.00  0.00    -0.076 NA
HETATM   30  C11 UNL     1     -12.494  20.051   7.852  1.00  0.00     0.204 A 
BRANCH  30  31
HETATM   31  O3  UNL     1     -11.382  20.898   7.835  1.00  0.00    -0.342 OA
ATOM     32  H3  UNL     1     -10.567  20.735   8.295  1.00  0.00     0.219 HD
ENDBRANCH  30  31
ENDBRANCH  12  23
ENDBRANCH  11  12
ENDBRANCH  10  11
ENDBRANCH   9  10
ENDBRANCH   8   9
ENDBRANCH   2   8
BRANCH   1  33
HETATM   33  O2  UNL     1     -17.372  23.225   2.931  1.00  0.00    -0.312 OA
BRANCH  33  34
HETATM   34  C2  UNL     1     -16.776  24.377   3.423  1.00  0.00     0.255 C 
HETATM   35  C1  UNL     1     -16.677  24.669   4.888  1.00  0.00     0.126 C 
HETATM   36  O1  UNL     1     -16.317  25.177   2.556  1.00  0.00    -0.266 OA
ENDBRANCH  33  34
ENDBRANCH   1  33
BRANCH   3  37
HETATM   37  N10 UNL     1     -19.246  19.624   2.301  1.00  0.00    -0.050 N 
ATOM     38 3H10 UNL     1     -18.248  19.753   2.130  1.00  0.00     0.276 HD
ATOM     39 2H10 UNL     1     -19.193  18.858   2.972  1.00  0.00     0.276 HD
ATOM     40 1H10 UNL     1     -19.738  19.345   1.452  1.00  0.00     0.276 HD
ENDBRANCH   3  37
BRANCH   7  41
HETATM   41  N12 UNL     1     -18.874  23.307   0.691  1.00  0.00    -0.237 N 
HETATM   42  C14 UNL     1     -18.254  22.630  -0.290  1.00  0.00     0.172 A 
HETATM   43  N13 UNL     1     -17.820  21.510  -0.910  1.00  0.00    -0.173 N 
HETATM   44  C17 UNL     1     -17.974  23.825  -0.891  1.00  0.00     0.141 A 
HETATM   45  C15 UNL     1     -17.139  21.548  -2.069  1.00  0.00     0.679 A 
ATOM     46  H13 UNL     1     -18.016  20.604  -0.484  1.00  0.00     0.186 HD
HETATM   47  N15 UNL     1     -16.856  22.739  -2.673  1.00  0.00    -0.175 N 
HETATM   48  C16 UNL     1     -17.273  23.869  -2.085  1.00  0.00     0.147 A 
ATOM     49  H15 UNL     1     -16.339  22.768  -3.552  1.00  0.00     0.186 HD
HETATM   50  N17 UNL     1     -18.609  24.457   0.122  1.00  0.00    -0.284 N 
HETATM   51  C18 UNL     1     -18.821  25.875   0.334  1.00  0.00     0.178 C 
BRANCH  45  52
HETATM   52  N14 UNL     1     -16.737  20.466  -2.637  1.00  0.00    -0.234 N 
ATOM     53 2H14 UNL     1     -16.196  19.801  -2.084  1.00  0.00     0.174 HD
ATOM     54 1H14 UNL     1     -16.954  20.275  -3.616  1.00  0.00     0.174 HD
ENDBRANCH  45  52
BRANCH  48  55
HETATM   55  N16 UNL     1     -17.012  24.989  -2.646  1.00  0.00    -0.383 N 
ATOM     56 2H16 UNL     1     -16.337  25.043  -3.408  1.00  0.00     0.157 HD
ATOM     57 1H16 UNL     1     -17.491  25.827  -2.317  1.00  0.00     0.157 HD
ENDBRANCH  48  55
ENDBRANCH   7  41
TORSDOF 15
ENDMDL
MODEL 2
REMARK VINA RESULT: -9.045471391      1.518      2.285
REMARK  15 active torsions:
REMARK  status: ('A' for Active; 'I' for Inactive)
REMARK    1  A    between atoms: C2_2  and  O2_4 
REMARK    2  A    between atoms: O2_4  and  C3_5 
REMARK    3  A    between atoms: C4_6  and  C5_7 
REMARK    4  A    between atoms: C5_7  and  S1_8 
REMARK    5  A    between atoms: S1_8  and  C6_9 
REMARK    6  A    between atoms: C6_9  and  C7_10 
REMARK    7  A    between atoms: C7_10  and  C8_11 
REMARK    8  A    between atoms: C8_11  and  N1_12 
REMARK    9  A    between atoms: C8_11  and  N6_22 
REMARK   10  A    between atoms: N1_12  and  N2_14 
REMARK   11  A    between atoms: C11_29  and  O3_30 
REMARK   12  A    between atoms: C12_32  and  N10_33 
REMARK   13  A    between atoms: C13_40  and  N12_41 
REMARK   14  A    between atoms: C15_45  and  N14_46 
REMARK   15  A    between atoms: C16_51  and  N16_52 
ROOT
HETATM    1  C3  UNL     1     -19.126  22.506   2.601  1.00  0.00     0.192 A 
HETATM    2  C4  UNL     1     -19.517  23.362   3.802  1.00  0.00     0.086 A 
HETATM    3  C12 UNL     1     -18.435  24.366   3.887  1.00  0.00     0.390 A 
HETATM    4  N11 UNL     1     -17.480  24.180   2.828  1.00  0.00    -0.021 N 
ATOM      5 1H11 UNL     1     -16.524  24.096   3.175  1.00  0.00     0.282 HD
ATOM      6 2H11 UNL     1     -17.353  25.021   2.266  1.00  0.00     0.282 HD
HETATM    7  C13 UNL     1     -17.875  23.056   2.045  1.00  0.00     0.341 A 
ENDROOT
BRANCH   2   8
HETATM    8  C5  UNL     1     -19.739  22.527   5.012  1.00  0.00     0.085 C 
BRANCH   8   9
HETATM    9  S1  UNL     1     -18.433  21.383   5.341  1.00  0.00    -0.168 SA
BRANCH   9  10
HETATM   10  C6  UNL     1     -16.872  22.001   5.893  1.00  0.00     0.077 C 
BRANCH  10  11
HETATM   11  C7  UNL     1     -16.286  21.100   7.004  1.00  0.00     0.060 C 
BRANCH  11  12
HETATM   12  C8  UNL     1     -14.834  21.415   7.177  1.00  0.00     0.229 C 
BRANCH  12  13
HETATM   13  N1  UNL     1     -14.677  22.435   8.186  1.00  0.00    -0.274 N 
ATOM     14  H1  UNL     1     -15.216  22.317   9.043  1.00  0.00     0.186 HD
BRANCH  13  15
HETATM   15  N2  UNL     1     -13.867  23.559   8.107  1.00  0.00    -0.118 N 
HETATM   16  N3  UNL     1     -14.302  24.788   7.765  1.00  0.00    -0.258 N 
HETATM   17  C9  UNL     1     -13.267  25.631   7.770  1.00  0.00     0.219 A 
ATOM     18  H3  UNL     1     -15.266  25.034   7.540  1.00  0.00     0.191 HD
HETATM   19  N4  UNL     1     -12.213  24.887   8.119  1.00  0.00    -0.278 N 
HETATM   20  N5  UNL     1     -12.575  23.615   8.326  1.00  0.00    -0.205 N 
ATOM     21  H4  UNL     1     -11.261  25.241   8.215  1.00  0.00     0.189 HD
ATOM     22  H5  UNL     1     -11.967  22.843   8.600  1.00  0.00     0.212 HD
ENDBRANCH  13  15
ENDBRANCH  12  13
BRANCH  12  23
HETATM   23  N6  UNL     1     -14.031  20.275   7.540  1.00  0.00    -0.228 N 
HETATM   24  N7  UNL     1     -14.602  19.096   7.839  1.00  0.00    -0.235 N 
HETATM   25  N8  UNL     1     -13.675  18.211   8.143  1.00  0.00    -0.269 N 
ATOM     26  H7  UNL     1     -15.605  18.912   7.831  1.00  0.00     0.208 HD
HETATM   27  C10 UNL     1     -12.470  18.786   8.052  1.00  0.00     0.184 A 
ATOM     28  H8  UNL     1     -13.848  17.242   8.408  1.00  0.00     0.190 HD
HETATM   29  N9  UNL     1     -11.191  18.236   8.283  1.00  0.00    -0.076 NA
HETATM   30  C11 UNL     1     -12.724  20.096   7.668  1.00  0.00     0.204 A 
BRANCH  30  31
HETATM   31  O3  UNL     1     -11.754  21.078   7.447  1.00  0.00    -0.342 OA
ATOM     32  H3  UNL     1     -10.818  20.923   7.420  1.00  0.00     0.219 HD
ENDBRANCH  30  31
ENDBRANCH  12  23
ENDBRANCH  11  12
ENDBRANCH  10  11
ENDBRANCH   9  10
ENDBRANCH   8   9
ENDBRANCH   2   8
BRANCH   1  33
HETATM   33  O2  UNL     1     -20.189  22.372   1.684  1.00  0.00    -0.312 OA
BRANCH  33  34
HETATM   34  C2  UNL     1     -21.420  22.998   1.822  1.00  0.00     0.255 C 
HETATM   35  C1  UNL     1     -22.642  22.273   2.293  1.00  0.00     0.126 C 
HETATM   36  O1  UNL     1     -21.453  24.228   1.524  1.00  0.00    -0.266 OA
ENDBRANCH  33  34
ENDBRANCH   1  33
BRANCH   3  37
HETATM   37  N10 UNL     1     -18.955  25.726   3.707  1.00  0.00    -0.050 N 
ATOM     38 3H10 UNL     1     -19.085  25.950   2.721  1.00  0.00     0.276 HD
ATOM     39 2H10 UNL     1     -19.924  25.800   4.015  1.00  0.00     0.276 HD
ATOM     40 1H10 UNL     1     -18.362  26.414   4.172  1.00  0.00     0.276 HD
ENDBRANCH   3  37
BRANCH   7  41
HETATM   41  N12 UNL     1     -17.910  23.346   0.620  1.00  0.00    -0.237 N 
HETATM   42  C14 UNL     1     -17.659  22.624  -0.485  1.00  0.00     0.172 A 
HETATM   43  N13 UNL     1     -17.308  21.501  -1.152  1.00  0.00    -0.173 N 
HETATM   44  C17 UNL     1     -17.953  23.729  -1.233  1.00  0.00     0.141 A 
HETATM   45  C15 UNL     1     -17.245  21.452  -2.494  1.00  0.00     0.679 A 
ATOM     46  H13 UNL     1     -17.083  20.661  -0.617  1.00  0.00     0.186 HD
HETATM   47  N15 UNL     1     -17.537  22.553  -3.246  1.00  0.00    -0.175 N 
HETATM   48  C16 UNL     1     -17.889  23.683  -2.616  1.00  0.00     0.147 A 
ATOM     49  H15 UNL     1     -17.489  22.517  -4.265  1.00  0.00     0.186 HD
HETATM   50  N17 UNL     1     -18.193  24.411  -0.091  1.00  0.00    -0.284 N 
HETATM   51  C18 UNL     1     -18.600  25.790   0.091  1.00  0.00     0.178 C 
BRANCH  45  52
HETATM   52  N14 UNL     1     -16.907  20.370  -3.103  1.00  0.00    -0.234 N 
ATOM     53 2H14 UNL     1     -16.641  19.562  -2.540  1.00  0.00     0.174 HD
ATOM     54 1H14 UNL     1     -16.906  20.320  -4.122  1.00  0.00     0.174 HD
ENDBRANCH  45  52
BRANCH  48  55
HETATM   55  N16 UNL     1     -18.165  24.719  -3.315  1.00  0.00    -0.383 N 
ATOM     56 2H16 UNL     1     -18.386  24.632  -4.307  1.00  0.00     0.157 HD
ATOM     57 1H16 UNL     1     -18.161  25.633  -2.863  1.00  0.00     0.157 HD
ENDBRANCH  48  55
ENDBRANCH   7  41
TORSDOF 15
ENDMDL
MODEL 3
REMARK VINA RESULT: -9.022971003      4.688      7.408
REMARK  15 active torsions:
REMARK  status: ('A' for Active; 'I' for Inactive)
REMARK    1  A    between atoms: C2_2  and  O2_4 
REMARK    2  A    between atoms: O2_4  and  C3_5 
REMARK    3  A    between atoms: C4_6  and  C5_7 
REMARK    4  A    between atoms: C5_7  and  S1_8 
REMARK    5  A    between atoms: S1_8  and  C6_9 
REMARK    6  A    between atoms: C6_9  and  C7_10 
REMARK    7  A    between atoms: C7_10  and  C8_11 
REMARK    8  A    between atoms: C8_11  and  N1_12 
REMARK    9  A    between atoms: C8_11  and  N6_22 
REMARK   10  A    between atoms: N1_12  and  N2_14 
REMARK   11  A    between atoms: C11_29  and  O3_30 
REMARK   12  A    between atoms: C12_32  and  N10_33 
REMARK   13  A    between atoms: C13_40  and  N12_41 
REMARK   14  A    between atoms: C15_45  and  N14_46 
REMARK   15  A    between atoms: C16_51  and  N16_52 
ROOT
HETATM    1  C3  UNL     1     -19.129  21.719   3.306  1.00  0.00     0.192 A 
HETATM    2  C4  UNL     1     -19.467  20.663   4.354  1.00  0.00     0.086 A 
HETATM    3  C12 UNL     1     -20.385  19.745   3.647  1.00  0.00     0.390 A 
HETATM    4  N11 UNL     1     -20.577  20.162   2.285  1.00  0.00    -0.021 N 
ATOM      5 1H11 UNL     1     -21.563  20.266   2.044  1.00  0.00     0.282 HD
ATOM      6 2H11 UNL     1     -20.345  19.428   1.616  1.00  0.00     0.282 HD
HETATM    7  C13 UNL     1     -19.833  21.358   2.061  1.00  0.00     0.341 A 
ENDROOT
BRANCH   2   8
HETATM    8  C5  UNL     1     -19.988  21.286   5.600  1.00  0.00     0.085 C 
BRANCH   8   9
HETATM    9  S1  UNL     1     -21.728  21.080   5.830  1.00  0.00    -0.168 SA
BRANCH   9  10
HETATM   10  C6  UNL     1     -22.836  22.196   5.025  1.00  0.00     0.077 C 
BRANCH  10  11
HETATM   11  C7  UNL     1     -22.134  23.539   4.717  1.00  0.00     0.060 C 
BRANCH  11  12
HETATM   12  C8  UNL     1     -22.549  24.010   3.359  1.00  0.00     0.229 C 
BRANCH  12  13
HETATM   13  N1  UNL     1     -23.664  24.918   3.481  1.00  0.00    -0.274 N 
ATOM     14  H1  UNL     1     -24.431  24.793   2.821  1.00  0.00     0.186 HD
BRANCH  13  15
HETATM   15  N2  UNL     1     -23.798  25.944   4.406  1.00  0.00    -0.118 N 
HETATM   16  N3  UNL     1     -24.852  26.089   5.234  1.00  0.00    -0.258 N 
HETATM   17  C9  UNL     1     -24.672  27.184   5.977  1.00  0.00     0.219 A 
ATOM     18  H3  UNL     1     -25.656  25.464   5.285  1.00  0.00     0.191 HD
HETATM   19  N4  UNL     1     -23.498  27.686   5.579  1.00  0.00    -0.278 N 
HETATM   20  N5  UNL     1     -22.959  26.930   4.616  1.00  0.00    -0.205 N 
ATOM     21  H4  UNL     1     -23.072  28.531   5.959  1.00  0.00     0.189 HD
ATOM     22  H5  UNL     1     -22.071  27.088   4.139  1.00  0.00     0.212 HD
ENDBRANCH  13  15
ENDBRANCH  12  13
BRANCH  12  23
HETATM   23  N6  UNL     1     -21.496  24.664   2.624  1.00  0.00    -0.228 N 
HETATM   24  N7  UNL     1     -20.277  24.832   3.165  1.00  0.00    -0.235 N 
HETATM   25  N8  UNL     1     -19.489  25.456   2.315  1.00  0.00    -0.269 N 
ATOM     26  H7  UNL     1     -20.003  24.523   4.098  1.00  0.00     0.208 HD
HETATM   27  C10 UNL     1     -20.168  25.714   1.192  1.00  0.00     0.184 A 
ATOM     28  H8  UNL     1     -18.515  25.704   2.486  1.00  0.00     0.190 HD
HETATM   29  N9  UNL     1     -19.743  26.360   0.011  1.00  0.00    -0.076 NA
HETATM   30  C11 UNL     1     -21.439  25.202   1.414  1.00  0.00     0.204 A 
BRANCH  30  31
HETATM   31  O3  UNL     1     -22.500  25.242   0.504  1.00  0.00    -0.342 OA
ATOM     32  H3  UNL     1     -23.245  25.828   0.562  1.00  0.00     0.219 HD
ENDBRANCH  30  31
ENDBRANCH  12  23
ENDBRANCH  11  12
ENDBRANCH  10  11
ENDBRANCH   9  10
ENDBRANCH   8   9
ENDBRANCH   2   8
BRANCH   1  33
HETATM   33  O2  UNL     1     -17.737  21.908   3.182  1.00  0.00    -0.312 OA
BRANCH  33  34
HETATM   34  C2  UNL     1     -17.078  23.082   3.518  1.00  0.00     0.255 C 
HETATM   35  C1  UNL     1     -16.366  23.258   4.824  1.00  0.00     0.126 C 
HETATM   36  O1  UNL     1     -17.112  24.005   2.654  1.00  0.00    -0.266 OA
ENDBRANCH  33  34
ENDBRANCH   1  33
BRANCH   3  37
HETATM   37  N10 UNL     1     -19.824  18.391   3.564  1.00  0.00    -0.050 N 
ATOM     38 3H10 UNL     1     -18.816  18.412   3.412  1.00  0.00     0.276 HD
ATOM     39 2H10 UNL     1     -19.837  17.925   4.471  1.00  0.00     0.276 HD
ATOM     40 1H10 UNL     1     -20.299  17.837   2.852  1.00  0.00     0.276 HD
ENDBRANCH   3  37
BRANCH   7  41
HETATM   41  N12 UNL     1     -18.992  21.284   0.876  1.00  0.00    -0.237 N 
HETATM   42  C14 UNL     1     -18.495  22.200   0.027  1.00  0.00     0.172 A 
HETATM   43  N13 UNL     1     -18.308  23.457  -0.434  1.00  0.00    -0.173 N 
HETATM   44  C17 UNL     1     -17.899  21.185  -0.666  1.00  0.00     0.141 A 
HETATM   45  C15 UNL     1     -17.570  23.719  -1.527  1.00  0.00     0.679 A 
ATOM     46  H13 UNL     1     -18.742  24.234   0.064  1.00  0.00     0.186 HD
HETATM   47  N15 UNL     1     -16.972  22.708  -2.223  1.00  0.00    -0.175 N 
HETATM   48  C16 UNL     1     -17.137  21.450  -1.792  1.00  0.00     0.147 A 
ATOM     49  H15 UNL     1     -16.412  22.906  -3.053  1.00  0.00     0.186 HD
HETATM   50  N17 UNL     1     -18.423  20.305   0.216  1.00  0.00    -0.284 N 
HETATM   51  C18 UNL     1     -18.300  18.861   0.262  1.00  0.00     0.178 C 
BRANCH  45  52
HETATM   52  N14 UNL     1     -17.408  24.925  -1.944  1.00  0.00    -0.234 N 
ATOM     53 2H14 UNL     1     -18.080  25.633  -1.648  1.00  0.00     0.174 HD
ATOM     54 1H14 UNL     1     -16.628  25.169  -2.555  1.00  0.00     0.174 HD
ENDBRANCH  45  52
BRANCH  48  55
HETATM   55  N16 UNL     1     -16.580  20.497  -2.440  1.00  0.00    -0.383 N 
ATOM     56 2H16 UNL     1     -15.863  20.694  -3.138  1.00  0.00     0.157 HD
ATOM     57 1H16 UNL     1     -16.864  19.537  -2.245  1.00  0.00     0.157 HD
ENDBRANCH  48  55
ENDBRANCH   7  41
TORSDOF 15
ENDMDL
MODEL 4
REMARK VINA RESULT: -8.985150547      1.062      3.120
REMARK  15 active torsions:
REMARK  status: ('A' for Active; 'I' for Inactive)
REMARK    1  A    between atoms: C2_2  and  O2_4 
REMARK    2  A    between atoms: O2_4  and  C3_5 
REMARK    3  A    between atoms: C4_6  and  C5_7 
REMARK    4  A    between atoms: C5_7  and  S1_8 
REMARK    5  A    between atoms: S1_8  and  C6_9 
REMARK    6  A    between atoms: C6_9  and  C7_10 
REMARK    7  A    between atoms: C7_10  and  C8_11 
REMARK    8  A    between atoms: C8_11  and  N1_12 
REMARK    9  A    between atoms: C8_11  and  N6_22 
REMARK   10  A    between atoms: N1_12  and  N2_14 
REMARK   11  A    between atoms: C11_29  and  O3_30 
REMARK   12  A    between atoms: C12_32  and  N10_33 
REMARK   13  A    between atoms: C13_40  and  N12_41 
REMARK   14  A    between atoms: C15_45  and  N14_46 
REMARK   15  A    between atoms: C16_51  and  N16_52 
ROOT
HETATM    1  C3  UNL     1     -18.762  22.862   3.152  1.00  0.00     0.192 A 
HETATM    2  C4  UNL     1     -18.838  21.493   3.820  1.00  0.00     0.086 A 
HETATM    3  C12 UNL     1     -19.707  20.708   2.918  1.00  0.00     0.390 A 
HETATM    4  N11 UNL     1     -20.107  21.493   1.782  1.00  0.00    -0.021 N 
ATOM      5 1H11 UNL     1     -21.119  21.509   1.656  1.00  0.00     0.282 HD
ATOM      6 2H11 UNL     1     -19.863  21.050   0.896  1.00  0.00     0.282 HD
HETATM    7  C13 UNL     1     -19.554  22.801   1.909  1.00  0.00     0.341 A 
ENDROOT
BRANCH   2   8
HETATM    8  C5  UNL     1     -19.286  21.605   5.234  1.00  0.00     0.085 C 
BRANCH   8   9
HETATM    9  S1  UNL     1     -18.705  20.298   6.273  1.00  0.00    -0.168 SA
BRANCH   9  10
HETATM   10  C6  UNL     1     -17.116  20.450   7.032  1.00  0.00     0.077 C 
BRANCH  10  11
HETATM   11  C7  UNL     1     -16.231  21.451   6.256  1.00  0.00     0.060 C 
BRANCH  11  12
HETATM   12  C8  UNL     1     -14.985  21.717   7.042  1.00  0.00     0.229 C 
BRANCH  12  13
HETATM   13  N1  UNL     1     -13.862  21.082   6.396  1.00  0.00    -0.274 N 
ATOM     14  H1  UNL     1     -13.786  21.203   5.386  1.00  0.00     0.186 HD
BRANCH  13  15
HETATM   15  N2  UNL     1     -12.875  20.323   7.009  1.00  0.00    -0.118 N 
HETATM   16  N3  UNL     1     -13.028  19.040   7.391  1.00  0.00    -0.258 N 
HETATM   17  C9  UNL     1     -11.897  18.619   7.962  1.00  0.00     0.219 A 
ATOM     18  H3  UNL     1     -13.871  18.480   7.264  1.00  0.00     0.191 HD
HETATM   19  N4  UNL     1     -11.071  19.669   7.914  1.00  0.00    -0.278 N 
HETATM   20  N5  UNL     1     -11.666  20.717   7.332  1.00  0.00    -0.205 N 
ATOM     21  H4  UNL     1     -10.117  19.671   8.274  1.00  0.00     0.189 HD
ATOM     22  H5  UNL     1     -11.260  21.639   7.171  1.00  0.00     0.212 HD
ENDBRANCH  13  15
ENDBRANCH  12  13
BRANCH  12  23
HETATM   23  N6  UNL     1     -14.693  23.117   7.212  1.00  0.00    -0.228 N 
HETATM   24  N7  UNL     1     -15.537  24.059   6.759  1.00  0.00    -0.235 N 
HETATM   25  N8  UNL     1     -15.058  25.258   7.021  1.00  0.00    -0.269 N 
ATOM     26  H7  UNL     1     -16.419  23.874   6.281  1.00  0.00     0.208 HD
HETATM   27  C10 UNL     1     -13.886  25.135   7.654  1.00  0.00     0.184 A 
ATOM     28  H8  UNL     1     -15.509  26.140   6.780  1.00  0.00     0.190 HD
HETATM   29  N9  UNL     1     -13.011  26.135   8.131  1.00  0.00    -0.076 NA
HETATM   30  C11 UNL     1     -13.677  23.766   7.763  1.00  0.00     0.204 A 
BRANCH  30  31
HETATM   31  O3  UNL     1     -12.568  23.161   8.361  1.00  0.00    -0.342 OA
ATOM     32  H3  UNL     1     -12.167  23.441   9.175  1.00  0.00     0.219 HD
ENDBRANCH  30  31
ENDBRANCH  12  23
ENDBRANCH  11  12
ENDBRANCH  10  11
ENDBRANCH   9  10
ENDBRANCH   8   9
ENDBRANCH   2   8
BRANCH   1  33
HETATM   33  O2  UNL     1     -17.429  23.299   3.000  1.00  0.00    -0.312 OA
BRANCH  33  34
HETATM   34  C2  UNL     1     -16.914  24.445   3.589  1.00  0.00     0.255 C 
HETATM   35  C1  UNL     1     -15.886  25.301   2.918  1.00  0.00     0.126 C 
HETATM   36  O1  UNL     1     -17.364  24.729   4.738  1.00  0.00    -0.266 OA
ENDBRANCH  33  34
ENDBRANCH   1  33
BRANCH   3  37
HETATM   37  N10 UNL     1     -18.991  19.554   2.360  1.00  0.00    -0.050 N 
ATOM     38 3H10 UNL     1     -18.021  19.785   2.143  1.00  0.00     0.276 HD
ATOM     39 2H10 UNL     1     -18.828  18.837   3.067  1.00  0.00     0.276 HD
ATOM     40 1H10 UNL     1     -19.476  19.175   1.547  1.00  0.00     0.276 HD
ENDBRANCH   3  37
BRANCH   7  41
HETATM   41  N12 UNL     1     -18.853  23.235   0.710  1.00  0.00    -0.237 N 
HETATM   42  C14 UNL     1     -18.246  22.589  -0.300  1.00  0.00     0.172 A 
HETATM   43  N13 UNL     1     -17.834  21.489  -0.969  1.00  0.00    -0.173 N 
HETATM   44  C17 UNL     1     -17.941  23.804  -0.848  1.00  0.00     0.141 A 
HETATM   45  C15 UNL     1     -17.151  21.563  -2.124  1.00  0.00     0.679 A 
ATOM     46  H13 UNL     1     -18.048  20.569  -0.582  1.00  0.00     0.186 HD
HETATM   47  N15 UNL     1     -16.844  22.774  -2.676  1.00  0.00    -0.175 N 
HETATM   48  C16 UNL     1     -17.238  23.885  -2.039  1.00  0.00     0.147 A 
ATOM     49  H15 UNL     1     -16.325  22.831  -3.553  1.00  0.00     0.186 HD
HETATM   50  N17 UNL     1     -18.564  24.404   0.191  1.00  0.00    -0.284 N 
HETATM   51  C18 UNL     1     -18.747  25.815   0.466  1.00  0.00     0.178 C 
BRANCH  45  52
HETATM   52  N14 UNL     1     -16.771  20.499  -2.739  1.00  0.00    -0.234 N 
ATOM     53 2H14 UNL     1     -17.432  20.043  -3.368  1.00  0.00     0.174 HD
ATOM     54 1H14 UNL     1     -15.834  20.121  -2.604  1.00  0.00     0.174 HD
ENDBRANCH  45  52
BRANCH  48  55
HETATM   55  N16 UNL     1     -16.953  25.024  -2.550  1.00  0.00    -0.383 N 
ATOM     56 2H16 UNL     1     -16.010  25.221  -2.883  1.00  0.00     0.157 HD
ATOM     57 1H16 UNL     1     -17.687  25.729  -2.619  1.00  0.00     0.157 HD
ENDBRANCH  48  55
ENDBRANCH   7  41
TORSDOF 15
ENDMDL
MODEL 5
REMARK VINA RESULT: -8.647503269      1.770      3.810
REMARK  15 active torsions:
REMARK  status: ('A' for Active; 'I' for Inactive)
REMARK    1  A    between atoms: C2_2  and  O2_4 
REMARK    2  A    between atoms: O2_4  and  C3_5 
REMARK    3  A    between atoms: C4_6  and  C5_7 
REMARK    4  A    between atoms: C5_7  and  S1_8 
REMARK    5  A    between atoms: S1_8  and  C6_9 
REMARK    6  A    between atoms: C6_9  and  C7_10 
REMARK    7  A    between atoms: C7_10  and  C8_11 
REMARK    8  A    between atoms: C8_11  and  N1_12 
REMARK    9  A    between atoms: C8_11  and  N6_22 
REMARK   10  A    between atoms: N1_12  and  N2_14 
REMARK   11  A    between atoms: C11_29  and  O3_30 
REMARK   12  A    between atoms: C12_32  and  N10_33 
REMARK   13  A    between atoms: C13_40  and  N12_41 
REMARK   14  A    between atoms: C15_45  and  N14_46 
REMARK   15  A    between atoms: C16_51  and  N16_52 
ROOT
HETATM    1  C3  UNL     1     -19.492  22.257   2.632  1.00  0.00     0.192 A 
HETATM    2  C4  UNL     1     -19.828  23.115   3.848  1.00  0.00     0.086 A 
HETATM    3  C12 UNL     1     -18.617  23.939   4.045  1.00  0.00     0.390 A 
HETATM    4  N11 UNL     1     -17.634  23.653   3.035  1.00  0.00    -0.021 N 
ATOM      5 1H11 UNL     1     -16.726  23.412   3.432  1.00  0.00     0.282 HD
ATOM      6 2H11 UNL     1     -17.347  24.487   2.523  1.00  0.00     0.282 HD
HETATM    7  C13 UNL     1     -18.141  22.633   2.177  1.00  0.00     0.341 A 
ENDROOT
BRANCH   2   8
HETATM    8  C5  UNL     1     -20.250  22.276   5.002  1.00  0.00     0.085 C 
BRANCH   8   9
HETATM    9  S1  UNL     1     -19.162  20.924   5.337  1.00  0.00    -0.168 SA
BRANCH   9  10
HETATM   10  C6  UNL     1     -17.822  21.162   6.464  1.00  0.00     0.077 C 
BRANCH  10  11
HETATM   11  C7  UNL     1     -16.504  21.425   5.702  1.00  0.00     0.060 C 
BRANCH  11  12
HETATM   12  C8  UNL     1     -15.393  21.606   6.688  1.00  0.00     0.229 C 
BRANCH  12  13
HETATM   13  N1  UNL     1     -14.225  20.887   6.239  1.00  0.00    -0.274 N 
ATOM     14  H1  UNL     1     -14.022  20.922   5.240  1.00  0.00     0.186 HD
BRANCH  13  15
HETATM   15  N2  UNL     1     -13.351  20.153   7.028  1.00  0.00    -0.118 N 
HETATM   16  N3  UNL     1     -13.693  19.044   7.714  1.00  0.00    -0.258 N 
HETATM   17  C9  UNL     1     -12.625  18.599   8.380  1.00  0.00     0.219 A 
ATOM     18  H3  UNL     1     -14.618  18.614   7.723  1.00  0.00     0.191 HD
HETATM   19  N4  UNL     1     -11.645  19.458   8.080  1.00  0.00    -0.278 N 
HETATM   20  N5  UNL     1     -12.086  20.413   7.253  1.00  0.00    -0.205 N 
ATOM     21  H4  UNL     1     -10.691  19.394   8.435  1.00  0.00     0.189 HD
ATOM     22  H5  UNL     1     -11.544  21.189   6.871  1.00  0.00     0.212 HD
ENDBRANCH  13  15
ENDBRANCH  12  13
BRANCH  12  23
HETATM   23  N6  UNL     1     -15.033  22.983   6.912  1.00  0.00    -0.228 N 
HETATM   24  N7  UNL     1     -15.757  23.981   6.378  1.00  0.00    -0.235 N 
HETATM   25  N8  UNL     1     -15.236  25.144   6.712  1.00  0.00    -0.269 N 
ATOM     26  H7  UNL     1     -16.588  23.858   5.800  1.00  0.00     0.208 HD
HETATM   27  C10 UNL     1     -14.156  24.940   7.474  1.00  0.00     0.184 A 
ATOM     28  H8  UNL     1     -15.599  26.055   6.433  1.00  0.00     0.190 HD
HETATM   29  N9  UNL     1     -13.280  25.878   8.063  1.00  0.00    -0.076 NA
HETATM   30  C11 UNL     1     -14.049  23.561   7.586  1.00  0.00     0.204 A 
BRANCH  30  31
HETATM   31  O3  UNL     1     -13.058  22.879   8.299  1.00  0.00    -0.342 OA
ATOM     32  H3  UNL     1     -12.533  23.255   8.995  1.00  0.00     0.219 HD
ENDBRANCH  30  31
ENDBRANCH  12  23
ENDBRANCH  11  12
ENDBRANCH  10  11
ENDBRANCH   9  10
ENDBRANCH   8   9
ENDBRANCH   2   8
BRANCH   1  33
HETATM   33  O2  UNL     1     -20.502  22.321   1.650  1.00  0.00    -0.312 OA
BRANCH  33  34
HETATM   34  C2  UNL     1     -21.701  23.000   1.810  1.00  0.00     0.255 C 
HETATM   35  C1  UNL     1     -22.950  22.326   2.289  1.00  0.00     0.126 C 
HETATM   36  O1  UNL     1     -21.683  24.234   1.525  1.00  0.00    -0.266 OA
ENDBRANCH  33  34
ENDBRANCH   1  33
BRANCH   3  37
HETATM   37  N10 UNL     1     -18.917  25.369   3.901  1.00  0.00    -0.050 N 
ATOM     38 3H10 UNL     1     -19.574  25.539   3.140  1.00  0.00     0.276 HD
ATOM     39 2H10 UNL     1     -19.482  25.712   4.678  1.00  0.00     0.276 HD
ATOM     40 1H10 UNL     1     -18.063  25.917   3.789  1.00  0.00     0.276 HD
ENDBRANCH   3  37
BRANCH   7  41
HETATM   41  N12 UNL     1     -18.039  22.981   0.768  1.00  0.00    -0.237 N 
HETATM   42  C14 UNL     1     -17.728  22.292  -0.343  1.00  0.00     0.172 A 
HETATM   43  N13 UNL     1     -17.373  21.181  -1.026  1.00  0.00    -0.173 N 
HETATM   44  C17 UNL     1     -17.906  23.438  -1.064  1.00  0.00     0.141 A 
HETATM   45  C15 UNL     1     -17.197  21.182  -2.359  1.00  0.00     0.679 A 
ATOM     46  H13 UNL     1     -17.233  20.310  -0.512  1.00  0.00     0.186 HD
HETATM   47  N15 UNL     1     -17.374  22.325  -3.085  1.00  0.00    -0.175 N 
HETATM   48  C16 UNL     1     -17.727  23.445  -2.438  1.00  0.00     0.147 A 
ATOM     49  H15 UNL     1     -17.241  22.327  -4.096  1.00  0.00     0.186 HD
HETATM   50  N17 UNL     1     -18.212  24.086   0.083  1.00  0.00    -0.284 N 
HETATM   51  C18 UNL     1     -18.570  25.475   0.290  1.00  0.00     0.178 C 
BRANCH  45  52
HETATM   52  N14 UNL     1     -16.859  20.110  -2.984  1.00  0.00    -0.234 N 
ATOM     53 2H14 UNL     1     -15.938  19.712  -2.799  1.00  0.00     0.174 HD
ATOM     54 1H14 UNL     1     -17.494  19.667  -3.649  1.00  0.00     0.174 HD
ENDBRANCH  45  52
BRANCH  48  55
HETATM   55  N16 UNL     1     -17.895  24.520  -3.111  1.00  0.00    -0.383 N 
ATOM     56 2H16 UNL     1     -17.227  24.789  -3.833  1.00  0.00     0.157 HD
ATOM     57 1H16 UNL     1     -18.709  25.102  -2.914  1.00  0.00     0.157 HD
ENDBRANCH  48  55
ENDBRANCH   7  41
TORSDOF 15
ENDMDL
