MODEL 1
REMARK VINA RESULT: -7.963945156      0.000      0.000
REMARK  15 active torsions:
REMARK  status: ('A' for Active; 'I' for Inactive)
REMARK    1  A    between atoms: N1_1  and  C1_4 
REMARK       I    between atoms: N3_9  and  C3_10 
REMARK    2  A    between atoms: C3_10  and  C4_12 
REMARK    3  A    between atoms: C4_12  and  C5_13 
REMARK    4  A    between atoms: C6_14  and  N4_15 
REMARK    5  A    between atoms: N4_15  and  N5_17 
REMARK    6  A    between atoms: N5_17  and  C7_18 
REMARK    7  A    between atoms: C7_18  and  C8_19 
REMARK    8  A    between atoms: C8_19  and  C9_20 
REMARK    9  A    between atoms: C8_19  and  N8_30 
REMARK   10  A    between atoms: C9_20  and  C10_21 
REMARK   11  A    between atoms: C10_21  and  N6_22 
REMARK   12  A    between atoms: C10_21  and  N7_26 
REMARK   13  A    between atoms: N8_30  and  O3_32 
REMARK   14  A    between atoms: C15_42  and  N11_43 
REMARK   15  A    between atoms: C16_50  and  S1_51 
ROOT
HETATM    1  C5  UNL     1     -17.984  23.341   4.436  1.00  0.00     0.068 A 
HETATM    2  C6  UNL     1     -19.162  23.966   4.017  1.00  0.00     0.163 A 
HETATM    3  N9  UNL     1     -20.183  23.151   4.394  1.00  0.00    -0.230 N 
HETATM    4  N10 UNL     1     -19.693  22.091   5.006  1.00  0.00    -0.250 N 
HETATM    5  C11 UNL     1     -18.347  22.176   5.048  1.00  0.00     0.272 A 
HETATM    6  O4  UNL     1     -17.534  21.349   5.554  1.00  0.00    -0.266 OA
HETATM    7  C12 UNL     1     -20.748  21.171   5.438  1.00  0.00     0.158 C 
HETATM    8  C13 UNL     1     -21.968  22.048   5.388  1.00  0.00     0.088 C 
HETATM    9  C14 UNL     1     -21.630  23.047   4.349  1.00  0.00     0.207 C 
HETATM   10  O5  UNL     1     -22.126  24.286   4.856  1.00  0.00    -0.302 OA
HETATM   11  C15 UNL     1     -23.464  24.155   4.482  1.00  0.00     0.525 C 
HETATM   12  N12 UNL     1     -23.438  23.680   3.108  1.00  0.00     0.002 N 
ATOM     13 1H12 UNL     1     -23.529  24.420   2.412  1.00  0.00     0.284 HD
ATOM     14 2H12 UNL     1     -24.272  23.160   2.834  1.00  0.00     0.284 HD
HETATM   15  C16 UNL     1     -22.190  22.907   3.000  1.00  0.00     0.390 C 
ENDROOT
BRANCH   2  16
HETATM   16  N4  UNL     1     -19.166  25.220   3.341  1.00  0.00    -0.217 N 
ATOM     17  H4  UNL     1     -19.262  26.026   3.957  1.00  0.00     0.203 HD
BRANCH  16  18
HETATM   18  N5  UNL     1     -19.072  25.518   2.096  1.00  0.00    -0.335 NA
BRANCH  18  19
HETATM   19  C7  UNL     1     -18.948  25.711   0.932  1.00  0.00     0.236 C 
BRANCH  19  20
HETATM   20  C8  UNL     1     -18.159  24.898  -0.031  1.00  0.00     0.066 C 
BRANCH  20  21
HETATM   21  C9  UNL     1     -17.492  23.653   0.359  1.00  0.00     0.123 C 
BRANCH  21  22
HETATM   22  C10 UNL     1     -18.359  22.437   0.099  1.00  0.00     0.383 C 
BRANCH  22  23
HETATM   23  N6  UNL     1     -18.440  21.658   1.314  1.00  0.00    -0.050 N 
ATOM     24  H63 UNL     1     -17.549  21.228   1.563  1.00  0.00     0.276 HD
ATOM     25  H62 UNL     1     -18.553  22.240   2.144  1.00  0.00     0.276 HD
ATOM     26  H61 UNL     1     -19.190  20.974   1.213  1.00  0.00     0.276 HD
ENDBRANCH  22  23
BRANCH  22  27
HETATM   27  N7  UNL     1     -17.805  21.625  -0.980  1.00  0.00    -0.050 N 
ATOM     28  H73 UNL     1     -16.795  21.509  -0.884  1.00  0.00     0.276 HD
ATOM     29  H72 UNL     1     -18.081  20.647  -0.895  1.00  0.00     0.276 HD
ATOM     30  H71 UNL     1     -18.056  22.010  -1.890  1.00  0.00     0.276 HD
ENDBRANCH  22  27
ENDBRANCH  21  22
ENDBRANCH  20  21
BRANCH  20  31
HETATM   31  N8  UNL     1     -18.054  25.303  -1.261  1.00  0.00    -0.271 N 
ATOM     32  H8  UNL     1     -17.696  26.244  -1.425  1.00  0.00     0.194 HD
BRANCH  31  33
HETATM   33  O3  UNL     1     -18.390  24.553  -2.340  1.00  0.00    -0.290 OA
ATOM     34  H3  UNL     1     -17.775  24.029  -2.837  1.00  0.00     0.244 HD
ENDBRANCH  31  33
ENDBRANCH  20  31
ENDBRANCH  19  20
ENDBRANCH  18  19
ENDBRANCH  16  18
ENDBRANCH   2  16
BRANCH   1  35
HETATM   35  C4  UNL     1     -16.589  23.835   4.242  1.00  0.00     0.153 C 
BRANCH  35  36
HETATM   36  C3  UNL     1     -16.036  24.345   5.525  1.00  0.00     0.251 C 
HETATM   37  N3  UNL     1     -15.123  23.607   6.320  1.00  0.00    -0.157 N 
HETATM   38  C2  UNL     1     -14.598  24.029   7.474  1.00  0.00     0.363 A 
HETATM   39  N13 UNL     1     -14.620  22.399   6.095  1.00  0.00    -0.119 N 
HETATM   40  N2  UNL     1     -13.775  23.074   7.947  1.00  0.00    -0.139 N 
HETATM   41  O1  UNL     1     -14.797  25.132   8.079  1.00  0.00    -0.244 OA
HETATM   42  C1  UNL     1     -13.793  22.053   7.076  1.00  0.00     0.695 A 
ATOM     43  H2  UNL     1     -13.234  23.119   8.812  1.00  0.00     0.189 HD
ATOM     44  H13 UNL     1     -14.836  21.819   5.285  1.00  0.00     0.206 HD
HETATM   45  O2  UNL     1     -16.398  25.478   5.911  1.00  0.00    -0.271 OA
BRANCH  42  46
HETATM   46  N1  UNL     1     -13.117  20.993   7.239  1.00  0.00    -0.233 N 
ATOM     47  H12 UNL     1     -13.313  20.036   6.943  1.00  0.00     0.174 HD
ATOM     48  H11 UNL     1     -12.222  20.973   7.727  1.00  0.00     0.174 HD
ENDBRANCH  42  46
ENDBRANCH  35  36
ENDBRANCH   1  35
BRANCH  15  49
HETATM   49  S1  UNL     1     -22.593  21.331   2.381  1.00  0.00     0.138 S 
HETATM   50  O6  UNL     1     -23.292  21.594   1.023  1.00  0.00    -0.593 OA
HETATM   51  O7  UNL     1     -23.634  20.618   3.177  1.00  0.00    -0.593 OA
HETATM   52  O8  UNL     1     -21.265  20.371   2.021  1.00  0.00    -0.593 OA
ENDBRANCH  15  49
BRANCH  11  53
HETATM   53  N11 UNL     1     -24.048  25.476   4.477  1.00  0.00    -0.027 N 
ATOM     54 3H11 UNL     1     -23.531  26.136   3.897  1.00  0.00     0.279 HD
ATOM     55 2H11 UNL     1     -24.933  25.516   3.971  1.00  0.00     0.279 HD
ATOM     56 1H11 UNL     1     -24.130  25.781   5.446  1.00  0.00     0.279 HD
ENDBRANCH  11  53
TORSDOF 15
ENDMDL
MODEL 2
REMARK VINA RESULT: -7.881678734      0.985      1.102
REMARK  15 active torsions:
REMARK  status: ('A' for Active; 'I' for Inactive)
REMARK    1  A    between atoms: N1_1  and  C1_4 
REMARK       I    between atoms: N3_9  and  C3_10 
REMARK    2  A    between atoms: C3_10  and  C4_12 
REMARK    3  A    between atoms: C4_12  and  C5_13 
REMARK    4  A    between atoms: C6_14  and  N4_15 
REMARK    5  A    between atoms: N4_15  and  N5_17 
REMARK    6  A    between atoms: N5_17  and  C7_18 
REMARK    7  A    between atoms: C7_18  and  C8_19 
REMARK    8  A    between atoms: C8_19  and  C9_20 
REMARK    9  A    between atoms: C8_19  and  N8_30 
REMARK   10  A    between atoms: C9_20  and  C10_21 
REMARK   11  A    between atoms: C10_21  and  N6_22 
REMARK   12  A    between atoms: C10_21  and  N7_26 
REMARK   13  A    between atoms: N8_30  and  O3_32 
REMARK   14  A    between atoms: C15_42  and  N11_43 
REMARK   15  A    between atoms: C16_50  and  S1_51 
ROOT
HETATM    1  C5  UNL     1     -17.989  22.652   4.724  1.00  0.00     0.068 A 
HETATM    2  C6  UNL     1     -18.873  23.534   4.093  1.00  0.00     0.163 A 
HETATM    3  N9  UNL     1     -20.125  23.098   4.391  1.00  0.00    -0.230 N 
HETATM    4  N10 UNL     1     -20.047  22.025   5.153  1.00  0.00    -0.250 N 
HETATM    5  C11 UNL     1     -18.750  21.724   5.375  1.00  0.00     0.272 A 
HETATM    6  O4  UNL     1     -18.282  20.766   6.057  1.00  0.00    -0.266 OA
HETATM    7  C12 UNL     1     -21.369  21.506   5.508  1.00  0.00     0.158 C 
HETATM    8  C13 UNL     1     -22.257  22.684   5.215  1.00  0.00     0.088 C 
HETATM    9  C14 UNL     1     -21.523  23.410   4.153  1.00  0.00     0.207 C 
HETATM   10  O5  UNL     1     -21.676  24.791   4.480  1.00  0.00    -0.302 OA
HETATM   11  C15 UNL     1     -22.942  25.005   3.935  1.00  0.00     0.525 C 
HETATM   12  N12 UNL     1     -22.911  24.379   2.623  1.00  0.00     0.002 N 
ATOM     13 1H12 UNL     1     -22.699  25.024   1.861  1.00  0.00     0.284 HD
ATOM     14 2H12 UNL     1     -23.828  24.092   2.279  1.00  0.00     0.284 HD
HETATM   15  C16 UNL     1     -21.950  23.273   2.755  1.00  0.00     0.390 C 
ENDROOT
BRANCH   2  16
HETATM   16  N4  UNL     1     -18.426  24.644   3.320  1.00  0.00    -0.217 N 
ATOM     17  H4  UNL     1     -18.643  25.552   3.730  1.00  0.00     0.203 HD
BRANCH  16  18
HETATM   18  N5  UNL     1     -17.801  24.708   2.201  1.00  0.00    -0.335 NA
BRANCH  18  19
HETATM   19  C7  UNL     1     -17.242  24.678   1.156  1.00  0.00     0.236 C 
BRANCH  19  20
HETATM   20  C8  UNL     1     -17.852  24.457  -0.182  1.00  0.00     0.066 C 
BRANCH  20  21
HETATM   21  C9  UNL     1     -17.796  23.159  -0.861  1.00  0.00     0.123 C 
BRANCH  21  22
HETATM   22  C10 UNL     1     -17.937  22.003   0.110  1.00  0.00     0.383 C 
BRANCH  22  23
HETATM   23  N6  UNL     1     -17.896  20.765  -0.636  1.00  0.00    -0.050 N 
ATOM     24  H63 UNL     1     -18.634  20.708  -1.338  1.00  0.00     0.276 HD
ATOM     25  H62 UNL     1     -17.097  20.715  -1.268  1.00  0.00     0.276 HD
ATOM     26  H61 UNL     1     -17.922  19.987   0.023  1.00  0.00     0.276 HD
ENDBRANCH  22  23
BRANCH  22  27
HETATM   27  N7  UNL     1     -19.189  22.098   0.854  1.00  0.00    -0.050 N 
ATOM     28  H73 UNL     1     -19.201  21.463   1.653  1.00  0.00     0.276 HD
ATOM     29  H72 UNL     1     -19.261  22.982   1.357  1.00  0.00     0.276 HD
ATOM     30  H71 UNL     1     -19.988  21.946   0.239  1.00  0.00     0.276 HD
ENDBRANCH  22  27
ENDBRANCH  21  22
ENDBRANCH  20  21
BRANCH  20  31
HETATM   31  N8  UNL     1     -18.455  25.444  -0.773  1.00  0.00    -0.271 N 
ATOM     32  H8  UNL     1     -18.723  25.324  -1.749  1.00  0.00     0.194 HD
BRANCH  31  33
HETATM   33  O3  UNL     1     -18.748  26.625  -0.174  1.00  0.00    -0.290 OA
ATOM     34  H3  UNL     1     -18.482  27.473  -0.508  1.00  0.00     0.244 HD
ENDBRANCH  31  33
ENDBRANCH  20  31
ENDBRANCH  19  20
ENDBRANCH  18  19
ENDBRANCH  16  18
ENDBRANCH   2  16
BRANCH   1  35
HETATM   35  C4  UNL     1     -16.497  22.697   4.686  1.00  0.00     0.153 C 
BRANCH  35  36
HETATM   36  C3  UNL     1     -15.976  23.564   5.776  1.00  0.00     0.251 C 
HETATM   37  N3  UNL     1     -14.918  23.173   6.635  1.00  0.00    -0.157 N 
HETATM   38  C2  UNL     1     -14.416  23.921   7.621  1.00  0.00     0.363 A 
HETATM   39  N13 UNL     1     -14.233  22.035   6.637  1.00  0.00    -0.119 N 
HETATM   40  N2  UNL     1     -13.425  23.234   8.221  1.00  0.00    -0.139 N 
HETATM   41  O1  UNL     1     -14.765  25.090   7.986  1.00  0.00    -0.244 OA
HETATM   42  C1  UNL     1     -13.316  22.050   7.598  1.00  0.00     0.695 A 
ATOM     43  H2  UNL     1     -12.859  23.556   9.007  1.00  0.00     0.189 HD
ATOM     44  H13 UNL     1     -14.389  21.259   5.993  1.00  0.00     0.206 HD
HETATM   45  O2  UNL     1     -16.502  24.688   5.935  1.00  0.00    -0.271 OA
BRANCH  42  46
HETATM   46  N1  UNL     1     -12.467  21.170   7.931  1.00  0.00    -0.233 N 
ATOM     47  H12 UNL     1     -11.736  20.719   7.379  1.00  0.00     0.174 HD
ATOM     48  H11 UNL     1     -12.412  20.776   8.870  1.00  0.00     0.174 HD
ENDBRANCH  42  46
ENDBRANCH  35  36
ENDBRANCH   1  35
BRANCH  15  49
HETATM   49  S1  UNL     1     -22.737  21.817   2.221  1.00  0.00     0.138 S 
HETATM   50  O6  UNL     1     -23.233  22.126   0.786  1.00  0.00    -0.593 OA
HETATM   51  O7  UNL     1     -23.993  21.501   2.964  1.00  0.00    -0.593 OA
HETATM   52  O8  UNL     1     -21.713  20.496   2.065  1.00  0.00    -0.593 OA
ENDBRANCH  15  49
BRANCH  11  53
HETATM   53  N11 UNL     1     -23.099  26.427   3.737  1.00  0.00    -0.027 N 
ATOM     54 3H11 UNL     1     -24.026  26.763   3.995  1.00  0.00     0.279 HD
ATOM     55 2H11 UNL     1     -22.563  26.981   4.406  1.00  0.00     0.279 HD
ATOM     56 1H11 UNL     1     -22.858  26.633   2.768  1.00  0.00     0.279 HD
ENDBRANCH  11  53
TORSDOF 15
ENDMDL
MODEL 3
REMARK VINA RESULT: -7.841277485      1.718      2.071
REMARK  15 active torsions:
REMARK  status: ('A' for Active; 'I' for Inactive)
REMARK    1  A    between atoms: N1_1  and  C1_4 
REMARK       I    between atoms: N3_9  and  C3_10 
REMARK    2  A    between atoms: C3_10  and  C4_12 
REMARK    3  A    between atoms: C4_12  and  C5_13 
REMARK    4  A    between atoms: C6_14  and  N4_15 
REMARK    5  A    between atoms: N4_15  and  N5_17 
REMARK    6  A    between atoms: N5_17  and  C7_18 
REMARK    7  A    between atoms: C7_18  and  C8_19 
REMARK    8  A    between atoms: C8_19  and  C9_20 
REMARK    9  A    between atoms: C8_19  and  N8_30 
REMARK   10  A    between atoms: C9_20  and  C10_21 
REMARK   11  A    between atoms: C10_21  and  N6_22 
REMARK   12  A    between atoms: C10_21  and  N7_26 
REMARK   13  A    between atoms: N8_30  and  O3_32 
REMARK   14  A    between atoms: C15_42  and  N11_43 
REMARK   15  A    between atoms: C16_50  and  S1_51 
ROOT
HETATM    1  C5  UNL     1     -17.232  22.008   5.007  1.00  0.00     0.068 A 
HETATM    2  C6  UNL     1     -18.146  22.330   3.999  1.00  0.00     0.163 A 
HETATM    3  N9  UNL     1     -19.365  21.925   4.442  1.00  0.00    -0.230 N 
HETATM    4  N10 UNL     1     -19.239  21.388   5.640  1.00  0.00    -0.250 N 
HETATM    5  C11 UNL     1     -17.943  21.422   6.015  1.00  0.00     0.272 A 
HETATM    6  O4  UNL     1     -17.438  21.001   7.097  1.00  0.00    -0.266 OA
HETATM    7  C12 UNL     1     -20.524  20.931   6.174  1.00  0.00     0.158 C 
HETATM    8  C13 UNL     1     -21.504  21.673   5.309  1.00  0.00     0.088 C 
HETATM    9  C14 UNL     1     -20.760  21.878   4.045  1.00  0.00     0.207 C 
HETATM   10  O5  UNL     1     -21.094  23.204   3.634  1.00  0.00    -0.302 OA
HETATM   11  C15 UNL     1     -22.320  22.942   3.024  1.00  0.00     0.525 C 
HETATM   12  N12 UNL     1     -22.100  21.762   2.201  1.00  0.00     0.002 N 
ATOM     13 1H12 UNL     1     -21.891  21.972   1.225  1.00  0.00     0.284 HD
ATOM     14 2H12 UNL     1     -22.944  21.217   2.025  1.00  0.00     0.284 HD
HETATM   15  C16 UNL     1     -21.039  21.013   2.893  1.00  0.00     0.390 C 
ENDROOT
BRANCH   2  16
HETATM   16  N4  UNL     1     -17.755  22.967   2.785  1.00  0.00    -0.217 N 
ATOM     17  H4  UNL     1     -16.746  23.049   2.663  1.00  0.00     0.203 HD
BRANCH  16  18
HETATM   18  N5  UNL     1     -18.442  23.456   1.818  1.00  0.00    -0.335 NA
BRANCH  18  19
HETATM   19  C7  UNL     1     -19.006  23.964   0.907  1.00  0.00     0.236 C 
BRANCH  19  20
HETATM   20  C8  UNL     1     -18.416  24.855  -0.128  1.00  0.00     0.066 C 
BRANCH  20  21
HETATM   21  C9  UNL     1     -17.372  24.397  -1.050  1.00  0.00     0.123 C 
BRANCH  21  22
HETATM   22  C10 UNL     1     -17.944  23.609  -2.211  1.00  0.00     0.383 C 
BRANCH  22  23
HETATM   23  N6  UNL     1     -17.052  22.511  -2.509  1.00  0.00    -0.050 N 
ATOM     24  H63 UNL     1     -16.631  22.590  -3.435  1.00  0.00     0.276 HD
ATOM     25  H62 UNL     1     -16.193  22.546  -1.960  1.00  0.00     0.276 HD
ATOM     26  H61 UNL     1     -17.560  21.636  -2.384  1.00  0.00     0.276 HD
ENDBRANCH  22  23
BRANCH  22  27
HETATM   27  N7  UNL     1     -18.102  24.459  -3.388  1.00  0.00    -0.050 N 
ATOM     28  H73 UNL     1     -17.408  25.207  -3.409  1.00  0.00     0.276 HD
ATOM     29  H72 UNL     1     -17.831  23.973  -4.243  1.00  0.00     0.276 HD
ATOM     30  H71 UNL     1     -19.052  24.824  -3.447  1.00  0.00     0.276 HD
ENDBRANCH  22  27
ENDBRANCH  21  22
ENDBRANCH  20  21
BRANCH  20  31
HETATM   31  N8  UNL     1     -18.837  26.080  -0.220  1.00  0.00    -0.271 N 
ATOM     32  H8  UNL     1     -18.213  26.768  -0.641  1.00  0.00     0.194 HD
BRANCH  31  33
HETATM   33  O3  UNL     1     -20.052  26.502   0.208  1.00  0.00    -0.290 OA
ATOM     34  H3  UNL     1     -20.186  27.247   0.781  1.00  0.00     0.244 HD
ENDBRANCH  31  33
ENDBRANCH  20  31
ENDBRANCH  19  20
ENDBRANCH  18  19
ENDBRANCH  16  18
ENDBRANCH   2  16
BRANCH   1  35
HETATM   35  C4  UNL     1     -15.758  22.239   4.989  1.00  0.00     0.153 C 
BRANCH  35  36
HETATM   36  C3  UNL     1     -15.385  23.293   5.969  1.00  0.00     0.251 C 
HETATM   37  N3  UNL     1     -14.374  23.116   6.947  1.00  0.00    -0.157 N 
HETATM   38  C2  UNL     1     -14.004  24.037   7.842  1.00  0.00     0.363 A 
HETATM   39  N13 UNL     1     -13.615  22.049   7.167  1.00  0.00    -0.119 N 
HETATM   40  N2  UNL     1     -13.019  23.526   8.604  1.00  0.00    -0.139 N 
HETATM   41  O1  UNL     1     -14.461  25.215   8.001  1.00  0.00    -0.244 OA
HETATM   42  C1  UNL     1     -12.779  22.277   8.175  1.00  0.00     0.695 A 
ATOM     43  H2  UNL     1     -12.540  24.003   9.369  1.00  0.00     0.189 HD
ATOM     44  H13 UNL     1     -13.665  21.178   6.638  1.00  0.00     0.206 HD
HETATM   45  O2  UNL     1     -15.998  24.382   5.921  1.00  0.00    -0.271 OA
BRANCH  42  46
HETATM   46  N1  UNL     1     -11.901  21.524   8.694  1.00  0.00    -0.233 N 
ATOM     47  H12 UNL     1     -11.268  21.694   9.476  1.00  0.00     0.174 HD
ATOM     48  H11 UNL     1     -11.708  20.581   8.359  1.00  0.00     0.174 HD
ENDBRANCH  42  46
ENDBRANCH  35  36
ENDBRANCH   1  35
BRANCH  15  49
HETATM   49  S1  UNL     1     -21.608  19.388   3.138  1.00  0.00     0.138 S 
HETATM   50  O6  UNL     1     -21.699  18.771   1.719  1.00  0.00    -0.593 OA
HETATM   51  O7  UNL     1     -23.011  19.309   3.643  1.00  0.00    -0.593 OA
HETATM   52  O8  UNL     1     -20.545  18.404   3.986  1.00  0.00    -0.593 OA
ENDBRANCH  15  49
BRANCH  11  53
HETATM   53  N11 UNL     1     -22.613  24.044   2.139  1.00  0.00    -0.027 N 
ATOM     54 3H11 UNL     1     -22.515  24.952   2.591  1.00  0.00     0.279 HD
ATOM     55 2H11 UNL     1     -21.903  24.174   1.419  1.00  0.00     0.279 HD
ATOM     56 1H11 UNL     1     -23.545  23.892   1.753  1.00  0.00     0.279 HD
ENDBRANCH  11  53
TORSDOF 15
ENDMDL
MODEL 4
REMARK VINA RESULT: -7.756169286      1.867      2.777
REMARK  15 active torsions:
REMARK  status: ('A' for Active; 'I' for Inactive)
REMARK    1  A    between atoms: N1_1  and  C1_4 
REMARK       I    between atoms: N3_9  and  C3_10 
REMARK    2  A    between atoms: C3_10  and  C4_12 
REMARK    3  A    between atoms: C4_12  and  C5_13 
REMARK    4  A    between atoms: C6_14  and  N4_15 
REMARK    5  A    between atoms: N4_15  and  N5_17 
REMARK    6  A    between atoms: N5_17  and  C7_18 
REMARK    7  A    between atoms: C7_18  and  C8_19 
REMARK    8  A    between atoms: C8_19  and  C9_20 
REMARK    9  A    between atoms: C8_19  and  N8_30 
REMARK   10  A    between atoms: C9_20  and  C10_21 
REMARK   11  A    between atoms: C10_21  and  N6_22 
REMARK   12  A    between atoms: C10_21  and  N7_26 
REMARK   13  A    between atoms: N8_30  and  O3_32 
REMARK   14  A    between atoms: C15_42  and  N11_43 
REMARK   15  A    between atoms: C16_50  and  S1_51 
ROOT
HETATM    1  C5  UNL     1     -17.466  22.516   4.904  1.00  0.00     0.068 A 
HETATM    2  C6  UNL     1     -18.595  22.748   4.112  1.00  0.00     0.163 A 
HETATM    3  N9  UNL     1     -19.600  22.010   4.653  1.00  0.00    -0.230 N 
HETATM    4  N10 UNL     1     -19.148  21.360   5.707  1.00  0.00    -0.250 N 
HETATM    5  C11 UNL     1     -17.842  21.647   5.888  1.00  0.00     0.272 A 
HETATM    6  O4  UNL     1     -17.071  21.213   6.793  1.00  0.00    -0.266 OA
HETATM    7  C12 UNL     1     -20.189  20.543   6.335  1.00  0.00     0.158 C 
HETATM    8  C13 UNL     1     -21.444  21.144   5.767  1.00  0.00     0.088 C 
HETATM    9  C14 UNL     1     -21.003  21.690   4.463  1.00  0.00     0.207 C 
HETATM   10  O5  UNL     1     -21.677  22.943   4.344  1.00  0.00    -0.302 OA
HETATM   11  C15 UNL     1     -22.911  22.484   3.883  1.00  0.00     0.525 C 
HETATM   12  N12 UNL     1     -22.603  21.515   2.845  1.00  0.00     0.002 N 
ATOM     13 1H12 UNL     1     -22.624  21.899   1.900  1.00  0.00     0.284 HD
ATOM     14 2H12 UNL     1     -23.331  20.815   2.701  1.00  0.00     0.284 HD
HETATM   15  C16 UNL     1     -21.300  20.950   3.231  1.00  0.00     0.390 C 
ENDROOT
BRANCH   2  16
HETATM   16  N4  UNL     1     -18.575  23.619   2.985  1.00  0.00    -0.217 N 
ATOM     17  H4  UNL     1     -17.667  24.048   2.805  1.00  0.00     0.203 HD
BRANCH  16  18
HETATM   18  N5  UNL     1     -19.491  23.961   2.154  1.00  0.00    -0.335 NA
BRANCH  18  19
HETATM   19  C7  UNL     1     -20.302  24.362   1.388  1.00  0.00     0.236 C 
BRANCH  19  20
HETATM   20  C8  UNL     1     -20.742  25.771   1.204  1.00  0.00     0.066 C 
BRANCH  20  21
HETATM   21  C9  UNL     1     -21.992  26.281   1.777  1.00  0.00     0.123 C 
BRANCH  21  22
HETATM   22  C10 UNL     1     -21.785  26.871   3.158  1.00  0.00     0.383 C 
BRANCH  22  23
HETATM   23  N6  UNL     1     -21.129  25.886   3.988  1.00  0.00    -0.050 N 
ATOM     24  H63 UNL     1     -21.426  24.934   3.774  1.00  0.00     0.276 HD
ATOM     25  H62 UNL     1     -20.140  25.780   3.761  1.00  0.00     0.276 HD
ATOM     26  H61 UNL     1     -21.279  26.132   4.967  1.00  0.00     0.276 HD
ENDBRANCH  22  23
BRANCH  22  27
HETATM   27  N7  UNL     1     -23.060  27.257   3.754  1.00  0.00    -0.050 N 
ATOM     28  H73 UNL     1     -23.821  27.216   3.076  1.00  0.00     0.276 HD
ATOM     29  H72 UNL     1     -23.399  26.553   4.410  1.00  0.00     0.276 HD
ATOM     30  H71 UNL     1     -22.993  28.177   4.190  1.00  0.00     0.276 HD
ENDBRANCH  22  27
ENDBRANCH  21  22
ENDBRANCH  20  21
BRANCH  20  31
HETATM   31  N8  UNL     1     -19.998  26.580   0.512  1.00  0.00    -0.271 N 
ATOM     32  H8  UNL     1     -20.396  27.478   0.237  1.00  0.00     0.194 HD
BRANCH  31  33
HETATM   33  O3  UNL     1     -18.725  26.306   0.133  1.00  0.00    -0.290 OA
ATOM     34  H3  UNL     1     -18.185  25.632   0.527  1.00  0.00     0.244 HD
ENDBRANCH  31  33
ENDBRANCH  20  31
ENDBRANCH  19  20
ENDBRANCH  18  19
ENDBRANCH  16  18
ENDBRANCH   2  16
BRANCH   1  35
HETATM   35  C4  UNL     1     -16.101  23.088   4.710  1.00  0.00     0.153 C 
BRANCH  35  36
HETATM   36  C3  UNL     1     -15.714  23.915   5.884  1.00  0.00     0.251 C 
HETATM   37  N3  UNL     1     -14.752  23.497   6.839  1.00  0.00    -0.157 N 
HETATM   38  C2  UNL     1     -14.371  24.208   7.904  1.00  0.00     0.363 A 
HETATM   39  N13 UNL     1     -14.060  22.364   6.874  1.00  0.00    -0.119 N 
HETATM   40  N2  UNL     1     -13.445  23.505   8.582  1.00  0.00    -0.139 N 
HETATM   41  O1  UNL     1     -14.771  25.360   8.272  1.00  0.00    -0.244 OA
HETATM   42  C1  UNL     1     -13.255  22.347   7.930  1.00  0.00     0.695 A 
ATOM     43  H2  UNL     1     -12.973  23.799   9.438  1.00  0.00     0.189 HD
ATOM     44  H13 UNL     1     -14.135  21.613   6.187  1.00  0.00     0.206 HD
HETATM   45  O2  UNL     1     -16.266  25.028   6.027  1.00  0.00    -0.271 OA
BRANCH  42  46
HETATM   46  N1  UNL     1     -12.439  21.459   8.321  1.00  0.00    -0.233 N 
ATOM     47  H12 UNL     1     -12.582  20.661   8.940  1.00  0.00     0.174 HD
ATOM     48  H11 UNL     1     -11.460  21.439   8.036  1.00  0.00     0.174 HD
ENDBRANCH  42  46
ENDBRANCH  35  36
ENDBRANCH   1  35
BRANCH  15  49
HETATM   49  S1  UNL     1     -21.461  19.218   3.270  1.00  0.00     0.138 S 
HETATM   50  O6  UNL     1     -21.722  18.801   1.800  1.00  0.00    -0.593 OA
HETATM   51  O7  UNL     1     -22.679  18.741   3.989  1.00  0.00    -0.593 OA
HETATM   52  O8  UNL     1     -20.066  18.404   3.725  1.00  0.00    -0.593 OA
ENDBRANCH  15  49
BRANCH  11  53
HETATM   53  N11 UNL     1     -23.586  23.597   3.257  1.00  0.00    -0.027 N 
ATOM     54 3H11 UNL     1     -23.565  24.443   3.824  1.00  0.00     0.279 HD
ATOM     55 2H11 UNL     1     -23.080  23.963   2.450  1.00  0.00     0.279 HD
ATOM     56 1H11 UNL     1     -24.533  23.295   3.029  1.00  0.00     0.279 HD
ENDBRANCH  11  53
TORSDOF 15
ENDMDL
MODEL 5
REMARK VINA RESULT: -7.699533996      1.955      2.536
REMARK  15 active torsions:
REMARK  status: ('A' for Active; 'I' for Inactive)
REMARK    1  A    between atoms: N1_1  and  C1_4 
REMARK       I    between atoms: N3_9  and  C3_10 
REMARK    2  A    between atoms: C3_10  and  C4_12 
REMARK    3  A    between atoms: C4_12  and  C5_13 
REMARK    4  A    between atoms: C6_14  and  N4_15 
REMARK    5  A    between atoms: N4_15  and  N5_17 
REMARK    6  A    between atoms: N5_17  and  C7_18 
REMARK    7  A    between atoms: C7_18  and  C8_19 
REMARK    8  A    between atoms: C8_19  and  C9_20 
REMARK    9  A    between atoms: C8_19  and  N8_30 
REMARK   10  A    between atoms: C9_20  and  C10_21 
REMARK   11  A    between atoms: C10_21  and  N6_22 
REMARK   12  A    between atoms: C10_21  and  N7_26 
REMARK   13  A    between atoms: N8_30  and  O3_32 
REMARK   14  A    between atoms: C15_42  and  N11_43 
REMARK   15  A    between atoms: C16_50  and  S1_51 
ROOT
HETATM    1  C5  UNL     1     -17.177  22.028   4.976  1.00  0.00     0.068 A 
HETATM    2  C6  UNL     1     -18.107  22.293   3.965  1.00  0.00     0.163 A 
HETATM    3  N9  UNL     1     -19.308  21.853   4.425  1.00  0.00    -0.230 N 
HETATM    4  N10 UNL     1     -19.156  21.348   5.634  1.00  0.00    -0.250 N 
HETATM    5  C11 UNL     1     -17.860  21.439   6.001  1.00  0.00     0.272 A 
HETATM    6  O4  UNL     1     -17.334  21.062   7.088  1.00  0.00    -0.266 OA
HETATM    7  C12 UNL     1     -20.420  20.855   6.185  1.00  0.00     0.158 C 
HETATM    8  C13 UNL     1     -21.432  21.540   5.310  1.00  0.00     0.088 C 
HETATM    9  C14 UNL     1     -20.703  21.745   4.038  1.00  0.00     0.207 C 
HETATM   10  O5  UNL     1     -21.088  23.048   3.599  1.00  0.00    -0.302 OA
HETATM   11  C15 UNL     1     -22.307  22.726   3.002  1.00  0.00     0.525 C 
HETATM   12  N12 UNL     1     -22.046  21.538   2.205  1.00  0.00     0.002 N 
ATOM     13 1H12 UNL     1     -21.850  21.733   1.223  1.00  0.00     0.284 HD
ATOM     14 2H12 UNL     1     -22.870  20.957   2.045  1.00  0.00     0.284 HD
HETATM   15  C16 UNL     1     -20.954  20.845   2.907  1.00  0.00     0.390 C 
ENDROOT
BRANCH   2  16
HETATM   16  N4  UNL     1     -17.747  22.917   2.736  1.00  0.00    -0.217 N 
ATOM     17  H4  UNL     1     -17.047  23.652   2.831  1.00  0.00     0.203 HD
BRANCH  16  18
HETATM   18  N5  UNL     1     -18.143  22.720   1.531  1.00  0.00    -0.335 NA
BRANCH  18  19
HETATM   19  C7  UNL     1     -18.585  22.500   0.453  1.00  0.00     0.236 C 
BRANCH  19  20
HETATM   20  C8  UNL     1     -17.871  21.892  -0.701  1.00  0.00     0.066 C 
BRANCH  20  21
HETATM   21  C9  UNL     1     -17.428  22.685  -1.852  1.00  0.00     0.123 C 
BRANCH  21  22
HETATM   22  C10 UNL     1     -18.143  24.019  -1.933  1.00  0.00     0.383 C 
BRANCH  22  23
HETATM   23  N6  UNL     1     -18.130  24.469  -3.306  1.00  0.00    -0.050 N 
ATOM     24  H63 UNL     1     -17.245  24.904  -3.567  1.00  0.00     0.276 HD
ATOM     25  H62 UNL     1     -18.108  23.694  -3.970  1.00  0.00     0.276 HD
ATOM     26  H61 UNL     1     -18.928  25.086  -3.455  1.00  0.00     0.276 HD
ENDBRANCH  22  23
BRANCH  22  27
HETATM   27  N7  UNL     1     -17.495  25.009  -1.077  1.00  0.00    -0.050 N 
ATOM     28  H73 UNL     1     -17.853  24.973  -0.122  1.00  0.00     0.276 HD
ATOM     29  H72 UNL     1     -16.524  24.764  -0.887  1.00  0.00     0.276 HD
ATOM     30  H71 UNL     1     -17.578  25.944  -1.476  1.00  0.00     0.276 HD
ENDBRANCH  22  27
ENDBRANCH  21  22
ENDBRANCH  20  21
BRANCH  20  31
HETATM   31  N8  UNL     1     -17.631  20.616  -0.694  1.00  0.00    -0.271 N 
ATOM     32  H8  UNL     1     -17.257  20.195  -1.545  1.00  0.00     0.194 HD
BRANCH  31  33
HETATM   33  O3  UNL     1     -17.847  19.807   0.373  1.00  0.00    -0.290 OA
ATOM     34  H3  UNL     1     -18.624  19.273   0.488  1.00  0.00     0.244 HD
ENDBRANCH  31  33
ENDBRANCH  20  31
ENDBRANCH  19  20
ENDBRANCH  18  19
ENDBRANCH  16  18
ENDBRANCH   2  16
BRANCH   1  35
HETATM   35  C4  UNL     1     -15.712  22.313   4.944  1.00  0.00     0.153 C 
BRANCH  35  36
HETATM   36  C3  UNL     1     -15.364  23.354   5.947  1.00  0.00     0.251 C 
HETATM   37  N3  UNL     1     -14.433  23.137   6.995  1.00  0.00    -0.157 N 
HETATM   38  C2  UNL     1     -14.088  24.044   7.913  1.00  0.00     0.363 A 
HETATM   39  N13 UNL     1     -13.740  22.038   7.269  1.00  0.00    -0.119 N 
HETATM   40  N2  UNL     1     -13.183  23.493   8.743  1.00  0.00    -0.139 N 
HETATM   41  O1  UNL     1     -14.503  25.242   8.038  1.00  0.00    -0.244 OA
HETATM   42  C1  UNL     1     -12.969  22.233   8.334  1.00  0.00     0.695 A 
ATOM     43  H2  UNL     1     -12.740  23.951   9.540  1.00  0.00     0.189 HD
ATOM     44  H13 UNL     1     -13.791  21.168   6.739  1.00  0.00     0.206 HD
HETATM   45  O2  UNL     1     -15.923  24.469   5.855  1.00  0.00    -0.271 OA
BRANCH  42  46
HETATM   46  N1  UNL     1     -12.164  21.444   8.914  1.00  0.00    -0.233 N 
ATOM     47  H12 UNL     1     -12.006  21.280   9.908  1.00  0.00     0.174 HD
ATOM     48  H11 UNL     1     -11.526  20.830   8.409  1.00  0.00     0.174 HD
ENDBRANCH  42  46
ENDBRANCH  35  36
ENDBRANCH   1  35
BRANCH  15  49
HETATM   49  S1  UNL     1     -21.461  19.205   3.191  1.00  0.00     0.138 S 
HETATM   50  O6  UNL     1     -21.557  18.559   1.786  1.00  0.00    -0.593 OA
HETATM   51  O7  UNL     1     -22.850  19.086   3.725  1.00  0.00    -0.593 OA
HETATM   52  O8  UNL     1     -20.348  18.275   4.036  1.00  0.00    -0.593 OA
ENDBRANCH  15  49
BRANCH  11  53
HETATM   53  N11 UNL     1     -22.645  23.796   2.094  1.00  0.00    -0.027 N 
ATOM     54 3H11 UNL     1     -22.080  24.632   2.239  1.00  0.00     0.279 HD
ATOM     55 2H11 UNL     1     -22.361  23.606   1.133  1.00  0.00     0.279 HD
ATOM     56 1H11 UNL     1     -23.646  23.973   2.185  1.00  0.00     0.279 HD
ENDBRANCH  11  53
TORSDOF 15
ENDMDL
