MODEL 1
REMARK VINA RESULT: -8.973173744      0.000      0.000
REMARK  8 active torsions:
REMARK  status: ('A' for Active; 'I' for Inactive)
REMARK    1  A    between atoms: O1_2  and  C2_3 
REMARK    2  A    between atoms: C2_3  and  O2_5 
REMARK    3  A    between atoms: O2_5  and  C4_6 
REMARK    4  A    between atoms: C6_12  and  N3_13 
REMARK    5  A    between atoms: N3_13  and  N4_15 
REMARK    6  A    between atoms: N5_17  and  C7_19 
REMARK    7  A    between atoms: C9_23  and  N7_24 
REMARK    8  A    between atoms: C13_40  and  N12_41 
ROOT
HETATM    1  C7  UNL     1      15.167  81.387  -3.132  1.00  0.00     0.173 A 
HETATM    2  N6  UNL     1      16.172  81.581  -2.230  1.00  0.00    -0.333 N 
ATOM      3  H6  UNL     1      17.016  82.086  -2.502  1.00  0.00     0.168 HD
HETATM    4  C8  UNL     1      16.043  81.101  -0.975  1.00  0.00     0.111 A 
HETATM    5  C9  UNL     1      17.159  81.398  -0.217  1.00  0.00     0.144 C 
HETATM    6  N8  UNL     1      17.413  81.134   1.091  1.00  0.00    -0.175 N 
ATOM      7  H8  UNL     1      18.249  81.573   1.475  1.00  0.00     0.186 HD
HETATM    8  C10 UNL     1      16.711  80.373   1.950  1.00  0.00     0.680 C 
HETATM    9  N9  UNL     1      17.170  80.211   3.146  1.00  0.00    -0.234 N 
ATOM     10  H91 UNL     1      16.638  79.634   3.798  1.00  0.00     0.174 HD
ATOM     11  H92 UNL     1      18.050  80.696   3.322  1.00  0.00     0.174 HD
HETATM   12  N10 UNL     1      15.539  79.727   1.715  1.00  0.00    -0.154 N 
ATOM     13  H10 UNL     1      15.280  79.029   2.412  1.00  0.00     0.187 HD
HETATM   14  C11 UNL     1      14.667  79.873   0.697  1.00  0.00     0.288 C 
HETATM   15  O3  UNL     1      13.495  79.484   0.880  1.00  0.00    -0.265 OA
HETATM   16  C12 UNL     1      14.924  80.415  -0.558  1.00  0.00     0.134 A 
HETATM   17  N11 UNL     1      13.931  80.222  -1.441  1.00  0.00    -0.328 N 
ATOM     18  H11 UNL     1      13.091  79.717  -1.162  1.00  0.00     0.168 HD
HETATM   19  C13 UNL     1      14.048  80.701  -2.715  1.00  0.00     0.220 A 
ENDROOT
BRANCH   1  20
HETATM   20  N5  UNL     1      15.253  81.869  -4.460  1.00  0.00    -0.267 N 
HETATM   21  N4  UNL     1      15.679  81.118  -5.375  1.00  0.00    -0.227 N 
ATOM     22  H4  UNL     1      15.744  81.460  -6.334  1.00  0.00     0.209 HD
ATOM     23  H5  UNL     1      14.970  82.825  -4.674  1.00  0.00     0.190 HD
BRANCH  21  24
HETATM   24  N3  UNL     1      16.060  79.817  -5.068  1.00  0.00    -0.116 N 
ATOM     25  H3  UNL     1      16.546  79.611  -4.195  1.00  0.00     0.207 HD
BRANCH  24  26
HETATM   26  C6  UNL     1      15.763  78.781  -5.989  1.00  0.00     0.710 C 
HETATM   27  N2  UNL     1      14.879  77.882  -5.722  1.00  0.00    -0.135 N 
HETATM   28  N1  UNL     1      14.634  76.887  -6.676  1.00  0.00    -0.318 N 
ATOM     29  H2  UNL     1      14.372  77.895  -4.837  1.00  0.00     0.205 HD
HETATM   30  C5  UNL     1      15.761  76.415  -7.436  1.00  0.00     0.194 C 
ATOM     31  H1  UNL     1      13.697  76.513  -6.825  1.00  0.00     0.180 HD
HETATM   32  C4  UNL     1      16.622  77.521  -7.958  1.00  0.00     0.260 C 
HETATM   33  N13 UNL     1      16.450  78.747  -7.219  1.00  0.00    -0.195 N 
ATOM     34  H13 UNL     1      16.836  79.613  -7.596  1.00  0.00     0.180 HD
BRANCH  32  35
HETATM   35  O2  UNL     1      17.962  77.155  -7.880  1.00  0.00    -0.335 OA
BRANCH  35  36
HETATM   36  C2  UNL     1      18.374  76.427  -8.994  1.00  0.00     0.257 C 
HETATM   37  C3  UNL     1      19.076  77.285 -10.016  1.00  0.00     0.071 C 
BRANCH  36  38
HETATM   38  O1  UNL     1      19.119  75.315  -8.632  1.00  0.00    -0.366 OA
HETATM   39  C1  UNL     1      20.230  75.666  -7.869  1.00  0.00     0.204 C 
ENDBRANCH  36  38
ENDBRANCH  35  36
ENDBRANCH  32  35
ENDBRANCH  24  26
ENDBRANCH  21  24
ENDBRANCH   1  20
BRANCH  19  40
HETATM   40  N12 UNL     1      12.995  80.499  -3.655  1.00  0.00    -0.094 N 
HETATM   41  O4  UNL     1      12.962  79.443  -4.347  1.00  0.00    -0.530 OA
HETATM   42  O5  UNL     1      11.978  81.391  -3.875  1.00  0.00    -0.530 OA
ENDBRANCH  19  40
BRANCH   5  43
HETATM   43  N7  UNL     1      18.127  82.013  -0.796  1.00  0.00    -0.383 N 
ATOM     44  H72 UNL     1      18.704  81.392  -1.363  1.00  0.00     0.157 HD
ATOM     45  H71 UNL     1      18.214  83.016  -0.635  1.00  0.00     0.157 HD
ENDBRANCH   5  43
TORSDOF 8
ENDMDL
MODEL 2
REMARK VINA RESULT: -8.547881888      2.376      4.097
REMARK  8 active torsions:
REMARK  status: ('A' for Active; 'I' for Inactive)
REMARK    1  A    between atoms: O1_2  and  C2_3 
REMARK    2  A    between atoms: C2_3  and  O2_5 
REMARK    3  A    between atoms: O2_5  and  C4_6 
REMARK    4  A    between atoms: C6_12  and  N3_13 
REMARK    5  A    between atoms: N3_13  and  N4_15 
REMARK    6  A    between atoms: N5_17  and  C7_19 
REMARK    7  A    between atoms: C9_23  and  N7_24 
REMARK    8  A    between atoms: C13_40  and  N12_41 
ROOT
HETATM    1  C7  UNL     1      14.601  80.553  -0.233  1.00  0.00     0.173 A 
HETATM    2  N6  UNL     1      15.249  81.336  -1.144  1.00  0.00    -0.333 N 
ATOM      3  H6  UNL     1      14.792  81.591  -2.019  1.00  0.00     0.168 HD
HETATM    4  C8  UNL     1      16.500  81.768  -0.879  1.00  0.00     0.111 A 
HETATM    5  C9  UNL     1      16.983  82.542  -1.917  1.00  0.00     0.144 C 
HETATM    6  N8  UNL     1      18.169  83.195  -2.031  1.00  0.00    -0.175 N 
ATOM      7  H8  UNL     1      18.251  83.822  -2.831  1.00  0.00     0.186 HD
HETATM    8  C10 UNL     1      19.249  83.128  -1.234  1.00  0.00     0.680 C 
HETATM    9  N9  UNL     1      20.303  83.798  -1.565  1.00  0.00    -0.234 N 
ATOM     10  H91 UNL     1      21.123  83.748  -0.960  1.00  0.00     0.174 HD
ATOM     11  H92 UNL     1      20.202  84.329  -2.430  1.00  0.00     0.174 HD
HETATM   12  N10 UNL     1      19.384  82.421  -0.081  1.00  0.00    -0.154 N 
ATOM     13  H10 UNL     1      20.341  82.321   0.258  1.00  0.00     0.187 HD
HETATM   14  C11 UNL     1      18.440  81.831   0.680  1.00  0.00     0.288 C 
HETATM   15  O3  UNL     1      18.726  81.588   1.870  1.00  0.00    -0.265 OA
HETATM   16  C12 UNL     1      17.161  81.452   0.287  1.00  0.00     0.134 A 
HETATM   17  N11 UNL     1      16.527  80.683   1.187  1.00  0.00    -0.328 N 
ATOM     18  H11 UNL     1      16.991  80.431   2.060  1.00  0.00     0.168 HD
HETATM   19  C13 UNL     1      15.261  80.237   0.933  1.00  0.00     0.220 A 
ENDROOT
BRANCH   1  20
HETATM   20  N5  UNL     1      13.290  80.073  -0.462  1.00  0.00    -0.267 N 
HETATM   21  N4  UNL     1      13.112  79.033  -1.149  1.00  0.00    -0.227 N 
ATOM     22  H4  UNL     1      12.169  78.683  -1.318  1.00  0.00     0.209 HD
ATOM     23  H5  UNL     1      12.490  80.569  -0.071  1.00  0.00     0.190 HD
BRANCH  21  24
HETATM   24  N3  UNL     1      14.213  78.367  -1.676  1.00  0.00    -0.116 N 
ATOM     25  H3  UNL     1      14.938  77.997  -1.061  1.00  0.00     0.207 HD
BRANCH  24  26
HETATM   26  C6  UNL     1      14.310  78.212  -3.082  1.00  0.00     0.710 C 
HETATM   27  N2  UNL     1      13.689  77.264  -3.694  1.00  0.00    -0.135 N 
HETATM   28  N1  UNL     1      13.828  77.167  -5.084  1.00  0.00    -0.318 N 
ATOM     29  H2  UNL     1      13.110  76.600  -3.179  1.00  0.00     0.205 HD
HETATM   30  C5  UNL     1      15.113  77.500  -5.639  1.00  0.00     0.194 C 
ATOM     31  H1  UNL     1      13.052  76.873  -5.677  1.00  0.00     0.180 HD
HETATM   32  C4  UNL     1      15.681  78.768  -5.085  1.00  0.00     0.260 C 
HETATM   33  N13 UNL     1      15.102  79.120  -3.813  1.00  0.00    -0.195 N 
ATOM     34  H13 UNL     1      15.268  80.052  -3.432  1.00  0.00     0.180 HD
BRANCH  32  35
HETATM   35  O2  UNL     1      17.055  78.634  -4.910  1.00  0.00    -0.335 OA
BRANCH  35  36
HETATM   36  C2  UNL     1      17.641  77.868  -5.915  1.00  0.00     0.257 C 
HETATM   37  C3  UNL     1      17.709  78.599  -7.232  1.00  0.00     0.071 C 
BRANCH  36  38
HETATM   38  O1  UNL     1      18.872  77.364  -5.524  1.00  0.00    -0.366 OA
HETATM   39  C1  UNL     1      19.640  76.973  -6.618  1.00  0.00     0.204 C 
ENDBRANCH  36  38
ENDBRANCH  35  36
ENDBRANCH  32  35
ENDBRANCH  24  26
ENDBRANCH  21  24
ENDBRANCH   1  20
BRANCH  19  40
HETATM   40  N12 UNL     1      14.585  79.421   1.888  1.00  0.00    -0.094 N 
HETATM   41  O4  UNL     1      14.466  78.181   1.684  1.00  0.00    -0.530 OA
HETATM   42  O5  UNL     1      14.035  79.894   3.051  1.00  0.00    -0.530 OA
ENDBRANCH  19  40
BRANCH   5  43
HETATM   43  N7  UNL     1      16.233  82.693  -2.948  1.00  0.00    -0.383 N 
ATOM     44  H72 UNL     1      16.494  82.076  -3.718  1.00  0.00     0.157 HD
ATOM     45  H71 UNL     1      15.484  83.383  -2.893  1.00  0.00     0.157 HD
ENDBRANCH   5  43
TORSDOF 8
ENDMDL
MODEL 3
REMARK VINA RESULT: -8.544879592      1.586      2.199
REMARK  8 active torsions:
REMARK  status: ('A' for Active; 'I' for Inactive)
REMARK    1  A    between atoms: O1_2  and  C2_3 
REMARK    2  A    between atoms: C2_3  and  O2_5 
REMARK    3  A    between atoms: O2_5  and  C4_6 
REMARK    4  A    between atoms: C6_12  and  N3_13 
REMARK    5  A    between atoms: N3_13  and  N4_15 
REMARK    6  A    between atoms: N5_17  and  C7_19 
REMARK    7  A    between atoms: C9_23  and  N7_24 
REMARK    8  A    between atoms: C13_40  and  N12_41 
ROOT
HETATM    1  C7  UNL     1      14.411  81.172  -1.291  1.00  0.00     0.173 A 
HETATM    2  N6  UNL     1      15.647  81.676  -1.009  1.00  0.00    -0.333 N 
ATOM      3  H6  UNL     1      16.093  82.332  -1.650  1.00  0.00     0.168 HD
HETATM    4  C8  UNL     1      16.276  81.302   0.125  1.00  0.00     0.111 A 
HETATM    5  C9  UNL     1      17.509  81.917   0.231  1.00  0.00     0.144 C 
HETATM    6  N8  UNL     1      18.430  81.845   1.226  1.00  0.00    -0.175 N 
ATOM      7  H8  UNL     1      19.209  82.498   1.153  1.00  0.00     0.186 HD
HETATM    8  C10 UNL     1      18.455  81.030   2.295  1.00  0.00     0.680 C 
HETATM    9  N9  UNL     1      19.469  81.092   3.094  1.00  0.00    -0.234 N 
ATOM     10  H91 UNL     1      19.488  80.474   3.905  1.00  0.00     0.174 HD
ATOM     11  H92 UNL     1      20.171  81.780   2.821  1.00  0.00     0.174 HD
HETATM   12  N10 UNL     1      17.520  80.113   2.658  1.00  0.00    -0.154 N 
ATOM     13  H10 UNL     1      17.820  79.444   3.368  1.00  0.00     0.187 HD
HETATM   14  C11 UNL     1      16.255  79.957   2.220  1.00  0.00     0.288 C 
HETATM   15  O3  UNL     1      15.463  79.330   2.953  1.00  0.00    -0.265 OA
HETATM   16  C12 UNL     1      15.717  80.421   1.024  1.00  0.00     0.134 A 
HETATM   17  N11 UNL     1      14.501  79.922   0.752  1.00  0.00    -0.328 N 
ATOM     18  H11 UNL     1      14.061  79.267   1.398  1.00  0.00     0.168 HD
HETATM   19  C13 UNL     1      13.852  80.291  -0.392  1.00  0.00     0.220 A 
ENDROOT
BRANCH   1  20
HETATM   20  N5  UNL     1      13.710  81.532  -2.466  1.00  0.00    -0.267 N 
HETATM   21  N4  UNL     1      13.895  80.887  -3.531  1.00  0.00    -0.227 N 
ATOM     22  H4  UNL     1      13.393  81.142  -4.382  1.00  0.00     0.209 HD
ATOM     23  H5  UNL     1      13.055  82.313  -2.450  1.00  0.00     0.190 HD
BRANCH  21  24
HETATM   24  N3  UNL     1      14.790  79.823  -3.538  1.00  0.00    -0.116 N 
ATOM     25  H3  UNL     1      15.432  79.681  -2.759  1.00  0.00     0.207 HD
BRANCH  24  26
HETATM   26  C6  UNL     1      14.796  78.941  -4.648  1.00  0.00     0.710 C 
HETATM   27  N2  UNL     1      13.937  77.985  -4.745  1.00  0.00    -0.135 N 
HETATM   28  N1  UNL     1      13.998  77.149  -5.867  1.00  0.00    -0.318 N 
ATOM     29  H2  UNL     1      13.231  77.840  -4.023  1.00  0.00     0.205 HD
HETATM   30  C5  UNL     1      15.305  76.839  -6.384  1.00  0.00     0.194 C 
ATOM     31  H1  UNL     1      13.152  76.776  -6.299  1.00  0.00     0.180 HD
HETATM   32  C4  UNL     1      16.188  78.039  -6.505  1.00  0.00     0.260 C 
HETATM   33  N13 UNL     1      15.760  79.125  -5.658  1.00  0.00    -0.195 N 
ATOM     34  H13 UNL     1      16.165  80.052  -5.795  1.00  0.00     0.180 HD
BRANCH  32  35
HETATM   35  O2  UNL     1      17.492  77.706  -6.150  1.00  0.00    -0.335 OA
BRANCH  35  36
HETATM   36  C2  UNL     1      18.391  77.922  -7.192  1.00  0.00     0.257 C 
HETATM   37  C3  UNL     1      19.557  76.968  -7.155  1.00  0.00     0.071 C 
BRANCH  36  38
HETATM   38  O1  UNL     1      17.755  77.934  -8.424  1.00  0.00    -0.366 OA
HETATM   39  C1  UNL     1      18.355  77.056  -9.323  1.00  0.00     0.204 C 
ENDBRANCH  36  38
ENDBRANCH  35  36
ENDBRANCH  32  35
ENDBRANCH  24  26
ENDBRANCH  21  24
ENDBRANCH   1  20
BRANCH  19  40
HETATM   40  N12 UNL     1      12.559  79.765  -0.684  1.00  0.00    -0.094 N 
HETATM   41  O4  UNL     1      12.399  79.005  -1.679  1.00  0.00    -0.530 OA
HETATM   42  O5  UNL     1      11.437  80.026   0.058  1.00  0.00    -0.530 OA
ENDBRANCH  19  40
BRANCH   5  43
HETATM   43  N7  UNL     1      17.880  82.679  -0.734  1.00  0.00    -0.383 N 
ATOM     44  H72 UNL     1      17.234  82.657  -1.524  1.00  0.00     0.157 HD
ATOM     45  H71 UNL     1      18.745  83.206  -0.616  1.00  0.00     0.157 HD
ENDBRANCH   5  43
TORSDOF 8
ENDMDL
MODEL 4
REMARK VINA RESULT: -8.464984604      2.026      2.745
REMARK  8 active torsions:
REMARK  status: ('A' for Active; 'I' for Inactive)
REMARK    1  A    between atoms: O1_2  and  C2_3 
REMARK    2  A    between atoms: C2_3  and  O2_5 
REMARK    3  A    between atoms: O2_5  and  C4_6 
REMARK    4  A    between atoms: C6_12  and  N3_13 
REMARK    5  A    between atoms: N3_13  and  N4_15 
REMARK    6  A    between atoms: N5_17  and  C7_19 
REMARK    7  A    between atoms: C9_23  and  N7_24 
REMARK    8  A    between atoms: C13_40  and  N12_41 
ROOT
HETATM    1  C7  UNL     1      14.547  80.814  -1.370  1.00  0.00     0.173 A 
HETATM    2  N6  UNL     1      15.722  81.450  -1.092  1.00  0.00    -0.333 N 
ATOM      3  H6  UNL     1      16.118  82.112  -1.759  1.00  0.00     0.168 HD
HETATM    4  C8  UNL     1      16.356  81.197   0.072  1.00  0.00     0.111 A 
HETATM    5  C9  UNL     1      17.522  81.934   0.167  1.00  0.00     0.144 C 
HETATM    6  N8  UNL     1      18.422  82.003   1.182  1.00  0.00    -0.175 N 
ATOM      7  H8  UNL     1      19.136  82.725   1.089  1.00  0.00     0.186 HD
HETATM    8  C10 UNL     1      18.500  81.251   2.294  1.00  0.00     0.680 C 
HETATM    9  N9  UNL     1      19.483  81.453   3.108  1.00  0.00    -0.234 N 
ATOM     10  H91 UNL     1      19.542  80.882   3.951  1.00  0.00     0.174 HD
ATOM     11  H92 UNL     1      20.122  82.191   2.811  1.00  0.00     0.174 HD
HETATM   12  N10 UNL     1      17.648  80.268   2.689  1.00  0.00    -0.154 N 
ATOM     13  H10 UNL     1      17.994  79.669   3.438  1.00  0.00     0.187 HD
HETATM   14  C11 UNL     1      16.414  79.967   2.236  1.00  0.00     0.288 C 
HETATM   15  O3  UNL     1      15.669  79.305   2.986  1.00  0.00    -0.265 OA
HETATM   16  C12 UNL     1      15.863  80.314   1.007  1.00  0.00     0.134 A 
HETATM   17  N11 UNL     1      14.708  79.686   0.739  1.00  0.00    -0.328 N 
ATOM     18  H11 UNL     1      14.318  79.026   1.411  1.00  0.00     0.168 HD
HETATM   19  C13 UNL     1      14.054  79.931  -0.435  1.00  0.00     0.220 A 
ENDROOT
BRANCH   1  20
HETATM   20  N5  UNL     1      13.843  81.042  -2.575  1.00  0.00    -0.267 N 
HETATM   21  N4  UNL     1      14.132  80.382  -3.608  1.00  0.00    -0.227 N 
ATOM     22  H4  UNL     1      13.628  80.543  -4.480  1.00  0.00     0.209 HD
ATOM     23  H5  UNL     1      13.101  81.742  -2.608  1.00  0.00     0.190 HD
BRANCH  21  24
HETATM   24  N3  UNL     1      15.144  79.431  -3.548  1.00  0.00    -0.116 N 
ATOM     25  H3  UNL     1      15.399  79.001  -2.659  1.00  0.00     0.207 HD
BRANCH  24  26
HETATM   26  C6  UNL     1      15.816  79.071  -4.743  1.00  0.00     0.710 C 
HETATM   27  N2  UNL     1      16.338  79.964  -5.511  1.00  0.00    -0.135 N 
HETATM   28  N1  UNL     1      16.987  79.540  -6.677  1.00  0.00    -0.318 N 
ATOM     29  H2  UNL     1      16.281  80.954  -5.276  1.00  0.00     0.205 HD
HETATM   30  C5  UNL     1      16.425  78.408  -7.367  1.00  0.00     0.194 C 
ATOM     31  H1  UNL     1      17.822  80.013  -7.023  1.00  0.00     0.180 HD
HETATM   32  C4  UNL     1      16.076  77.278  -6.452  1.00  0.00     0.260 C 
HETATM   33  N13 UNL     1      15.910  77.707  -5.085  1.00  0.00    -0.195 N 
ATOM     34  H13 UNL     1      15.860  77.005  -4.346  1.00  0.00     0.180 HD
BRANCH  32  35
HETATM   35  O2  UNL     1      14.887  76.685  -6.864  1.00  0.00    -0.335 OA
BRANCH  35  36
HETATM   36  C2  UNL     1      15.100  75.681  -7.806  1.00  0.00     0.257 C 
HETATM   37  C3  UNL     1      16.561  75.487  -8.122  1.00  0.00     0.071 C 
BRANCH  36  38
HETATM   38  O1  UNL     1      14.474  74.497  -7.444  1.00  0.00    -0.366 OA
HETATM   39  C1  UNL     1      15.140  73.385  -7.954  1.00  0.00     0.204 C 
ENDBRANCH  36  38
ENDBRANCH  35  36
ENDBRANCH  32  35
ENDBRANCH  24  26
ENDBRANCH  21  24
ENDBRANCH   1  20
BRANCH  19  40
HETATM   40  N12 UNL     1      12.825  79.266  -0.722  1.00  0.00    -0.094 N 
HETATM   41  O4  UNL     1      12.719  78.561  -1.764  1.00  0.00    -0.530 OA
HETATM   42  O5  UNL     1      11.710  79.335   0.071  1.00  0.00    -0.530 OA
ENDBRANCH  19  40
BRANCH   5  43
HETATM   43  N7  UNL     1      17.841  82.677  -0.830  1.00  0.00    -0.383 N 
ATOM     44  H72 UNL     1      17.156  83.412  -1.008  1.00  0.00     0.157 HD
ATOM     45  H71 UNL     1      18.710  82.466  -1.319  1.00  0.00     0.157 HD
ENDBRANCH   5  43
TORSDOF 8
ENDMDL
MODEL 5
REMARK VINA RESULT: -8.396674207      2.814      4.422
REMARK  8 active torsions:
REMARK  status: ('A' for Active; 'I' for Inactive)
REMARK    1  A    between atoms: O1_2  and  C2_3 
REMARK    2  A    between atoms: C2_3  and  O2_5 
REMARK    3  A    between atoms: O2_5  and  C4_6 
REMARK    4  A    between atoms: C6_12  and  N3_13 
REMARK    5  A    between atoms: N3_13  and  N4_15 
REMARK    6  A    between atoms: N5_17  and  C7_19 
REMARK    7  A    between atoms: C9_23  and  N7_24 
REMARK    8  A    between atoms: C13_40  and  N12_41 
ROOT
HETATM    1  C7  UNL     1      14.527  80.521  -3.566  1.00  0.00     0.173 A 
HETATM    2  N6  UNL     1      14.352  81.807  -3.988  1.00  0.00    -0.333 N 
ATOM      3  H6  UNL     1      15.143  82.341  -4.347  1.00  0.00     0.168 HD
HETATM    4  C8  UNL     1      13.126  82.367  -3.928  1.00  0.00     0.111 A 
HETATM    5  C9  UNL     1      13.154  83.666  -4.397  1.00  0.00     0.144 C 
HETATM    6  N8  UNL     1      12.138  84.557  -4.542  1.00  0.00    -0.175 N 
ATOM      7  H8  UNL     1      12.373  85.414  -5.042  1.00  0.00     0.186 HD
HETATM    8  C10 UNL     1      10.866  84.463  -4.116  1.00  0.00     0.680 C 
HETATM    9  N9  UNL     1      10.075  85.464  -4.315  1.00  0.00    -0.234 N 
ATOM     10  H91 UNL     1       9.109  85.393  -3.992  1.00  0.00     0.174 HD
ATOM     11  H92 UNL     1      10.513  86.252  -4.792  1.00  0.00     0.174 HD
HETATM   12  N10 UNL     1      10.283  83.413  -3.480  1.00  0.00    -0.154 N 
ATOM     13  H10 UNL     1       9.383  83.615  -3.044  1.00  0.00     0.187 HD
HETATM   14  C11 UNL     1      10.717  82.145  -3.340  1.00  0.00     0.288 C 
HETATM   15  O3  UNL     1       9.867  81.269  -3.077  1.00  0.00    -0.265 OA
HETATM   16  C12 UNL     1      12.026  81.688  -3.453  1.00  0.00     0.134 A 
HETATM   17  N11 UNL     1      12.191  80.422  -3.038  1.00  0.00    -0.328 N 
ATOM     18  H11 UNL     1      11.395  79.894  -2.681  1.00  0.00     0.168 HD
HETATM   19  C13 UNL     1      13.427  79.842  -3.092  1.00  0.00     0.220 A 
ENDROOT
BRANCH   1  20
HETATM   20  N5  UNL     1      15.791  79.888  -3.608  1.00  0.00    -0.267 N 
HETATM   21  N4  UNL     1      16.179  79.326  -4.666  1.00  0.00    -0.227 N 
ATOM     22  H4  UNL     1      17.089  78.868  -4.702  1.00  0.00     0.209 HD
ATOM     23  H5  UNL     1      16.389  79.887  -2.782  1.00  0.00     0.190 HD
BRANCH  21  24
HETATM   24  N3  UNL     1      15.354  79.337  -5.786  1.00  0.00    -0.116 N 
ATOM     25  H3  UNL     1      14.749  80.135  -5.976  1.00  0.00     0.207 HD
BRANCH  24  26
HETATM   26  C6  UNL     1      15.370  78.219  -6.657  1.00  0.00     0.710 C 
HETATM   27  N2  UNL     1      14.681  77.161  -6.399  1.00  0.00    -0.135 N 
HETATM   28  N1  UNL     1      14.741  76.092  -7.301  1.00  0.00    -0.318 N 
ATOM     29  H2  UNL     1      14.107  77.103  -5.558  1.00  0.00     0.205 HD
HETATM   30  C5  UNL     1      16.007  75.845  -7.942  1.00  0.00     0.194 C 
ATOM     31  H1  UNL     1      13.924  75.514  -7.497  1.00  0.00     0.180 HD
HETATM   32  C4  UNL     1      16.651  77.088  -8.468  1.00  0.00     0.260 C 
HETATM   33  N13 UNL     1      16.154  78.279  -7.826  1.00  0.00    -0.195 N 
ATOM     34  H13 UNL     1      16.376  79.190  -8.229  1.00  0.00     0.180 HD
BRANCH  32  35
HETATM   35  O2  UNL     1      18.026  77.031  -8.265  1.00  0.00    -0.335 OA
BRANCH  35  36
HETATM   36  C2  UNL     1      18.674  76.303  -9.261  1.00  0.00     0.257 C 
HETATM   37  C3  UNL     1      19.479  77.181 -10.185  1.00  0.00     0.071 C 
BRANCH  36  38
HETATM   38  O1  UNL     1      19.424  75.264  -8.730  1.00  0.00    -0.366 OA
HETATM   39  C1  UNL     1      20.339  75.719  -7.784  1.00  0.00     0.204 C 
ENDBRANCH  36  38
ENDBRANCH  35  36
ENDBRANCH  32  35
ENDBRANCH  24  26
ENDBRANCH  21  24
ENDBRANCH   1  20
BRANCH  19  40
HETATM   40  N12 UNL     1      13.606  78.496  -2.653  1.00  0.00    -0.094 N 
HETATM   41  O4  UNL     1      13.233  78.157  -1.496  1.00  0.00    -0.530 OA
HETATM   42  O5  UNL     1      14.170  77.507  -3.416  1.00  0.00    -0.530 OA
ENDBRANCH  19  40
BRANCH   5  43
HETATM   43  N7  UNL     1      14.289  84.145  -4.760  1.00  0.00    -0.383 N 
ATOM     44  H72 UNL     1      14.315  84.388  -5.750  1.00  0.00     0.157 HD
ATOM     45  H71 UNL     1      15.016  84.230  -4.050  1.00  0.00     0.157 HD
ENDBRANCH   5  43
TORSDOF 8
ENDMDL
