MODEL 1
REMARK VINA RESULT: -6.885790503      0.000      0.000
REMARK  5 active torsions:
REMARK  status: ('A' for Active; 'I' for Inactive)
REMARK    1  A    between atoms: C2_5  and  C3_6 
REMARK    2  A    between atoms: C3_6  and  C4_7 
REMARK    3  A    between atoms: C4_7  and  C5_8 
REMARK    4  A    between atoms: C6_10  and  N2_11 
REMARK    5  A    between atoms: N2_11  and  N3_13 
ROOT
HETATM    1  O1  UNL     1      91.693   8.791  34.000  1.00  0.00    -0.238 OA
HETATM    2  C1  UNL     1      90.963   9.766  33.684  1.00  0.00     0.372 A 
HETATM    3  N1  UNL     1      91.161  10.539  32.627  1.00  0.00    -0.291 N 
ATOM      4  H1  UNL     1      91.913  10.450  31.944  1.00  0.00     0.172 HD
HETATM    5  C2  UNL     1      90.190  11.456  32.623  1.00  0.00     0.144 A 
HETATM    6  C6  UNL     1      89.367  11.233  33.724  1.00  0.00     0.203 A 
HETATM    7  O2  UNL     1      89.910  10.178  34.323  1.00  0.00    -0.239 OA
ENDROOT
BRANCH   6   8
HETATM    8  N2  UNL     1      88.219  11.961  34.111  1.00  0.00    -0.277 N 
ATOM      9  H2  UNL     1      87.522  12.235  33.419  1.00  0.00     0.189 HD
BRANCH   8  10
HETATM   10  N3  UNL     1      88.057  12.298  35.439  1.00  0.00    -0.307 N 
HETATM   11  C7  UNL     1      88.469  13.368  35.993  1.00  0.00     0.004 C 
HETATM   12  C8  UNL     1      88.239  13.628  37.426  1.00  0.00     0.054 C 
HETATM   13  C12 UNL     1      89.188  14.361  35.178  1.00  0.00     0.054 C 
HETATM   14  C9  UNL     1      88.323  15.138  37.615  1.00  0.00     0.006 C 
HETATM   15  C10 UNL     1      89.758  15.525  37.342  1.00  0.00     0.001 C 
HETATM   16  C11 UNL     1      90.143  15.214  35.934  1.00  0.00     0.006 C 
ATOM     17  H3  UNL     1      87.562  11.629  36.029  1.00  0.00     0.186 HD
ENDBRANCH   8  10
ENDBRANCH   6   8
BRANCH   5  18
HETATM   18  C3  UNL     1      89.951  12.524  31.696  1.00  0.00    -0.042 C 
BRANCH  18  19
HETATM   19  C4  UNL     1      89.742  13.405  30.904  1.00  0.00    -0.068 C 
BRANCH  19  20
HETATM   20  C5  UNL     1      89.495  14.478  29.920  1.00  0.00     0.316 C 
HETATM   21  F1  UNL     1      89.051  13.911  28.741  1.00  0.00    -0.242 F 
ENDBRANCH  19  20
ENDBRANCH  18  19
ENDBRANCH   5  18
TORSDOF 5
ENDMDL
MODEL 2
REMARK VINA RESULT: -6.837755516      3.370      5.473
REMARK  5 active torsions:
REMARK  status: ('A' for Active; 'I' for Inactive)
REMARK    1  A    between atoms: C2_5  and  C3_6 
REMARK    2  A    between atoms: C3_6  and  C4_7 
REMARK    3  A    between atoms: C4_7  and  C5_8 
REMARK    4  A    between atoms: C6_10  and  N2_11 
REMARK    5  A    between atoms: N2_11  and  N3_13 
ROOT
HETATM    1  O1  UNL     1      89.499  14.037  29.531  1.00  0.00    -0.238 OA
HETATM    2  C1  UNL     1      89.536  13.574  30.701  1.00  0.00     0.372 A 
HETATM    3  N1  UNL     1      90.276  14.072  31.680  1.00  0.00    -0.291 N 
ATOM      4  H1  UNL     1      90.899  14.877  31.620  1.00  0.00     0.172 HD
HETATM    5  C2  UNL     1      90.052  13.322  32.762  1.00  0.00     0.144 A 
HETATM    6  C6  UNL     1      89.138  12.326  32.428  1.00  0.00     0.203 A 
HETATM    7  O2  UNL     1      88.872  12.551  31.145  1.00  0.00    -0.239 OA
ENDROOT
BRANCH   6   8
HETATM    8  N2  UNL     1      88.615  11.312  33.263  1.00  0.00    -0.277 N 
ATOM      9  H2  UNL     1      87.888  11.527  33.945  1.00  0.00     0.189 HD
BRANCH   8  10
HETATM   10  N3  UNL     1      89.103  10.028  33.141  1.00  0.00    -0.307 N 
HETATM   11  C7  UNL     1      89.662   9.351  34.064  1.00  0.00     0.004 C 
HETATM   12  C8  UNL     1      90.149   7.981  33.825  1.00  0.00     0.054 C 
HETATM   13  C12 UNL     1      89.821   9.959  35.396  1.00  0.00     0.054 C 
HETATM   14  C9  UNL     1      90.214   7.296  35.185  1.00  0.00     0.006 C 
HETATM   15  C10 UNL     1      91.301   7.998  35.966  1.00  0.00     0.001 C 
HETATM   16  C11 UNL     1      90.966   9.435  36.187  1.00  0.00     0.006 C 
ATOM     17  H3  UNL     1      89.007   9.580  32.230  1.00  0.00     0.186 HD
ENDBRANCH   8  10
ENDBRANCH   6   8
BRANCH   5  18
HETATM   18  C3  UNL     1      90.605  13.439  34.081  1.00  0.00    -0.042 C 
BRANCH  18  19
HETATM   19  C4  UNL     1      91.052  13.551  35.191  1.00  0.00    -0.068 C 
BRANCH  19  20
HETATM   20  C5  UNL     1      91.588  13.698  36.560  1.00  0.00     0.316 C 
HETATM   21  F1  UNL     1      91.928  12.451  37.045  1.00  0.00    -0.242 F 
ENDBRANCH  19  20
ENDBRANCH  18  19
ENDBRANCH   5  18
TORSDOF 5
ENDMDL
MODEL 3
REMARK VINA RESULT: -6.828448503      1.463      1.590
REMARK  5 active torsions:
REMARK  status: ('A' for Active; 'I' for Inactive)
REMARK    1  A    between atoms: C2_5  and  C3_6 
REMARK    2  A    between atoms: C3_6  and  C4_7 
REMARK    3  A    between atoms: C4_7  and  C5_8 
REMARK    4  A    between atoms: C6_10  and  N2_11 
REMARK    5  A    between atoms: N2_11  and  N3_13 
ROOT
HETATM    1  O1  UNL     1      89.565   7.136  34.171  1.00  0.00    -0.238 OA
HETATM    2  C1  UNL     1      89.764   8.377  34.102  1.00  0.00     0.372 A 
HETATM    3  N1  UNL     1      89.600   9.102  33.005  1.00  0.00    -0.291 N 
ATOM      4  H1  UNL     1      89.299   8.760  32.093  1.00  0.00     0.172 HD
HETATM    5  C2  UNL     1      89.903  10.364  33.319  1.00  0.00     0.144 A 
HETATM    6  C6  UNL     1      90.266  10.409  34.663  1.00  0.00     0.203 A 
HETATM    7  O2  UNL     1      90.154   9.149  35.069  1.00  0.00    -0.239 OA
ENDROOT
BRANCH   6   8
HETATM    8  N2  UNL     1      90.661  11.538  35.417  1.00  0.00    -0.277 N 
ATOM      9  H2  UNL     1      91.487  12.075  35.152  1.00  0.00     0.189 HD
BRANCH   8  10
HETATM   10  N3  UNL     1      89.913  11.903  36.517  1.00  0.00    -0.307 N 
HETATM   11  C7  UNL     1      89.413  13.055  36.731  1.00  0.00     0.004 C 
HETATM   12  C8  UNL     1      88.626  13.337  37.945  1.00  0.00     0.054 C 
HETATM   13  C12 UNL     1      89.630  14.121  35.738  1.00  0.00     0.054 C 
HETATM   14  C9  UNL     1      87.742  14.537  37.623  1.00  0.00     0.006 C 
HETATM   15  C10 UNL     1      88.671  15.715  37.440  1.00  0.00     0.001 C 
HETATM   16  C11 UNL     1      89.595  15.501  36.289  1.00  0.00     0.006 C 
ATOM     17  H3  UNL     1      89.746  11.186  37.222  1.00  0.00     0.186 HD
ENDBRANCH   8  10
ENDBRANCH   6   8
BRANCH   5  18
HETATM   18  C3  UNL     1      89.890  11.536  32.492  1.00  0.00    -0.042 C 
BRANCH  18  19
HETATM   19  C4  UNL     1      89.871  12.506  31.782  1.00  0.00    -0.068 C 
BRANCH  19  20
HETATM   20  C5  UNL     1      89.851  13.688  30.896  1.00  0.00     0.316 C 
HETATM   21  F1  UNL     1      88.846  13.530  29.962  1.00  0.00    -0.242 F 
ENDBRANCH  19  20
ENDBRANCH  18  19
ENDBRANCH   5  18
TORSDOF 5
ENDMDL
MODEL 4
REMARK VINA RESULT: -6.792260866      2.523      3.268
REMARK  5 active torsions:
REMARK  status: ('A' for Active; 'I' for Inactive)
REMARK    1  A    between atoms: C2_5  and  C3_6 
REMARK    2  A    between atoms: C3_6  and  C4_7 
REMARK    3  A    between atoms: C4_7  and  C5_8 
REMARK    4  A    between atoms: C6_10  and  N2_11 
REMARK    5  A    between atoms: N2_11  and  N3_13 
ROOT
HETATM    1  O1  UNL     1      92.232   5.964  36.397  1.00  0.00    -0.238 OA
HETATM    2  C1  UNL     1      91.513   6.941  36.063  1.00  0.00     0.372 A 
HETATM    3  N1  UNL     1      91.732   7.705  35.003  1.00  0.00    -0.291 N 
ATOM      4  H1  UNL     1      92.494   7.606  34.333  1.00  0.00     0.172 HD
HETATM    5  C2  UNL     1      90.768   8.628  34.977  1.00  0.00     0.144 A 
HETATM    6  C6  UNL     1      89.926   8.418  36.068  1.00  0.00     0.203 A 
HETATM    7  O2  UNL     1      90.453   7.365  36.682  1.00  0.00    -0.239 OA
ENDROOT
BRANCH   6   8
HETATM    8  N2  UNL     1      88.777   9.157  36.431  1.00  0.00    -0.277 N 
ATOM      9  H2  UNL     1      87.875   8.958  35.998  1.00  0.00     0.189 HD
BRANCH   8  10
HETATM   10  N3  UNL     1      88.893  10.150  37.380  1.00  0.00    -0.307 N 
HETATM   11  C7  UNL     1      88.668  11.391  37.194  1.00  0.00     0.004 C 
HETATM   12  C8  UNL     1      88.824  12.371  38.284  1.00  0.00     0.054 C 
HETATM   13  C12 UNL     1      88.243  11.844  35.860  1.00  0.00     0.054 C 
HETATM   14  C9  UNL     1      87.966  13.576  37.913  1.00  0.00     0.006 C 
HETATM   15  C10 UNL     1      88.606  14.197  36.693  1.00  0.00     0.001 C 
HETATM   16  C11 UNL     1      88.598  13.252  35.538  1.00  0.00     0.006 C 
ATOM     17  H3  UNL     1      89.186   9.867  38.315  1.00  0.00     0.186 HD
ENDBRANCH   8  10
ENDBRANCH   6   8
BRANCH   5  18
HETATM   18  C3  UNL     1      90.549   9.690  34.038  1.00  0.00    -0.042 C 
BRANCH  18  19
HETATM   19  C4  UNL     1      90.361  10.594  33.268  1.00  0.00    -0.068 C 
BRANCH  19  20
HETATM   20  C5  UNL     1      90.120  11.712  32.334  1.00  0.00     0.316 C 
HETATM   21  F1  UNL     1      88.762  11.954  32.266  1.00  0.00    -0.242 F 
ENDBRANCH  19  20
ENDBRANCH  18  19
ENDBRANCH   5  18
TORSDOF 5
ENDMDL
MODEL 5
REMARK VINA RESULT: -6.745417916      3.046      4.917
REMARK  5 active torsions:
REMARK  status: ('A' for Active; 'I' for Inactive)
REMARK    1  A    between atoms: C2_5  and  C3_6 
REMARK    2  A    between atoms: C3_6  and  C4_7 
REMARK    3  A    between atoms: C4_7  and  C5_8 
REMARK    4  A    between atoms: C6_10  and  N2_11 
REMARK    5  A    between atoms: N2_11  and  N3_13 
ROOT
HETATM    1  O1  UNL     1      90.439   5.961  37.469  1.00  0.00    -0.238 OA
HETATM    2  C1  UNL     1      90.439   7.011  36.776  1.00  0.00     0.372 A 
HETATM    3  N1  UNL     1      90.560   8.234  37.270  1.00  0.00    -0.291 N 
ATOM      4  H1  UNL     1      90.666   8.483  38.253  1.00  0.00     0.172 HD
HETATM    5  C2  UNL     1      90.516   9.081  36.238  1.00  0.00     0.144 A 
HETATM    6  C6  UNL     1      90.362   8.342  35.067  1.00  0.00     0.203 A 
HETATM    7  O2  UNL     1      90.324   7.082  35.485  1.00  0.00    -0.239 OA
ENDROOT
BRANCH   6   8
HETATM    8  N2  UNL     1      90.270   8.826  33.742  1.00  0.00    -0.277 N 
ATOM      9  H2  UNL     1      90.886   8.463  33.014  1.00  0.00     0.189 HD
BRANCH   8  10
HETATM   10  N3  UNL     1      89.335   9.796  33.447  1.00  0.00    -0.307 N 
HETATM   11  C7  UNL     1      89.575  10.925  32.908  1.00  0.00     0.004 C 
HETATM   12  C8  UNL     1      88.495  11.890  32.636  1.00  0.00     0.054 C 
HETATM   13  C12 UNL     1      90.963  11.263  32.551  1.00  0.00     0.054 C 
HETATM   14  C9  UNL     1      88.999  12.810  31.529  1.00  0.00     0.006 C 
HETATM   15  C10 UNL     1      90.138  13.607  32.122  1.00  0.00     0.001 C 
HETATM   16  C11 UNL     1      91.264  12.719  32.532  1.00  0.00     0.006 C 
ATOM     17  H3  UNL     1      88.364   9.590  33.683  1.00  0.00     0.186 HD
ENDBRANCH   8  10
ENDBRANCH   6   8
BRANCH   5  18
HETATM   18  C3  UNL     1      90.603  10.513  36.231  1.00  0.00    -0.042 C 
BRANCH  18  19
HETATM   19  C4  UNL     1      90.685  11.712  36.244  1.00  0.00    -0.068 C 
BRANCH  19  20
HETATM   20  C5  UNL     1      90.769  13.187  36.256  1.00  0.00     0.316 C 
HETATM   21  F1  UNL     1      89.762  13.699  35.461  1.00  0.00    -0.242 F 
ENDBRANCH  19  20
ENDBRANCH  18  19
ENDBRANCH   5  18
TORSDOF 5
ENDMDL
