MODEL 1
REMARK VINA RESULT: -4.725902286      0.000      0.000
REMARK  6 active torsions:
REMARK  status: ('A' for Active; 'I' for Inactive)
REMARK    1  A    between atoms: N1_1  and  C1_5 
REMARK    2  A    between atoms: C1_5  and  C2_6 
REMARK    3  A    between atoms: C2_6  and  C3_7 
REMARK    4  A    between atoms: C3_7  and  C4_8 
REMARK    5  A    between atoms: C4_8  and  N2_9 
REMARK    6  A    between atoms: N2_9  and  C5_12 
ROOT
HETATM    1  N2  UNL     1      86.263  -1.479  42.783  1.00  0.00    -0.068 N 
ATOM      2  H21 UNL     1      86.874  -0.665  42.856  1.00  0.00     0.277 HD
ATOM      3  H22 UNL     1      86.512  -1.788  41.843  1.00  0.00     0.277 HD
ENDROOT
BRANCH   1   4
HETATM    4  C4  UNL     1      84.884  -1.095  42.851  1.00  0.00     0.233 C 
BRANCH   4   5
HETATM    5  C3  UNL     1      84.648   0.231  42.112  1.00  0.00     0.029 C 
BRANCH   5   6
HETATM    6  C2  UNL     1      85.227   0.075  40.713  1.00  0.00     0.029 C 
BRANCH   6   7
HETATM    7  C1  UNL     1      84.188  -0.281  39.688  1.00  0.00     0.229 C 
BRANCH   7   8
HETATM    8  N1  UNL     1      84.669  -1.363  38.866  1.00  0.00    -0.079 N 
ATOM      9  H13 UNL     1      85.461  -1.847  39.292  1.00  0.00     0.274 HD
ATOM     10  H12 UNL     1      84.016  -2.146  38.840  1.00  0.00     0.274 HD
ATOM     11  H11 UNL     1      84.889  -1.013  37.934  1.00  0.00     0.274 HD
ENDBRANCH   7   8
ENDBRANCH   6   7
ENDBRANCH   5   6
ENDBRANCH   4   5
ENDBRANCH   1   4
BRANCH   1  12
HETATM   12  C5  UNL     1      86.603  -2.459  43.749  1.00  0.00     0.220 C 
HETATM   13  C6  UNL     1      87.159  -3.741  43.208  1.00  0.00     0.148 C 
HETATM   14  N3  UNL     1      86.052  -4.489  42.653  1.00  0.00    -0.418 N 
HETATM   15  C7  UNL     1      85.308  -5.258  43.589  1.00  0.00     0.133 C 
ATOM     16  H3  UNL     1      85.822  -4.467  41.659  1.00  0.00     0.153 HD
HETATM   17  C8  UNL     1      85.779  -5.150  45.010  1.00  0.00     0.133 C 
HETATM   18  N4  UNL     1      85.798  -3.837  45.535  1.00  0.00    -0.418 N 
HETATM   19  C9  UNL     1      85.411  -2.785  44.664  1.00  0.00     0.148 C 
ATOM     20  H4  UNL     1      86.079  -3.654  46.498  1.00  0.00     0.153 HD
ENDBRANCH   1  12
TORSDOF 6
ENDMDL
MODEL 2
REMARK VINA RESULT: -4.636659623      0.982      1.029
REMARK  6 active torsions:
REMARK  status: ('A' for Active; 'I' for Inactive)
REMARK    1  A    between atoms: N1_1  and  C1_5 
REMARK    2  A    between atoms: C1_5  and  C2_6 
REMARK    3  A    between atoms: C2_6  and  C3_7 
REMARK    4  A    between atoms: C3_7  and  C4_8 
REMARK    5  A    between atoms: C4_8  and  N2_9 
REMARK    6  A    between atoms: N2_9  and  C5_12 
ROOT
HETATM    1  N2  UNL     1      86.110  -2.454  42.062  1.00  0.00    -0.068 N 
ATOM      2  H21 UNL     1      86.120  -3.015  41.210  1.00  0.00     0.277 HD
ATOM      3  H22 UNL     1      85.116  -2.228  42.099  1.00  0.00     0.277 HD
ENDROOT
BRANCH   1   4
HETATM    4  C4  UNL     1      86.902  -1.270  41.910  1.00  0.00     0.233 C 
BRANCH   4   5
HETATM    5  C3  UNL     1      86.019  -0.061  41.568  1.00  0.00     0.029 C 
BRANCH   5   6
HETATM    6  C2  UNL     1      84.648  -0.600  41.185  1.00  0.00     0.029 C 
BRANCH   6   7
HETATM    7  C1  UNL     1      84.243  -0.226  39.788  1.00  0.00     0.229 C 
BRANCH   7   8
HETATM    8  N1  UNL     1      84.536  -1.315  38.891  1.00  0.00    -0.079 N 
ATOM      9  H13 UNL     1      84.883  -2.137  39.384  1.00  0.00     0.274 HD
ATOM     10  H12 UNL     1      83.690  -1.727  38.497  1.00  0.00     0.274 HD
ATOM     11  H11 UNL     1      85.182  -0.998  38.168  1.00  0.00     0.274 HD
ENDBRANCH   7   8
ENDBRANCH   6   7
ENDBRANCH   5   6
ENDBRANCH   4   5
ENDBRANCH   1   4
BRANCH   1  12
HETATM   12  C5  UNL     1      86.499  -3.228  43.184  1.00  0.00     0.220 C 
HETATM   13  C6  UNL     1      86.881  -4.647  42.896  1.00  0.00     0.148 C 
HETATM   14  N3  UNL     1      85.657  -5.382  42.655  1.00  0.00    -0.418 N 
HETATM   15  C7  UNL     1      84.987  -5.845  43.820  1.00  0.00     0.133 C 
ATOM     16  H3  UNL     1      85.301  -5.555  41.715  1.00  0.00     0.153 HD
HETATM   17  C8  UNL     1      85.648  -5.476  45.117  1.00  0.00     0.133 C 
HETATM   18  N4  UNL     1      85.835  -4.089  45.318  1.00  0.00    -0.418 N 
HETATM   19  C9  UNL     1      85.417  -3.220  44.277  1.00  0.00     0.148 C 
ATOM     20  H4  UNL     1      86.254  -3.728  46.176  1.00  0.00     0.153 HD
ENDBRANCH   1  12
TORSDOF 6
ENDMDL
MODEL 3
REMARK VINA RESULT: -4.496190000      1.204      2.137
REMARK  6 active torsions:
REMARK  status: ('A' for Active; 'I' for Inactive)
REMARK    1  A    between atoms: N1_1  and  C1_5 
REMARK    2  A    between atoms: C1_5  and  C2_6 
REMARK    3  A    between atoms: C2_6  and  C3_7 
REMARK    4  A    between atoms: C3_7  and  C4_8 
REMARK    5  A    between atoms: C4_8  and  N2_9 
REMARK    6  A    between atoms: N2_9  and  C5_12 
ROOT
HETATM    1  N2  UNL     1      87.201  -2.213  43.171  1.00  0.00    -0.068 N 
ATOM      2  H21 UNL     1      86.938  -1.525  43.876  1.00  0.00     0.277 HD
ATOM      3  H22 UNL     1      88.002  -2.633  43.642  1.00  0.00     0.277 HD
ENDROOT
BRANCH   1   4
HETATM    4  C4  UNL     1      87.597  -1.575  41.950  1.00  0.00     0.233 C 
BRANCH   4   5
HETATM    5  C3  UNL     1      86.398  -1.412  41.004  1.00  0.00     0.029 C 
BRANCH   5   6
HETATM    6  C2  UNL     1      85.822  -0.024  41.243  1.00  0.00     0.029 C 
BRANCH   6   7
HETATM    7  C1  UNL     1      84.335   0.034  41.040  1.00  0.00     0.229 C 
BRANCH   7   8
HETATM    8  N1  UNL     1      84.017  -0.324  39.681  1.00  0.00    -0.079 N 
ATOM      9  H13 UNL     1      84.785  -0.120  39.040  1.00  0.00     0.274 HD
ATOM     10  H12 UNL     1      83.979  -1.334  39.548  1.00  0.00     0.274 HD
ATOM     11  H11 UNL     1      83.150   0.134  39.400  1.00  0.00     0.274 HD
ENDBRANCH   7   8
ENDBRANCH   6   7
ENDBRANCH   5   6
ENDBRANCH   4   5
ENDBRANCH   1   4
BRANCH   1  12
HETATM   12  C5  UNL     1      86.168  -3.164  42.977  1.00  0.00     0.220 C 
HETATM   13  C6  UNL     1      85.132  -3.230  44.057  1.00  0.00     0.148 C 
HETATM   14  N3  UNL     1      85.727  -3.918  45.182  1.00  0.00    -0.418 N 
HETATM   15  C7  UNL     1      85.687  -5.338  45.117  1.00  0.00     0.133 C 
ATOM     16  H3  UNL     1      86.146  -3.419  45.967  1.00  0.00     0.153 HD
HETATM   17  C8  UNL     1      85.050  -5.894  43.876  1.00  0.00     0.133 C 
HETATM   18  N4  UNL     1      85.646  -5.481  42.663  1.00  0.00    -0.418 N 
HETATM   19  C9  UNL     1      86.736  -4.575  42.751  1.00  0.00     0.148 C 
ATOM     20  H4  UNL     1      85.307  -5.818  41.762  1.00  0.00     0.153 HD
ENDBRANCH   1  12
TORSDOF 6
ENDMDL
MODEL 4
REMARK VINA RESULT: -4.443741724      3.921      5.801
REMARK  6 active torsions:
REMARK  status: ('A' for Active; 'I' for Inactive)
REMARK    1  A    between atoms: N1_1  and  C1_5 
REMARK    2  A    between atoms: C1_5  and  C2_6 
REMARK    3  A    between atoms: C2_6  and  C3_7 
REMARK    4  A    between atoms: C3_7  and  C4_8 
REMARK    5  A    between atoms: C4_8  and  N2_9 
REMARK    6  A    between atoms: N2_9  and  C5_12 
ROOT
HETATM    1  N2  UNL     1      88.645  -5.457  43.510  1.00  0.00    -0.068 N 
ATOM      2  H21 UNL     1      87.969  -6.213  43.622  1.00  0.00     0.277 HD
ATOM      3  H22 UNL     1      89.226  -5.633  44.329  1.00  0.00     0.277 HD
ENDROOT
BRANCH   1   4
HETATM    4  C4  UNL     1      88.006  -4.177  43.598  1.00  0.00     0.233 C 
BRANCH   4   5
HETATM    5  C3  UNL     1      86.691  -4.274  44.386  1.00  0.00     0.029 C 
BRANCH   5   6
HETATM    6  C2  UNL     1      85.590  -4.591  43.385  1.00  0.00     0.029 C 
BRANCH   6   7
HETATM    7  C1  UNL     1      84.844  -5.852  43.717  1.00  0.00     0.229 C 
BRANCH   7   8
HETATM    8  N1  UNL     1      85.229  -6.312  45.027  1.00  0.00    -0.079 N 
ATOM      9  H13 UNL     1      85.893  -5.681  45.477  1.00  0.00     0.274 HD
ATOM     10  H12 UNL     1      84.469  -6.228  45.702  1.00  0.00     0.274 HD
ATOM     11  H11 UNL     1      85.586  -7.265  44.965  1.00  0.00     0.274 HD
ENDBRANCH   7   8
ENDBRANCH   6   7
ENDBRANCH   5   6
ENDBRANCH   4   5
ENDBRANCH   1   4
BRANCH   1  12
HETATM   12  C5  UNL     1      89.390  -5.612  42.314  1.00  0.00     0.220 C 
HETATM   13  C6  UNL     1      88.584  -5.775  41.062  1.00  0.00     0.148 C 
HETATM   14  N3  UNL     1      88.060  -7.124  41.060  1.00  0.00    -0.418 N 
HETATM   15  C7  UNL     1      88.947  -8.119  40.567  1.00  0.00     0.133 C 
ATOM     16  H3  UNL     1      87.120  -7.344  41.389  1.00  0.00     0.153 HD
HETATM   17  C8  UNL     1      90.296  -7.611  40.147  1.00  0.00     0.133 C 
HETATM   18  N4  UNL     1      91.018  -6.932  41.156  1.00  0.00    -0.418 N 
HETATM   19  C9  UNL     1      90.384  -6.780  42.417  1.00  0.00     0.148 C 
ATOM     20  H4  UNL     1      91.955  -6.567  40.984  1.00  0.00     0.153 HD
ENDBRANCH   1  12
TORSDOF 6
ENDMDL
MODEL 5
REMARK VINA RESULT: -4.397624958      3.199      6.163
REMARK  6 active torsions:
REMARK  status: ('A' for Active; 'I' for Inactive)
REMARK    1  A    between atoms: N1_1  and  C1_5 
REMARK    2  A    between atoms: C1_5  and  C2_6 
REMARK    3  A    between atoms: C2_6  and  C3_7 
REMARK    4  A    between atoms: C3_7  and  C4_8 
REMARK    5  A    between atoms: C4_8  and  N2_9 
REMARK    6  A    between atoms: N2_9  and  C5_12 
ROOT
HETATM    1  N2  UNL     1      85.414  -6.820  42.643  1.00  0.00    -0.068 N 
ATOM      2  H21 UNL     1      84.865  -7.335  41.954  1.00  0.00     0.277 HD
ATOM      3  H22 UNL     1      86.161  -7.497  42.796  1.00  0.00     0.277 HD
ENDROOT
BRANCH   1   4
HETATM    4  C4  UNL     1      84.662  -6.603  43.843  1.00  0.00     0.233 C 
BRANCH   4   5
HETATM    5  C3  UNL     1      83.589  -7.688  44.021  1.00  0.00     0.029 C 
BRANCH   5   6
HETATM    6  C2  UNL     1      84.094  -8.939  43.315  1.00  0.00     0.029 C 
BRANCH   6   7
HETATM    7  C1  UNL     1      83.089 -10.056  43.318  1.00  0.00     0.229 C 
BRANCH   7   8
HETATM    8  N1  UNL     1      81.878  -9.617  43.964  1.00  0.00    -0.079 N 
ATOM      9  H13 UNL     1      82.065  -8.983  44.742  1.00  0.00     0.274 HD
ATOM     10  H12 UNL     1      81.341  -8.977  43.379  1.00  0.00     0.274 HD
ATOM     11  H11 UNL     1      81.330 -10.427  44.252  1.00  0.00     0.274 HD
ENDBRANCH   7   8
ENDBRANCH   6   7
ENDBRANCH   5   6
ENDBRANCH   4   5
ENDBRANCH   1   4
BRANCH   1  12
HETATM   12  C5  UNL     1      85.921  -5.616  42.093  1.00  0.00     0.220 C 
HETATM   13  C6  UNL     1      87.353  -5.651  41.657  1.00  0.00     0.148 C 
HETATM   14  N3  UNL     1      88.169  -5.598  42.851  1.00  0.00    -0.418 N 
HETATM   15  C7  UNL     1      88.404  -4.295  43.369  1.00  0.00     0.133 C 
ATOM     16  H3  UNL     1      88.547  -6.437  43.290  1.00  0.00     0.153 HD
HETATM   17  C8  UNL     1      87.748  -3.184  42.602  1.00  0.00     0.133 C 
HETATM   18  N4  UNL     1      86.343  -3.290  42.481  1.00  0.00    -0.418 N 
HETATM   19  C9  UNL     1      85.728  -4.433  43.056  1.00  0.00     0.148 C 
ATOM     20  H4  UNL     1      85.795  -2.577  42.000  1.00  0.00     0.153 HD
ENDBRANCH   1  12
TORSDOF 6
ENDMDL
