MODEL 1
REMARK VINA RESULT: -8.610771684      0.000      0.000
REMARK  9 active torsions:
REMARK  status: ('A' for Active; 'I' for Inactive)
REMARK    1  A    between atoms: C2_2  and  C3_4 
REMARK    2  A    between atoms: C3_4  and  C4_5 
REMARK    3  A    between atoms: C4_5  and  C5_6 
REMARK    4  A    between atoms: C5_6  and  C6_7 
REMARK    5  A    between atoms: C6_7  and  C7_8 
REMARK    6  A    between atoms: C7_8  and  O3_10 
REMARK    7  A    between atoms: O3_10  and  C8_11 
REMARK    8  A    between atoms: C14_17  and  O4_18 
REMARK    9  A    between atoms: C21_26  and  O5_27 
ROOT
HETATM    1  C8  UNL     1       6.791   8.552  21.581  1.00  0.00     0.132 C 
HETATM    2  C9  UNL     1       7.663   7.345  21.732  1.00  0.00     0.033 C 
HETATM    3  C10 UNL     1       6.994   6.067  21.298  1.00  0.00     0.008 C 
HETATM    4  C11 UNL     1       5.997   6.384  20.216  1.00  0.00    -0.003 C 
HETATM    5  C12 UNL     1       4.880   7.193  20.759  1.00  0.00     0.021 C 
HETATM    6  C13 UNL     1       5.318   8.238  21.754  1.00  0.00     0.040 C 
HETATM    7  C14 UNL     1       3.754   6.431  21.367  1.00  0.00     0.123 C 
HETATM    8  C15 UNL     1       3.851   4.944  21.251  1.00  0.00     0.037 C 
HETATM    9  C16 UNL     1       4.343   4.490  19.895  1.00  0.00    -0.004 C 
HETATM   10  C17 UNL     1       4.521   2.988  20.034  1.00  0.00     0.032 C 
HETATM   11  C18 UNL     1       4.642   2.305  18.712  1.00  0.00    -0.023 C 
HETATM   12  C19 UNL     1       5.484   2.586  17.734  1.00  0.00    -0.071 C 
HETATM   13  C20 UNL     1       5.323   1.697  16.562  1.00  0.00     0.066 C 
HETATM   14  C21 UNL     1       6.628   0.937  16.443  1.00  0.00     0.123 C 
HETATM   15  C22 UNL     1       7.671   1.425  17.436  1.00  0.00     0.053 C 
HETATM   16  C23 UNL     1       7.821   2.941  17.358  1.00  0.00     0.097 C 
HETATM   17 CL1  UNL     1       9.126   3.437  18.435  1.00  0.00    -0.124 Cl
HETATM   18  C24 UNL     1       6.509   3.627  17.696  1.00  0.00    -0.004 C 
HETATM   19  C25 UNL     1       6.190   4.607  16.619  1.00  0.00     0.021 C 
HETATM   20  C26 UNL     1       6.716   4.308  19.035  1.00  0.00     0.020 C 
HETATM   21  C27 UNL     1       5.546   5.221  19.412  1.00  0.00    -0.005 C 
ENDROOT
BRANCH   1  22
HETATM   22  O3  UNL     1       7.213   9.548  22.452  1.00  0.00    -0.316 OA
BRANCH  22  23
HETATM   23  C7  UNL     1       7.485   9.429  23.801  1.00  0.00     0.259 C 
HETATM   24  O2  UNL     1       6.567   9.387  24.602  1.00  0.00    -0.265 OA
BRANCH  23  25
HETATM   25  C6  UNL     1       8.915   9.354  24.278  1.00  0.00     0.111 C 
BRANCH  25  26
HETATM   26  C5  UNL     1       8.959   8.166  25.203  1.00  0.00     0.010 C 
BRANCH  26  27
HETATM   27  C4  UNL     1       9.879   8.365  26.392  1.00  0.00     0.008 C 
BRANCH  27  28
HETATM   28  C3  UNL     1      11.326   8.353  25.956  1.00  0.00     0.077 C 
BRANCH  28  29
HETATM   29  C2  UNL     1      12.197   7.633  26.915  1.00  0.00     0.123 C 
HETATM   30  C1  UNL     1      13.670   7.541  26.696  1.00  0.00     0.091 C 
HETATM   31  O1  UNL     1      11.721   7.113  27.884  1.00  0.00    -0.298 OA
ENDBRANCH  28  29
ENDBRANCH  27  28
ENDBRANCH  26  27
ENDBRANCH  25  26
ENDBRANCH  23  25
ENDBRANCH  22  23
ENDBRANCH   1  22
BRANCH   7  32
HETATM   32  O4  UNL     1       3.564   6.702  22.741  1.00  0.00    -0.395 OA
ATOM     33  H4  UNL     1       3.715   5.950  23.302  1.00  0.00     0.210 HD
ENDBRANCH   7  32
BRANCH  14  34
HETATM   34  O5  UNL     1       7.096   0.884  15.153  1.00  0.00    -0.395 OA
ATOM     35  H5  UNL     1       8.006   0.614  15.103  1.00  0.00     0.210 HD
ENDBRANCH  14  34
TORSDOF 9
ENDMDL
MODEL 2
REMARK VINA RESULT: -8.296800925      1.506      1.893
REMARK  9 active torsions:
REMARK  status: ('A' for Active; 'I' for Inactive)
REMARK    1  A    between atoms: C2_2  and  C3_4 
REMARK    2  A    between atoms: C3_4  and  C4_5 
REMARK    3  A    between atoms: C4_5  and  C5_6 
REMARK    4  A    between atoms: C5_6  and  C6_7 
REMARK    5  A    between atoms: C6_7  and  C7_8 
REMARK    6  A    between atoms: C7_8  and  O3_10 
REMARK    7  A    between atoms: O3_10  and  C8_11 
REMARK    8  A    between atoms: C14_17  and  O4_18 
REMARK    9  A    between atoms: C21_26  and  O5_27 
ROOT
HETATM    1  C8  UNL     1       7.978   9.305  19.914  1.00  0.00     0.132 C 
HETATM    2  C9  UNL     1       8.574   8.022  20.401  1.00  0.00     0.033 C 
HETATM    3  C10 UNL     1       7.669   6.833  20.212  1.00  0.00     0.008 C 
HETATM    4  C11 UNL     1       6.796   7.074  19.009  1.00  0.00    -0.003 C 
HETATM    5  C12 UNL     1       5.854   8.189  19.265  1.00  0.00     0.021 C 
HETATM    6  C13 UNL     1       6.467   9.334  20.032  1.00  0.00     0.040 C 
HETATM    7  C14 UNL     1       4.575   7.827  19.935  1.00  0.00     0.123 C 
HETATM    8  C15 UNL     1       4.363   6.365  20.163  1.00  0.00     0.037 C 
HETATM    9  C16 UNL     1       4.796   5.517  18.987  1.00  0.00    -0.004 C 
HETATM   10  C17 UNL     1       4.652   4.085  19.474  1.00  0.00     0.032 C 
HETATM   11  C18 UNL     1       4.672   3.099  18.353  1.00  0.00    -0.023 C 
HETATM   12  C19 UNL     1       5.587   2.972  17.408  1.00  0.00    -0.071 C 
HETATM   13  C20 UNL     1       5.284   1.880  16.456  1.00  0.00     0.066 C 
HETATM   14  C21 UNL     1       6.404   0.875  16.616  1.00  0.00     0.123 C 
HETATM   15  C22 UNL     1       7.492   1.371  17.556  1.00  0.00     0.053 C 
HETATM   16  C23 UNL     1       7.957   2.766  17.152  1.00  0.00     0.097 C 
HETATM   17 CL1  UNL     1       9.300   3.238  18.193  1.00  0.00    -0.124 Cl
HETATM   18  C24 UNL     1       6.807   3.754  17.221  1.00  0.00    -0.004 C 
HETATM   19  C25 UNL     1       6.735   4.496  15.930  1.00  0.00     0.021 C 
HETATM   20  C26 UNL     1       7.106   4.678  18.386  1.00  0.00     0.020 C 
HETATM   21  C27 UNL     1       6.140   5.864  18.452  1.00  0.00    -0.005 C 
ENDROOT
BRANCH   1  22
HETATM   22  O3  UNL     1       8.569  10.376  20.570  1.00  0.00    -0.316 OA
BRANCH  22  23
HETATM   23  C7  UNL     1       8.164  10.971  21.749  1.00  0.00     0.259 C 
HETATM   24  O2  UNL     1       8.233  12.182  21.871  1.00  0.00    -0.265 OA
BRANCH  23  25
HETATM   25  C6  UNL     1       7.639  10.120  22.881  1.00  0.00     0.111 C 
BRANCH  25  26
HETATM   26  C5  UNL     1       8.848   9.787  23.715  1.00  0.00     0.010 C 
BRANCH  26  27
HETATM   27  C4  UNL     1       8.861   8.353  24.207  1.00  0.00     0.008 C 
BRANCH  27  28
HETATM   28  C3  UNL     1       8.549   8.291  25.684  1.00  0.00     0.077 C 
BRANCH  28  29
HETATM   29  C2  UNL     1       9.737   7.934  26.496  1.00  0.00     0.123 C 
HETATM   30  C1  UNL     1      11.056   8.590  26.256  1.00  0.00     0.091 C 
HETATM   31  O1  UNL     1       9.647   7.109  27.359  1.00  0.00    -0.298 OA
ENDBRANCH  28  29
ENDBRANCH  27  28
ENDBRANCH  26  27
ENDBRANCH  25  26
ENDBRANCH  23  25
ENDBRANCH  22  23
ENDBRANCH   1  22
BRANCH   7  32
HETATM   32  O4  UNL     1       4.400   8.446  21.193  1.00  0.00    -0.395 OA
ATOM     33  H4  UNL     1       3.498   8.451  21.493  1.00  0.00     0.210 HD
ENDBRANCH   7  32
BRANCH  14  34
HETATM   34  O5  UNL     1       6.894   0.429  15.414  1.00  0.00    -0.395 OA
ATOM     35  H5  UNL     1       7.413   1.084  14.962  1.00  0.00     0.210 HD
ENDBRANCH  14  34
TORSDOF 9
ENDMDL
MODEL 3
REMARK VINA RESULT: -8.243291605      1.615      2.366
REMARK  9 active torsions:
REMARK  status: ('A' for Active; 'I' for Inactive)
REMARK    1  A    between atoms: C2_2  and  C3_4 
REMARK    2  A    between atoms: C3_4  and  C4_5 
REMARK    3  A    between atoms: C4_5  and  C5_6 
REMARK    4  A    between atoms: C5_6  and  C6_7 
REMARK    5  A    between atoms: C6_7  and  C7_8 
REMARK    6  A    between atoms: C7_8  and  O3_10 
REMARK    7  A    between atoms: O3_10  and  C8_11 
REMARK    8  A    between atoms: C14_17  and  O4_18 
REMARK    9  A    between atoms: C21_26  and  O5_27 
ROOT
HETATM    1  C8  UNL     1       6.898   8.533  22.250  1.00  0.00     0.132 C 
HETATM    2  C9  UNL     1       6.011   7.330  22.321  1.00  0.00     0.033 C 
HETATM    3  C10 UNL     1       5.741   6.707  20.977  1.00  0.00     0.008 C 
HETATM    4  C11 UNL     1       6.921   6.961  20.077  1.00  0.00    -0.003 C 
HETATM    5  C12 UNL     1       7.041   8.406  19.772  1.00  0.00     0.021 C 
HETATM    6  C13 UNL     1       6.746   9.300  20.951  1.00  0.00     0.040 C 
HETATM    7  C14 UNL     1       6.244   8.901  18.616  1.00  0.00     0.123 C 
HETATM    8  C15 UNL     1       5.510   7.850  17.848  1.00  0.00     0.037 C 
HETATM    9  C16 UNL     1       6.327   6.594  17.641  1.00  0.00    -0.004 C 
HETATM   10  C17 UNL     1       5.364   5.612  16.994  1.00  0.00     0.032 C 
HETATM   11  C18 UNL     1       6.067   4.451  16.374  1.00  0.00    -0.023 C 
HETATM   12  C19 UNL     1       6.937   3.637  16.946  1.00  0.00    -0.071 C 
HETATM   13  C20 UNL     1       7.434   2.588  16.028  1.00  0.00     0.066 C 
HETATM   14  C21 UNL     1       6.969   1.274  16.618  1.00  0.00     0.123 C 
HETATM   15  C22 UNL     1       6.301   1.456  17.972  1.00  0.00     0.053 C 
HETATM   16  C23 UNL     1       7.184   2.281  18.902  1.00  0.00     0.097 C 
HETATM   17 CL1  UNL     1       6.421   2.353  20.490  1.00  0.00    -0.124 Cl
HETATM   18  C24 UNL     1       7.428   3.662  18.322  1.00  0.00    -0.004 C 
HETATM   19  C25 UNL     1       8.894   3.931  18.328  1.00  0.00     0.021 C 
HETATM   20  C26 UNL     1       6.673   4.636  19.206  1.00  0.00     0.020 C 
HETATM   21  C27 UNL     1       6.995   6.096  18.873  1.00  0.00    -0.005 C 
ENDROOT
BRANCH   1  22
HETATM   22  O3  UNL     1       6.680   9.342  23.357  1.00  0.00    -0.316 OA
BRANCH  22  23
HETATM   23  C7  UNL     1       6.697   8.973  24.688  1.00  0.00     0.259 C 
HETATM   24  O2  UNL     1       5.889   9.460  25.461  1.00  0.00    -0.265 OA
BRANCH  23  25
HETATM   25  C6  UNL     1       7.713   7.971  25.179  1.00  0.00     0.111 C 
BRANCH  25  26
HETATM   26  C5  UNL     1       9.028   8.706  25.165  1.00  0.00     0.010 C 
BRANCH  26  27
HETATM   27  C4  UNL     1       9.929   8.347  26.330  1.00  0.00     0.008 C 
BRANCH  27  28
HETATM   28  C3  UNL     1      11.381   8.364  25.909  1.00  0.00     0.077 C 
BRANCH  28  29
HETATM   29  C2  UNL     1      12.251   7.632  26.859  1.00  0.00     0.123 C 
HETATM   30  C1  UNL     1      13.731   7.594  26.671  1.00  0.00     0.091 C 
HETATM   31  O1  UNL     1      11.770   7.060  27.794  1.00  0.00    -0.298 OA
ENDBRANCH  28  29
ENDBRANCH  27  28
ENDBRANCH  26  27
ENDBRANCH  25  26
ENDBRANCH  23  25
ENDBRANCH  22  23
ENDBRANCH   1  22
BRANCH   7  32
HETATM   32  O4  UNL     1       5.278   9.871  18.969  1.00  0.00    -0.395 OA
ATOM     33  H4  UNL     1       5.654  10.687  19.280  1.00  0.00     0.210 HD
ENDBRANCH   7  32
BRANCH  14  34
HETATM   34  O5  UNL     1       7.954   0.317  16.628  1.00  0.00    -0.395 OA
ATOM     35  H5  UNL     1       7.626  -0.546  16.851  1.00  0.00     0.210 HD
ENDBRANCH  14  34
TORSDOF 9
ENDMDL
MODEL 4
REMARK VINA RESULT: -7.770854006      3.797      5.801
REMARK  9 active torsions:
REMARK  status: ('A' for Active; 'I' for Inactive)
REMARK    1  A    between atoms: C2_2  and  C3_4 
REMARK    2  A    between atoms: C3_4  and  C4_5 
REMARK    3  A    between atoms: C4_5  and  C5_6 
REMARK    4  A    between atoms: C5_6  and  C6_7 
REMARK    5  A    between atoms: C6_7  and  C7_8 
REMARK    6  A    between atoms: C7_8  and  O3_10 
REMARK    7  A    between atoms: O3_10  and  C8_11 
REMARK    8  A    between atoms: C14_17  and  O4_18 
REMARK    9  A    between atoms: C21_26  and  O5_27 
ROOT
HETATM    1  C8  UNL     1       2.252   5.201  22.554  1.00  0.00     0.132 C 
HETATM    2  C9  UNL     1       2.195   4.996  21.072  1.00  0.00     0.033 C 
HETATM    3  C10 UNL     1       3.528   5.172  20.394  1.00  0.00     0.008 C 
HETATM    4  C11 UNL     1       4.619   4.794  21.360  1.00  0.00    -0.003 C 
HETATM    5  C12 UNL     1       4.673   5.756  22.485  1.00  0.00     0.021 C 
HETATM    6  C13 UNL     1       3.315   6.199  22.969  1.00  0.00     0.040 C 
HETATM    7  C14 UNL     1       5.497   6.977  22.265  1.00  0.00     0.123 C 
HETATM    8  C15 UNL     1       6.250   7.017  20.974  1.00  0.00     0.037 C 
HETATM    9  C16 UNL     1       6.871   5.686  20.613  1.00  0.00    -0.004 C 
HETATM   10  C17 UNL     1       7.439   5.894  19.219  1.00  0.00     0.032 C 
HETATM   11  C18 UNL     1       8.410   4.827  18.837  1.00  0.00    -0.023 C 
HETATM   12  C19 UNL     1       8.219   3.519  18.857  1.00  0.00    -0.071 C 
HETATM   13  C20 UNL     1       9.406   2.757  18.407  1.00  0.00     0.066 C 
HETATM   14  C21 UNL     1       8.973   2.034  17.149  1.00  0.00     0.123 C 
HETATM   15  C22 UNL     1       7.490   2.211  16.864  1.00  0.00     0.053 C 
HETATM   16  C23 UNL     1       6.660   1.870  18.097  1.00  0.00     0.097 C 
HETATM   17 CL1  UNL     1       4.951   1.971  17.675  1.00  0.00    -0.124 Cl
HETATM   18  C24 UNL     1       7.018   2.787  19.253  1.00  0.00    -0.004 C 
HETATM   19  C25 UNL     1       7.310   1.953  20.454  1.00  0.00     0.021 C 
HETATM   20  C26 UNL     1       5.817   3.688  19.471  1.00  0.00     0.020 C 
HETATM   21  C27 UNL     1       5.944   4.530  20.744  1.00  0.00    -0.005 C 
ENDROOT
BRANCH   1  22
HETATM   22  O3  UNL     1       0.996   5.556  23.026  1.00  0.00    -0.316 OA
BRANCH  22  23
HETATM   23  C7  UNL     1       0.494   5.383  24.302  1.00  0.00     0.259 C 
HETATM   24  O2  UNL     1       0.296   4.257  24.727  1.00  0.00    -0.265 OA
BRANCH  23  25
HETATM   25  C6  UNL     1       0.193   6.585  25.163  1.00  0.00     0.111 C 
BRANCH  25  26
HETATM   26  C5  UNL     1      -0.172   7.680  24.195  1.00  0.00     0.010 C 
BRANCH  26  27
HETATM   27  C4  UNL     1       0.550   8.986  24.464  1.00  0.00     0.008 C 
BRANCH  27  28
HETATM   28  C3  UNL     1       1.146   8.990  25.854  1.00  0.00     0.077 C 
BRANCH  28  29
HETATM   29  C2  UNL     1       2.587   9.337  25.847  1.00  0.00     0.123 C 
HETATM   30  C1  UNL     1       3.632   8.273  25.803  1.00  0.00     0.091 C 
HETATM   31  O1  UNL     1       2.928  10.485  25.876  1.00  0.00    -0.298 OA
ENDBRANCH  28  29
ENDBRANCH  27  28
ENDBRANCH  26  27
ENDBRANCH  25  26
ENDBRANCH  23  25
ENDBRANCH  22  23
ENDBRANCH   1  22
BRANCH   7  32
HETATM   32  O4  UNL     1       4.754   8.178  22.320  1.00  0.00    -0.395 OA
ATOM     33  H4  UNL     1       4.311   8.388  21.507  1.00  0.00     0.210 HD
ENDBRANCH   7  32
BRANCH  14  34
HETATM   34  O5  UNL     1       9.372   0.720  17.127  1.00  0.00    -0.395 OA
ATOM     35  H5  UNL     1       8.655   0.121  16.952  1.00  0.00     0.210 HD
ENDBRANCH  14  34
TORSDOF 9
ENDMDL
MODEL 5
REMARK VINA RESULT: -7.763408488      2.366      3.109
REMARK  9 active torsions:
REMARK  status: ('A' for Active; 'I' for Inactive)
REMARK    1  A    between atoms: C2_2  and  C3_4 
REMARK    2  A    between atoms: C3_4  and  C4_5 
REMARK    3  A    between atoms: C4_5  and  C5_6 
REMARK    4  A    between atoms: C5_6  and  C6_7 
REMARK    5  A    between atoms: C6_7  and  C7_8 
REMARK    6  A    between atoms: C7_8  and  O3_10 
REMARK    7  A    between atoms: O3_10  and  C8_11 
REMARK    8  A    between atoms: C14_17  and  O4_18 
REMARK    9  A    between atoms: C21_26  and  O5_27 
ROOT
HETATM    1  C8  UNL     1       7.951   9.346  19.716  1.00  0.00     0.132 C 
HETATM    2  C9  UNL     1       8.586   8.111  20.274  1.00  0.00     0.033 C 
HETATM    3  C10 UNL     1       7.725   6.883  20.132  1.00  0.00     0.008 C 
HETATM    4  C11 UNL     1       6.861   7.033  18.909  1.00  0.00    -0.003 C 
HETATM    5  C12 UNL     1       5.877   8.125  19.098  1.00  0.00     0.021 C 
HETATM    6  C13 UNL     1       6.439   9.327  19.815  1.00  0.00     0.040 C 
HETATM    7  C14 UNL     1       4.602   7.750  19.769  1.00  0.00     0.123 C 
HETATM    8  C15 UNL     1       4.440   6.294  20.066  1.00  0.00     0.037 C 
HETATM    9  C16 UNL     1       4.918   5.406  18.940  1.00  0.00    -0.004 C 
HETATM   10  C17 UNL     1       4.818   3.995  19.495  1.00  0.00     0.032 C 
HETATM   11  C18 UNL     1       4.888   2.957  18.424  1.00  0.00    -0.023 C 
HETATM   12  C19 UNL     1       5.820   2.817  17.498  1.00  0.00    -0.071 C 
HETATM   13  C20 UNL     1       5.569   1.669  16.597  1.00  0.00     0.066 C 
HETATM   14  C21 UNL     1       6.722   0.714  16.820  1.00  0.00     0.123 C 
HETATM   15  C22 UNL     1       7.778   1.294  17.747  1.00  0.00     0.053 C 
HETATM   16  C23 UNL     1       8.200   2.684  17.281  1.00  0.00     0.097 C 
HETATM   17 CL1  UNL     1       9.510   3.254  18.313  1.00  0.00    -0.124 Cl
HETATM   18  C24 UNL     1       7.014   3.632  17.287  1.00  0.00    -0.004 C 
HETATM   19  C25 UNL     1       6.934   4.307  15.960  1.00  0.00     0.021 C 
HETATM   20  C26 UNL     1       7.265   4.622  18.408  1.00  0.00     0.020 C 
HETATM   21  C27 UNL     1       6.256   5.774  18.404  1.00  0.00    -0.005 C 
ENDROOT
BRANCH   1  22
HETATM   22  O3  UNL     1       8.495  10.469  20.326  1.00  0.00    -0.316 OA
BRANCH  22  23
HETATM   23  C7  UNL     1       8.147  11.019  21.544  1.00  0.00     0.259 C 
HETATM   24  O2  UNL     1       8.436  12.178  21.790  1.00  0.00    -0.265 OA
BRANCH  23  25
HETATM   25  C6  UNL     1       7.412  10.185  22.566  1.00  0.00     0.111 C 
BRANCH  25  26
HETATM   26  C5  UNL     1       8.486   9.626  23.462  1.00  0.00     0.010 C 
BRANCH  26  27
HETATM   27  C4  UNL     1       7.995   8.510  24.363  1.00  0.00     0.008 C 
BRANCH  27  28
HETATM   28  C3  UNL     1       6.946   7.679  23.661  1.00  0.00     0.077 C 
BRANCH  28  29
HETATM   29  C2  UNL     1       5.627   7.752  24.334  1.00  0.00     0.123 C 
HETATM   30  C1  UNL     1       4.543   6.780  24.005  1.00  0.00     0.091 C 
HETATM   31  O1  UNL     1       5.419   8.599  25.154  1.00  0.00    -0.298 OA
ENDBRANCH  28  29
ENDBRANCH  27  28
ENDBRANCH  26  27
ENDBRANCH  25  26
ENDBRANCH  23  25
ENDBRANCH  22  23
ENDBRANCH   1  22
BRANCH   7  32
HETATM   32  O4  UNL     1       4.388   8.423  20.993  1.00  0.00    -0.395 OA
ATOM     33  H4  UNL     1       3.502   8.749  21.098  1.00  0.00     0.210 HD
ENDBRANCH   7  32
BRANCH  14  34
HETATM   34  O5  UNL     1       7.244   0.227  15.647  1.00  0.00    -0.395 OA
ATOM     35  H5  UNL     1       7.374   0.904  14.993  1.00  0.00     0.210 HD
ENDBRANCH  14  34
TORSDOF 9
ENDMDL
