MODEL 1
REMARK VINA RESULT: -7.609542537      0.000      0.000
REMARK  7 active torsions:
REMARK  status: ('A' for Active; 'I' for Inactive)
REMARK    1  A    between atoms: C2_2  and  C3_3 
REMARK    2  A    between atoms: C8_8  and  C9_9 
REMARK    3  A    between atoms: C9_9  and  S1_11 
REMARK    4  A    between atoms: S1_11  and  C11_12 
REMARK    5  A    between atoms: C14_17  and  C15_18 
REMARK    6  A    between atoms: C17_21  and  O1_22 
REMARK    7  A    between atoms: C18_24  and  O2_25 
ROOT
HETATM    1  C11 UNL     1       8.251   8.532  24.155  1.00  0.00     0.197 C 
HETATM    2  C12 UNL     1       9.580   9.091  24.230  1.00  0.00     0.069 C 
HETATM    3  N1  UNL     1      10.647   9.515  24.297  1.00  0.00    -0.197 NA
ENDROOT
BRANCH   1   4
HETATM    4  S1  UNL     1       7.343   8.827  22.665  1.00  0.00    -0.150 SA
BRANCH   4   5
HETATM    5  C9  UNL     1       7.904   7.873  21.212  1.00  0.00     0.050 C 
HETATM    6  C10 UNL     1       8.521   8.958  20.299  1.00  0.00     0.022 C 
BRANCH   5   7
HETATM    7  C8  UNL     1       6.769   7.314  20.439  1.00  0.00     0.023 C 
HETATM    8  C7  UNL     1       6.874   5.957  19.864  1.00  0.00     0.018 C 
HETATM    9  C6  UNL     1       8.218   5.315  19.920  1.00  0.00     0.008 C 
HETATM   10  C16 UNL     1       6.503   6.108  18.391  1.00  0.00     0.125 C 
HETATM   11  C5  UNL     1       7.955   3.833  19.920  1.00  0.00     0.014 C 
HETATM   12  C3  UNL     1       7.887   3.175  18.601  1.00  0.00    -0.020 C 
HETATM   13  C4  UNL     1       7.388   1.761  18.978  1.00  0.00     0.020 C 
HETATM   14  C23 UNL     1       7.115   3.773  17.503  1.00  0.00     0.040 C 
HETATM   15  C17 UNL     1       6.206   4.903  17.638  1.00  0.00     0.109 C 
HETATM   16  C21 UNL     1       6.404   2.739  16.605  1.00  0.00    -0.010 C 
HETATM   17  C18 UNL     1       6.006   5.359  16.167  1.00  0.00     0.155 C 
HETATM   18  C19 UNL     1       4.861   4.560  15.680  1.00  0.00     0.035 C 
HETATM   19  C20 UNL     1       5.151   3.125  15.957  1.00  0.00     0.007 C 
HETATM   20  C22 UNL     1       7.363   2.174  15.549  1.00  0.00     0.010 C 
HETATM   21  N2  UNL     1       5.653   7.180  18.421  1.00  0.00    -0.384 N 
HETATM   22  C13 UNL     1       6.336   8.155  19.252  1.00  0.00     0.128 C 
HETATM   23  C14 UNL     1       4.303   7.284  18.493  1.00  0.00     0.069 C 
BRANCH  12  24
HETATM   24  C2  UNL     1       9.344   2.915  18.255  1.00  0.00    -0.027 C 
HETATM   25  C1  UNL     1       9.885   1.735  18.253  1.00  0.00     0.007 C 
ENDBRANCH  12  24
BRANCH  15  26
HETATM   26  O1  UNL     1       4.983   4.393  18.140  1.00  0.00    -0.385 OA
ATOM     27  H1  UNL     1       4.769   3.626  17.621  1.00  0.00     0.210 HD
ENDBRANCH  15  26
BRANCH  17  28
HETATM   28  O2  UNL     1       5.994   6.697  15.979  1.00  0.00    -0.392 OA
ATOM     29  H2  UNL     1       6.678   7.174  16.436  1.00  0.00     0.210 HD
ENDBRANCH  17  28
BRANCH  23  30
HETATM   30  C15 UNL     1       3.538   6.969  19.743  1.00  0.00     0.129 C 
HETATM   31 BR1  UNL     1       2.665   8.655  20.259  1.00  0.00    -0.091 Br
ENDBRANCH  23  30
ENDBRANCH   5   7
ENDBRANCH   4   5
ENDBRANCH   1   4
TORSDOF 7
ENDMDL
MODEL 2
REMARK VINA RESULT: -7.305644629      2.019      2.258
REMARK  7 active torsions:
REMARK  status: ('A' for Active; 'I' for Inactive)
REMARK    1  A    between atoms: C2_2  and  C3_3 
REMARK    2  A    between atoms: C8_8  and  C9_9 
REMARK    3  A    between atoms: C9_9  and  S1_11 
REMARK    4  A    between atoms: S1_11  and  C11_12 
REMARK    5  A    between atoms: C14_17  and  C15_18 
REMARK    6  A    between atoms: C17_21  and  O1_22 
REMARK    7  A    between atoms: C18_24  and  O2_25 
ROOT
HETATM    1  C11 UNL     1       8.202   8.123  23.513  1.00  0.00     0.197 C 
HETATM    2  C12 UNL     1       7.115   8.752  24.226  1.00  0.00     0.069 C 
HETATM    3  N1  UNL     1       6.262   9.252  24.815  1.00  0.00    -0.197 NA
ENDROOT
BRANCH   1   4
HETATM    4  S1  UNL     1       8.674   8.853  21.972  1.00  0.00    -0.150 SA
BRANCH   4   5
HETATM    5  C9  UNL     1       8.194   7.908  20.485  1.00  0.00     0.050 C 
HETATM    6  C10 UNL     1       7.651   9.001  19.536  1.00  0.00     0.022 C 
BRANCH   5   7
HETATM    7  C8  UNL     1       7.043   7.009  20.741  1.00  0.00     0.023 C 
HETATM    8  C7  UNL     1       7.045   5.641  20.184  1.00  0.00     0.018 C 
HETATM    9  C6  UNL     1       8.124   5.325  19.206  1.00  0.00     0.008 C 
HETATM   10  C16 UNL     1       5.713   5.497  19.453  1.00  0.00     0.125 C 
HETATM   11  C5  UNL     1       8.328   3.837  19.300  1.00  0.00     0.014 C 
HETATM   12  C3  UNL     1       7.508   3.000  18.403  1.00  0.00    -0.020 C 
HETATM   13  C4  UNL     1       7.810   1.578  18.932  1.00  0.00     0.020 C 
HETATM   14  C23 UNL     1       6.068   3.252  18.249  1.00  0.00     0.040 C 
HETATM   15  C17 UNL     1       5.286   4.162  19.074  1.00  0.00     0.109 C 
HETATM   16  C21 UNL     1       5.225   1.971  18.082  1.00  0.00    -0.010 C 
HETATM   17  C18 UNL     1       3.989   4.350  18.241  1.00  0.00     0.155 C 
HETATM   18  C19 UNL     1       3.097   3.259  18.685  1.00  0.00     0.035 C 
HETATM   19  C20 UNL     1       3.847   1.976  18.572  1.00  0.00     0.007 C 
HETATM   20  C22 UNL     1       5.240   1.487  16.627  1.00  0.00     0.010 C 
HETATM   21  N2  UNL     1       4.908   6.350  20.159  1.00  0.00    -0.384 N 
HETATM   22  C13 UNL     1       5.700   7.558  20.297  1.00  0.00     0.128 C 
HETATM   23  C14 UNL     1       4.051   6.163  21.194  1.00  0.00     0.069 C 
BRANCH  12  24
HETATM   24  C2  UNL     1       8.278   3.021  17.093  1.00  0.00    -0.027 C 
HETATM   25  C1  UNL     1       8.929   2.000  16.623  1.00  0.00     0.007 C 
ENDBRANCH  12  24
BRANCH  15  26
HETATM   26  O1  UNL     1       4.975   3.472  20.272  1.00  0.00    -0.385 OA
ATOM     27  H1  UNL     1       4.715   2.592  20.025  1.00  0.00     0.210 HD
ENDBRANCH  15  26
BRANCH  17  28
HETATM   28  O2  UNL     1       3.509   5.613  18.206  1.00  0.00    -0.392 OA
ATOM     29  H2  UNL     1       2.745   5.738  17.655  1.00  0.00     0.210 HD
ENDBRANCH  17  28
BRANCH  23  30
HETATM   30  C15 UNL     1       4.525   5.868  22.586  1.00  0.00     0.129 C 
HETATM   31 BR1  UNL     1       3.408   6.979  23.764  1.00  0.00    -0.091 Br
ENDBRANCH  23  30
ENDBRANCH   5   7
ENDBRANCH   4   5
ENDBRANCH   1   4
TORSDOF 7
ENDMDL
MODEL 3
REMARK VINA RESULT: -7.273118624      1.215      1.326
REMARK  7 active torsions:
REMARK  status: ('A' for Active; 'I' for Inactive)
REMARK    1  A    between atoms: C2_2  and  C3_3 
REMARK    2  A    between atoms: C8_8  and  C9_9 
REMARK    3  A    between atoms: C9_9  and  S1_11 
REMARK    4  A    between atoms: S1_11  and  C11_12 
REMARK    5  A    between atoms: C14_17  and  C15_18 
REMARK    6  A    between atoms: C17_21  and  O1_22 
REMARK    7  A    between atoms: C18_24  and  O2_25 
ROOT
HETATM    1  C11 UNL     1       7.240   8.591  24.148  1.00  0.00     0.197 C 
HETATM    2  C12 UNL     1       6.100   7.781  24.510  1.00  0.00     0.069 C 
HETATM    3  N1  UNL     1       5.189   7.150  24.818  1.00  0.00    -0.197 NA
ENDROOT
BRANCH   1   4
HETATM    4  S1  UNL     1       7.307   9.178  22.480  1.00  0.00    -0.150 SA
BRANCH   4   5
HETATM    5  C9  UNL     1       7.862   7.952  21.246  1.00  0.00     0.050 C 
HETATM    6  C10 UNL     1       8.665   8.807  20.239  1.00  0.00     0.022 C 
BRANCH   5   7
HETATM    7  C8  UNL     1       6.732   7.392  20.467  1.00  0.00     0.023 C 
HETATM    8  C7  UNL     1       6.836   6.031  19.902  1.00  0.00     0.018 C 
HETATM    9  C6  UNL     1       8.176   5.384  19.973  1.00  0.00     0.008 C 
HETATM   10  C16 UNL     1       6.478   6.174  18.425  1.00  0.00     0.125 C 
HETATM   11  C5  UNL     1       7.907   3.903  19.980  1.00  0.00     0.014 C 
HETATM   12  C3  UNL     1       7.848   3.237  18.665  1.00  0.00    -0.020 C 
HETATM   13  C4  UNL     1       7.339   1.827  19.046  1.00  0.00     0.020 C 
HETATM   14  C23 UNL     1       7.088   3.831  17.556  1.00  0.00     0.040 C 
HETATM   15  C17 UNL     1       6.183   4.966  17.677  1.00  0.00     0.109 C 
HETATM   16  C21 UNL     1       6.380   2.795  16.659  1.00  0.00    -0.010 C 
HETATM   17  C18 UNL     1       5.996   5.414  16.201  1.00  0.00     0.155 C 
HETATM   18  C19 UNL     1       4.853   4.617  15.709  1.00  0.00     0.035 C 
HETATM   19  C20 UNL     1       5.134   3.182  15.998  1.00  0.00     0.007 C 
HETATM   20  C22 UNL     1       7.345   2.220  15.615  1.00  0.00     0.010 C 
HETATM   21  N2  UNL     1       5.632   7.251  18.441  1.00  0.00    -0.384 N 
HETATM   22  C13 UNL     1       6.312   8.227  19.272  1.00  0.00     0.128 C 
HETATM   23  C14 UNL     1       4.282   7.360  18.500  1.00  0.00     0.069 C 
BRANCH  12  24
HETATM   24  C2  UNL     1       9.307   2.969  18.333  1.00  0.00    -0.027 C 
HETATM   25  C1  UNL     1       9.833   1.782  18.304  1.00  0.00     0.007 C 
ENDBRANCH  12  24
BRANCH  15  26
HETATM   26  O1  UNL     1       4.953   4.464  18.171  1.00  0.00    -0.385 OA
ATOM     27  H1  UNL     1       4.670   3.785  17.571  1.00  0.00     0.210 HD
ENDBRANCH  15  26
BRANCH  17  28
HETATM   28  O2  UNL     1       5.993   6.751  16.005  1.00  0.00    -0.392 OA
ATOM     29  H2  UNL     1       5.152   7.174  16.135  1.00  0.00     0.210 HD
ENDBRANCH  17  28
BRANCH  23  30
HETATM   30  C15 UNL     1       3.505   7.057  19.746  1.00  0.00     0.129 C 
HETATM   31 BR1  UNL     1       2.641   8.751  20.248  1.00  0.00    -0.091 Br
ENDBRANCH  23  30
ENDBRANCH   5   7
ENDBRANCH   4   5
ENDBRANCH   1   4
TORSDOF 7
ENDMDL
MODEL 4
REMARK VINA RESULT: -7.162419739      1.406      1.608
REMARK  7 active torsions:
REMARK  status: ('A' for Active; 'I' for Inactive)
REMARK    1  A    between atoms: C2_2  and  C3_3 
REMARK    2  A    between atoms: C8_8  and  C9_9 
REMARK    3  A    between atoms: C9_9  and  S1_11 
REMARK    4  A    between atoms: S1_11  and  C11_12 
REMARK    5  A    between atoms: C14_17  and  C15_18 
REMARK    6  A    between atoms: C17_21  and  O1_22 
REMARK    7  A    between atoms: C18_24  and  O2_25 
ROOT
HETATM    1  C11 UNL     1       7.389  11.178  20.577  1.00  0.00     0.197 C 
HETATM    2  C12 UNL     1       7.984  12.380  21.113  1.00  0.00     0.069 C 
HETATM    3  N1  UNL     1       8.440  13.350  21.530  1.00  0.00    -0.197 NA
ENDROOT
BRANCH   1   4
HETATM    4  S1  UNL     1       7.301   9.780  21.659  1.00  0.00    -0.150 SA
BRANCH   4   5
HETATM    5  C9  UNL     1       7.778   8.185  20.908  1.00  0.00     0.050 C 
HETATM    6  C10 UNL     1       8.808   8.599  19.832  1.00  0.00     0.022 C 
BRANCH   5   7
HETATM    7  C8  UNL     1       6.660   7.564  20.157  1.00  0.00     0.023 C 
HETATM    8  C7  UNL     1       6.776   6.166  19.696  1.00  0.00     0.018 C 
HETATM    9  C6  UNL     1       8.118   5.532  19.832  1.00  0.00     0.008 C 
HETATM   10  C16 UNL     1       6.437   6.198  18.208  1.00  0.00     0.125 C 
HETATM   11  C5  UNL     1       7.854   4.054  19.945  1.00  0.00     0.014 C 
HETATM   12  C3  UNL     1       7.814   3.293  18.682  1.00  0.00    -0.020 C 
HETATM   13  C4  UNL     1       7.305   1.913  19.160  1.00  0.00     0.020 C 
HETATM   14  C23 UNL     1       7.066   3.800  17.523  1.00  0.00     0.040 C 
HETATM   15  C17 UNL     1       6.156   4.936  17.548  1.00  0.00     0.109 C 
HETATM   16  C21 UNL     1       6.374   2.697  16.696  1.00  0.00    -0.010 C 
HETATM   17  C18 UNL     1       5.987   5.273  16.041  1.00  0.00     0.155 C 
HETATM   18  C19 UNL     1       4.853   4.437  15.595  1.00  0.00     0.035 C 
HETATM   19  C20 UNL     1       5.135   3.028  15.992  1.00  0.00     0.007 C 
HETATM   20  C22 UNL     1       7.355   2.050  15.709  1.00  0.00     0.010 C 
HETATM   21  N2  UNL     1       5.588   7.269  18.133  1.00  0.00    -0.384 N 
HETATM   22  C13 UNL     1       6.253   8.307  18.898  1.00  0.00     0.128 C 
HETATM   23  C14 UNL     1       4.236   7.376  18.167  1.00  0.00     0.069 C 
BRANCH  12  24
HETATM   24  C2  UNL     1       9.278   3.007  18.390  1.00  0.00    -0.027 C 
HETATM   25  C1  UNL     1       9.798   1.817  18.408  1.00  0.00     0.007 C 
ENDBRANCH  12  24
BRANCH  15  26
HETATM   26  O1  UNL     1       4.921   4.467  18.062  1.00  0.00    -0.385 OA
ATOM     27  H1  UNL     1       4.366   5.228  18.187  1.00  0.00     0.210 HD
ENDBRANCH  15  26
BRANCH  17  28
HETATM   28  O2  UNL     1       5.982   6.592  15.746  1.00  0.00    -0.392 OA
ATOM     29  H2  UNL     1       5.152   6.929  15.426  1.00  0.00     0.210 HD
ENDBRANCH  17  28
BRANCH  23  30
HETATM   30  C15 UNL     1       3.444   7.163  19.422  1.00  0.00     0.129 C 
HETATM   31 BR1  UNL     1       2.625   8.905  19.826  1.00  0.00    -0.091 Br
ENDBRANCH  23  30
ENDBRANCH   5   7
ENDBRANCH   4   5
ENDBRANCH   1   4
TORSDOF 7
ENDMDL
MODEL 5
REMARK VINA RESULT: -6.989621214      2.135      2.426
REMARK  7 active torsions:
REMARK  status: ('A' for Active; 'I' for Inactive)
REMARK    1  A    between atoms: C2_2  and  C3_3 
REMARK    2  A    between atoms: C8_8  and  C9_9 
REMARK    3  A    between atoms: C9_9  and  S1_11 
REMARK    4  A    between atoms: S1_11  and  C11_12 
REMARK    5  A    between atoms: C14_17  and  C15_18 
REMARK    6  A    between atoms: C17_21  and  O1_22 
REMARK    7  A    between atoms: C18_24  and  O2_25 
ROOT
HETATM    1  C11 UNL     1       8.534   8.358  24.939  1.00  0.00     0.197 C 
HETATM    2  C12 UNL     1       9.766   9.049  24.641  1.00  0.00     0.069 C 
HETATM    3  N1  UNL     1      10.760   9.578  24.404  1.00  0.00    -0.197 NA
ENDROOT
BRANCH   1   4
HETATM    4  S1  UNL     1       7.122   8.784  23.960  1.00  0.00    -0.150 SA
BRANCH   4   5
HETATM    5  C9  UNL     1       7.083   8.045  22.290  1.00  0.00     0.050 C 
HETATM    6  C10 UNL     1       6.697   9.240  21.388  1.00  0.00     0.022 C 
BRANCH   5   7
HETATM    7  C8  UNL     1       5.978   7.069  22.137  1.00  0.00     0.023 C 
HETATM    8  C7  UNL     1       6.221   5.793  21.435  1.00  0.00     0.018 C 
HETATM    9  C6  UNL     1       7.528   5.662  20.730  1.00  0.00     0.008 C 
HETATM   10  C16 UNL     1       5.123   5.691  20.380  1.00  0.00     0.125 C 
HETATM   11  C5  UNL     1       7.817   4.186  20.690  1.00  0.00     0.014 C 
HETATM   12  C3  UNL     1       7.309   3.445  19.521  1.00  0.00    -0.020 C 
HETATM   13  C4  UNL     1       7.581   1.979  19.931  1.00  0.00     0.020 C 
HETATM   14  C23 UNL     1       5.935   3.651  19.040  1.00  0.00     0.040 C 
HETATM   15  C17 UNL     1       4.907   4.403  19.746  1.00  0.00     0.109 C 
HETATM   16  C21 UNL     1       5.260   2.368  18.512  1.00  0.00    -0.010 C 
HETATM   17  C18 UNL     1       3.842   4.646  18.643  1.00  0.00     0.155 C 
HETATM   18  C19 UNL     1       2.955   3.465  18.711  1.00  0.00     0.035 C 
HETATM   19  C20 UNL     1       3.808   2.245  18.635  1.00  0.00     0.007 C 
HETATM   20  C22 UNL     1       5.666   2.091  17.059  1.00  0.00     0.010 C 
HETATM   21  N2  UNL     1       4.107   6.401  20.960  1.00  0.00    -0.384 N 
HETATM   22  C13 UNL     1       4.745   7.614  21.439  1.00  0.00     0.128 C 
HETATM   23  C14 UNL     1       3.041   6.036  21.715  1.00  0.00     0.069 C 
BRANCH  12  24
HETATM   24  C2  UNL     1       8.371   3.680  18.459  1.00  0.00    -0.027 C 
HETATM   25  C1  UNL     1       9.398   2.906  18.283  1.00  0.00     0.007 C 
ENDBRANCH  12  24
BRANCH  15  26
HETATM   26  O1  UNL     1       4.368   3.542  20.734  1.00  0.00    -0.385 OA
ATOM     27  H1  UNL     1       3.967   4.094  21.395  1.00  0.00     0.210 HD
ENDBRANCH  15  26
BRANCH  17  28
HETATM   28  O2  UNL     1       3.288   5.878  18.642  1.00  0.00    -0.392 OA
ATOM     29  H2  UNL     1       3.710   6.510  18.071  1.00  0.00     0.210 HD
ENDBRANCH  17  28
BRANCH  23  30
HETATM   30  C15 UNL     1       3.182   5.574  23.134  1.00  0.00     0.129 C 
HETATM   31 BR1  UNL     1       2.146   6.857  24.206  1.00  0.00    -0.091 Br
ENDBRANCH  23  30
ENDBRANCH   5   7
ENDBRANCH   4   5
ENDBRANCH   1   4
TORSDOF 7
ENDMDL
