MODEL 1
REMARK VINA RESULT: -5.309744467      0.000      0.000
REMARK  1 active torsions:
REMARK  status: ('A' for Active; 'I' for Inactive)
REMARK    1  A    between atoms: C1_2  and  C2_4 
ROOT
HETATM    1  C2  UNL     1      22.754  22.191  28.719  1.00  0.00     0.174 A 
HETATM    2  N2  UNL     1      22.958  21.532  27.565  1.00  0.00    -0.304 N 
ATOM      3  H2  UNL     1      22.142  21.318  26.990  1.00  0.00     0.171 HD
HETATM    4  C3  UNL     1      24.161  21.135  27.117  1.00  0.00     0.272 A 
HETATM    5  O2  UNL     1      24.299  20.517  26.021  1.00  0.00    -0.266 OA
HETATM    6  C4  UNL     1      25.276  21.415  27.879  1.00  0.00     0.129 A 
HETATM    7  N3  UNL     1      26.564  21.017  27.448  1.00  0.00    -0.095 NA
HETATM    8  C5  UNL     1      25.057  22.093  29.066  1.00  0.00     0.122 A 
HETATM    9  N4  UNL     1      23.834  22.469  29.471  1.00  0.00    -0.346 N 
ATOM     10  H4  UNL     1      23.723  22.967  30.355  1.00  0.00     0.167 HD
ENDROOT
BRANCH   1  11
HETATM   11  C1  UNL     1      21.411  22.591  29.141  1.00  0.00     0.298 C 
HETATM   12  N1  UNL     1      20.421  22.990  28.219  1.00  0.00    -0.054 NA
HETATM   13  O1  UNL     1      21.124  22.581  30.362  1.00  0.00    -0.268 OA
ENDBRANCH   1  11
TORSDOF 1
ENDMDL
MODEL 2
REMARK VINA RESULT: -5.031357618      1.569      4.590
REMARK  1 active torsions:
REMARK  status: ('A' for Active; 'I' for Inactive)
REMARK    1  A    between atoms: C1_2  and  C2_4 
ROOT
HETATM    1  C2  UNL     1      23.342  21.056  28.133  1.00  0.00     0.174 A 
HETATM    2  N2  UNL     1      23.506  21.733  29.283  1.00  0.00    -0.304 N 
ATOM      3  H2  UNL     1      24.418  22.156  29.459  1.00  0.00     0.171 HD
HETATM    4  C3  UNL     1      22.552  21.892  30.216  1.00  0.00     0.272 A 
HETATM    5  O2  UNL     1      22.759  22.541  31.283  1.00  0.00    -0.266 OA
HETATM    6  C4  UNL     1      21.313  21.328  29.998  1.00  0.00     0.129 A 
HETATM    7  N3  UNL     1      20.277  21.469  30.952  1.00  0.00    -0.095 NA
HETATM    8  C5  UNL     1      21.152  20.632  28.812  1.00  0.00     0.122 A 
HETATM    9  N4  UNL     1      22.137  20.501  27.910  1.00  0.00    -0.346 N 
ATOM     10  H4  UNL     1      21.971  19.978  27.049  1.00  0.00     0.167 HD
ENDROOT
BRANCH   1  11
HETATM   11  C1  UNL     1      24.430  20.925  27.164  1.00  0.00     0.298 C 
HETATM   12  N1  UNL     1      25.778  21.154  27.511  1.00  0.00    -0.054 NA
HETATM   13  O1  UNL     1      24.163  20.600  25.982  1.00  0.00    -0.268 OA
ENDBRANCH   1  11
TORSDOF 1
ENDMDL
MODEL 3
REMARK VINA RESULT: -5.016599388      1.580      4.414
REMARK  1 active torsions:
REMARK  status: ('A' for Active; 'I' for Inactive)
REMARK    1  A    between atoms: C1_2  and  C2_4 
ROOT
HETATM    1  C2  UNL     1      23.209  21.381  27.565  1.00  0.00     0.174 A 
HETATM    2  N2  UNL     1      22.191  20.560  27.875  1.00  0.00    -0.304 N 
ATOM      3  H2  UNL     1      22.291  19.571  27.645  1.00  0.00     0.171 HD
HETATM    4  C3  UNL     1      21.050  20.952  28.468  1.00  0.00     0.272 A 
HETATM    5  O2  UNL     1      20.120  20.137  28.739  1.00  0.00    -0.266 OA
HETATM    6  C4  UNL     1      20.894  22.284  28.787  1.00  0.00     0.129 A 
HETATM    7  N3  UNL     1      19.710  22.744  29.411  1.00  0.00    -0.095 NA
HETATM    8  C5  UNL     1      21.947  23.123  28.463  1.00  0.00     0.122 A 
HETATM    9  N4  UNL     1      23.068  22.683  27.871  1.00  0.00    -0.346 N 
ATOM     10  H4  UNL     1      23.818  23.340  27.652  1.00  0.00     0.167 HD
ENDROOT
BRANCH   1  11
HETATM   11  C1  UNL     1      24.422  20.879  26.919  1.00  0.00     0.298 C 
HETATM   12  N1  UNL     1      25.710  21.132  27.438  1.00  0.00    -0.054 NA
HETATM   13  O1  UNL     1      24.323  20.202  25.868  1.00  0.00    -0.268 OA
ENDBRANCH   1  11
TORSDOF 1
ENDMDL
MODEL 4
REMARK VINA RESULT: -4.990259621      1.639      4.364
REMARK  1 active torsions:
REMARK  status: ('A' for Active; 'I' for Inactive)
REMARK    1  A    between atoms: C1_2  and  C2_4 
ROOT
HETATM    1  C2  UNL     1      23.343  21.055  28.158  1.00  0.00     0.174 A 
HETATM    2  N2  UNL     1      22.232  21.763  27.892  1.00  0.00    -0.304 N 
ATOM      3  H2  UNL     1      22.159  22.208  26.976  1.00  0.00     0.171 HD
HETATM    4  C3  UNL     1      21.210  21.926  28.749  1.00  0.00     0.272 A 
HETATM    5  O2  UNL     1      20.183  22.603  28.448  1.00  0.00    -0.266 OA
HETATM    6  C4  UNL     1      21.288  21.334  29.991  1.00  0.00     0.129 A 
HETATM    7  N3  UNL     1      20.236  21.477  30.927  1.00  0.00    -0.095 NA
HETATM    8  C5  UNL     1      22.436  20.607  30.258  1.00  0.00     0.122 A 
HETATM    9  N4  UNL     1      23.431  20.474  29.367  1.00  0.00    -0.346 N 
ATOM     10  H4  UNL     1      24.259  19.928  29.609  1.00  0.00     0.167 HD
ENDROOT
BRANCH   1  11
HETATM   11  C1  UNL     1      24.417  20.923  27.171  1.00  0.00     0.298 C 
HETATM   12  N1  UNL     1      25.769  21.158  27.497  1.00  0.00    -0.054 NA
HETATM   13  O1  UNL     1      24.132  20.591  25.996  1.00  0.00    -0.268 OA
ENDBRANCH   1  11
TORSDOF 1
ENDMDL
MODEL 5
REMARK VINA RESULT: -4.989042743      1.888      2.063
REMARK  1 active torsions:
REMARK  status: ('A' for Active; 'I' for Inactive)
REMARK    1  A    between atoms: C1_2  and  C2_4 
ROOT
HETATM    1  C2  UNL     1      21.440  21.690  28.879  1.00  0.00     0.174 A 
HETATM    2  N2  UNL     1      21.574  20.490  28.289  1.00  0.00    -0.304 N 
ATOM      3  H2  UNL     1      20.860  19.786  28.478  1.00  0.00     0.171 HD
HETATM    4  C3  UNL     1      22.584  20.153  27.469  1.00  0.00     0.272 A 
HETATM    5  O2  UNL     1      22.663  19.007  26.938  1.00  0.00    -0.266 OA
HETATM    6  C4  UNL     1      23.560  21.090  27.202  1.00  0.00     0.129 A 
HETATM    7  N3  UNL     1      24.642  20.780  26.344  1.00  0.00    -0.095 NA
HETATM    8  C5  UNL     1      23.415  22.323  27.814  1.00  0.00     0.122 A 
HETATM    9  N4  UNL     1      22.386  22.612  28.627  1.00  0.00    -0.346 N 
ATOM     10  H4  UNL     1      22.322  23.536  29.055  1.00  0.00     0.167 HD
ENDROOT
BRANCH   1  11
HETATM   11  C1  UNL     1      20.310  21.984  29.762  1.00  0.00     0.298 C 
HETATM   12  N1  UNL     1      20.147  21.347  31.010  1.00  0.00    -0.054 NA
HETATM   13  O1  UNL     1      19.455  22.827  29.404  1.00  0.00    -0.268 OA
ENDBRANCH   1  11
TORSDOF 1
ENDMDL
