MODEL 1
REMARK VINA RESULT: -7.921237932      0.000      0.000
REMARK  8 active torsions:
REMARK  status: ('A' for Active; 'I' for Inactive)
REMARK    1  A    between atoms: N2_8  and  C7_9 
REMARK    2  A    between atoms: C7_9  and  C8_10 
REMARK    3  A    between atoms: C8_10  and  C9_11 
REMARK    4  A    between atoms: C9_11  and  N3_12 
REMARK    5  A    between atoms: C9_11  and  C10_16 
REMARK    6  A    between atoms: C9_11  and  C11_19 
REMARK    7  A    between atoms: C10_16  and  O1_17 
REMARK    8  A    between atoms: C11_19  and  N4_20 
ROOT
HETATM    1  C9  UNL     1      -7.839  12.744  23.360  1.00  0.00     0.173 C 
ENDROOT
BRANCH   1   2
HETATM    2  C8  UNL     1      -8.181  11.316  22.778  1.00  0.00     0.064 C 
BRANCH   2   3
HETATM    3  C7  UNL     1      -8.069  11.314  21.287  1.00  0.00     0.151 C 
BRANCH   3   4
HETATM    4  N2  UNL     1      -7.941   9.920  20.849  1.00  0.00    -0.295 N 
HETATM    5  C2  UNL     1      -6.709   9.428  20.646  1.00  0.00     0.025 A 
HETATM    6  C1  UNL     1      -5.450  10.218  20.839  1.00  0.00     0.070 C 
HETATM    7  C3  UNL     1      -6.581   8.095  20.235  1.00  0.00     0.035 A 
HETATM    8  C4  UNL     1      -7.663   7.274  20.030  1.00  0.00    -0.032 A 
HETATM    9  C5  UNL     1      -8.898   7.843  20.257  1.00  0.00     0.034 A 
HETATM   10  C23 UNL     1      -7.825   5.858  19.604  1.00  0.00     0.041 C 
HETATM   11  N1  UNL     1      -8.988   9.130  20.654  1.00  0.00    -0.298 N 
HETATM   12  C21 UNL     1      -9.936   6.814  19.989  1.00  0.00     0.059 C 
HETATM   13  C6  UNL     1     -10.329   9.650  20.896  1.00  0.00     0.178 C 
HETATM   14  C22 UNL     1      -9.152   5.521  20.250  1.00  0.00     0.011 C 
ENDBRANCH   3   4
ENDBRANCH   2   3
ENDBRANCH   1   2
BRANCH   1  15
HETATM   15  N3  UNL     1      -8.046  12.599  24.742  1.00  0.00    -0.067 N 
ATOM     16  H33 UNL     1      -8.900  13.035  25.088  1.00  0.00     0.275 HD
ATOM     17  H32 UNL     1      -8.282  11.651  25.035  1.00  0.00     0.275 HD
ATOM     18  H31 UNL     1      -7.188  12.966  25.154  1.00  0.00     0.275 HD
ENDBRANCH   1  15
BRANCH   1  19
HETATM   19  C10 UNL     1      -9.013  13.546  22.795  1.00  0.00     0.204 C 
BRANCH  19  20
HETATM   20  O1  UNL     1     -10.217  13.330  23.355  1.00  0.00    -0.398 OA
ATOM     21  H1  UNL     1     -10.719  14.100  23.595  1.00  0.00     0.209 HD
ENDBRANCH  19  20
ENDBRANCH   1  19
BRANCH   1  22
HETATM   22  C11 UNL     1      -6.588  13.113  22.769  1.00  0.00     0.321 C 
BRANCH  22  23
HETATM   23  N4  UNL     1      -5.337  13.186  23.439  1.00  0.00     0.072 N 
HETATM   24  C12 UNL     1      -5.582  14.256  24.481  1.00  0.00     0.320 C 
HETATM   25  C13 UNL     1      -4.961  12.030  24.109  1.00  0.00     0.091 C 
HETATM   26  C14 UNL     1      -4.268  10.917  24.620  1.00  0.00     0.357 C 
HETATM   27  N5  UNL     1      -2.842  10.962  24.280  1.00  0.00    -0.031 N 
HETATM   28  C15 UNL     1      -2.159  11.450  25.489  1.00  0.00     0.244 C 
HETATM   29  C18 UNL     1      -2.337   9.617  24.061  1.00  0.00     0.244 C 
HETATM   30  C19 UNL     1      -2.427  11.737  23.192  1.00  0.00     0.279 C 
HETATM   31  C16 UNL     1      -1.718  10.210  26.240  1.00  0.00     0.030 C 
HETATM   32  C17 UNL     1      -1.301   9.322  25.090  1.00  0.00     0.030 C 
HETATM   33  C20 UNL     1      -2.907  13.055  22.821  1.00  0.00     0.289 C 
HETATM   34  O2  UNL     1      -2.025  13.928  22.557  1.00  0.00    -0.265 OA
HETATM   35  N6  UNL     1      -4.227  13.625  22.675  1.00  0.00    -0.169 N 
ATOM     36  H6  UNL     1      -4.365  14.373  21.996  1.00  0.00     0.198 HD
ENDBRANCH  22  23
ENDBRANCH   1  22
TORSDOF 8
ENDMDL
MODEL 2
REMARK VINA RESULT: -7.703017538      1.961      7.504
REMARK  8 active torsions:
REMARK  status: ('A' for Active; 'I' for Inactive)
REMARK    1  A    between atoms: N2_8  and  C7_9 
REMARK    2  A    between atoms: C7_9  and  C8_10 
REMARK    3  A    between atoms: C8_10  and  C9_11 
REMARK    4  A    between atoms: C9_11  and  N3_12 
REMARK    5  A    between atoms: C9_11  and  C10_16 
REMARK    6  A    between atoms: C9_11  and  C11_19 
REMARK    7  A    between atoms: C10_16  and  O1_17 
REMARK    8  A    between atoms: C11_19  and  N4_20 
ROOT
HETATM    1  C9  UNL     1      -5.667  11.307  21.455  1.00  0.00     0.173 C 
ENDROOT
BRANCH   1   2
HETATM    2  C8  UNL     1      -5.550  11.871  22.926  1.00  0.00     0.064 C 
BRANCH   2   3
HETATM    3  C7  UNL     1      -4.163  12.361  23.193  1.00  0.00     0.151 C 
BRANCH   3   4
HETATM    4  N2  UNL     1      -3.626  11.593  24.322  1.00  0.00    -0.295 N 
HETATM    5  C2  UNL     1      -4.102  11.852  25.550  1.00  0.00     0.025 A 
HETATM    6  C1  UNL     1      -5.151  12.881  25.841  1.00  0.00     0.070 C 
HETATM    7  C3  UNL     1      -3.598  11.116  26.630  1.00  0.00     0.035 A 
HETATM    8  C4  UNL     1      -2.639  10.144  26.484  1.00  0.00    -0.032 A 
HETATM    9  C5  UNL     1      -2.194   9.929  25.197  1.00  0.00     0.034 A 
HETATM   10  C23 UNL     1      -1.935   9.230  27.424  1.00  0.00     0.041 C 
HETATM   11  N1  UNL     1      -2.701  10.654  24.176  1.00  0.00    -0.298 N 
HETATM   12  C21 UNL     1      -1.172   8.853  25.234  1.00  0.00     0.059 C 
HETATM   13  C6  UNL     1      -2.197  10.351  22.842  1.00  0.00     0.178 C 
HETATM   14  C22 UNL     1      -1.590   8.085  26.496  1.00  0.00     0.011 C 
ENDBRANCH   3   4
ENDBRANCH   2   3
ENDBRANCH   1   2
BRANCH   1  15
HETATM   15  N3  UNL     1      -5.207   9.984  21.568  1.00  0.00    -0.067 N 
ATOM     16  H33 UNL     1      -4.664   9.658  20.769  1.00  0.00     0.275 HD
ATOM     17  H32 UNL     1      -4.471   9.852  22.261  1.00  0.00     0.275 HD
ATOM     18  H31 UNL     1      -6.056   9.448  21.747  1.00  0.00     0.275 HD
ENDBRANCH   1  15
BRANCH   1  19
HETATM   19  C10 UNL     1      -4.569  12.125  20.772  1.00  0.00     0.204 C 
BRANCH  19  20
HETATM   20  O1  UNL     1      -3.799  11.476  19.881  1.00  0.00    -0.398 OA
ATOM     21  H1  UNL     1      -2.906  11.290  20.145  1.00  0.00     0.209 HD
ENDBRANCH  19  20
ENDBRANCH   1  19
BRANCH   1  22
HETATM   22  C11 UNL     1      -6.978  11.666  21.006  1.00  0.00     0.321 C 
BRANCH  22  23
HETATM   23  N4  UNL     1      -8.131  10.835  21.041  1.00  0.00     0.072 N 
HETATM   24  C12 UNL     1      -9.227  11.772  20.582  1.00  0.00     0.320 C 
HETATM   25  C13 UNL     1      -8.107   9.761  20.163  1.00  0.00     0.091 C 
HETATM   26  C14 UNL     1      -8.188   8.490  19.563  1.00  0.00     0.357 C 
HETATM   27  N5  UNL     1      -8.805   7.506  20.459  1.00  0.00    -0.031 N 
HETATM   28  C15 UNL     1     -10.200   7.375  20.008  1.00  0.00     0.244 C 
HETATM   29  C18 UNL     1      -8.204   6.199  20.255  1.00  0.00     0.244 C 
HETATM   30  C19 UNL     1      -8.804   7.746  21.836  1.00  0.00     0.279 C 
HETATM   31  C16 UNL     1     -10.215   6.197  19.057  1.00  0.00     0.030 C 
HETATM   32  C17 UNL     1      -9.250   5.265  19.753  1.00  0.00     0.030 C 
HETATM   33  C20 UNL     1      -9.042   9.011  22.506  1.00  0.00     0.289 C 
HETATM   34  O2  UNL     1      -9.862   8.998  23.474  1.00  0.00    -0.265 OA
HETATM   35  N6  UNL     1      -8.531  10.349  22.310  1.00  0.00    -0.169 N 
ATOM     36  H6  UNL     1      -8.454  10.967  23.118  1.00  0.00     0.198 HD
ENDBRANCH  22  23
ENDBRANCH   1  22
TORSDOF 8
ENDMDL
MODEL 3
REMARK VINA RESULT: -7.701502195      1.987      6.923
REMARK  8 active torsions:
REMARK  status: ('A' for Active; 'I' for Inactive)
REMARK    1  A    between atoms: N2_8  and  C7_9 
REMARK    2  A    between atoms: C7_9  and  C8_10 
REMARK    3  A    between atoms: C8_10  and  C9_11 
REMARK    4  A    between atoms: C9_11  and  N3_12 
REMARK    5  A    between atoms: C9_11  and  C10_16 
REMARK    6  A    between atoms: C9_11  and  C11_19 
REMARK    7  A    between atoms: C10_16  and  O1_17 
REMARK    8  A    between atoms: C11_19  and  N4_20 
ROOT
HETATM    1  C9  UNL     1      -5.646  12.837  22.281  1.00  0.00     0.173 C 
ENDROOT
BRANCH   1   2
HETATM    2  C8  UNL     1      -5.084  13.313  23.678  1.00  0.00     0.064 C 
BRANCH   2   3
HETATM    3  C7  UNL     1      -3.591  13.385  23.649  1.00  0.00     0.151 C 
BRANCH   3   4
HETATM    4  N2  UNL     1      -3.071  12.141  24.226  1.00  0.00    -0.295 N 
HETATM    5  C2  UNL     1      -2.171  11.439  23.520  1.00  0.00     0.025 A 
HETATM    6  C1  UNL     1      -1.663  11.850  22.171  1.00  0.00     0.070 C 
HETATM    7  C3  UNL     1      -1.666  10.254  24.070  1.00  0.00     0.035 A 
HETATM    8  C4  UNL     1      -2.054   9.782  25.300  1.00  0.00    -0.032 A 
HETATM    9  C5  UNL     1      -2.980  10.550  25.972  1.00  0.00     0.034 A 
HETATM   10  C23 UNL     1      -1.698   8.588  26.112  1.00  0.00     0.041 C 
HETATM   11  N1  UNL     1      -3.447  11.688  25.415  1.00  0.00    -0.298 N 
HETATM   12  C21 UNL     1      -3.274   9.890  27.270  1.00  0.00     0.059 C 
HETATM   13  C6  UNL     1      -4.406  12.457  26.200  1.00  0.00     0.178 C 
HETATM   14  C22 UNL     1      -1.977   9.105  27.508  1.00  0.00     0.011 C 
ENDBRANCH   3   4
ENDBRANCH   2   3
ENDBRANCH   1   2
BRANCH   1  15
HETATM   15  N3  UNL     1      -4.684  13.290  21.363  1.00  0.00    -0.067 N 
ATOM     16  H33 UNL     1      -4.538  14.299  21.370  1.00  0.00     0.275 HD
ATOM     17  H32 UNL     1      -3.724  13.041  21.602  1.00  0.00     0.275 HD
ATOM     18  H31 UNL     1      -5.007  12.917  20.471  1.00  0.00     0.275 HD
ENDBRANCH   1  15
BRANCH   1  19
HETATM   19  C10 UNL     1      -6.868  13.749  22.164  1.00  0.00     0.204 C 
BRANCH  19  20
HETATM   20  O1  UNL     1      -7.841  13.351  21.325  1.00  0.00    -0.398 OA
ATOM     21  H1  UNL     1      -8.363  12.607  21.600  1.00  0.00     0.209 HD
ENDBRANCH  19  20
ENDBRANCH   1  19
BRANCH   1  22
HETATM   22  C11 UNL     1      -6.003  11.461  22.456  1.00  0.00     0.321 C 
BRANCH  22  23
HETATM   23  N4  UNL     1      -6.050  10.473  21.436  1.00  0.00     0.072 N 
HETATM   24  C12 UNL     1      -4.617   9.992  21.376  1.00  0.00     0.320 C 
HETATM   25  C13 UNL     1      -6.847   9.373  21.721  1.00  0.00     0.091 C 
HETATM   26  C14 UNL     1      -7.779   8.319  21.678  1.00  0.00     0.357 C 
HETATM   27  N5  UNL     1      -8.349   8.153  20.337  1.00  0.00    -0.031 N 
HETATM   28  C15 UNL     1      -7.629   7.018  19.736  1.00  0.00     0.244 C 
HETATM   29  C18 UNL     1      -9.736   7.729  20.432  1.00  0.00     0.244 C 
HETATM   30  C19 UNL     1      -8.310   9.228  19.444  1.00  0.00     0.279 C 
HETATM   31  C16 UNL     1      -8.481   5.797  20.013  1.00  0.00     0.030 C 
HETATM   32  C17 UNL     1      -9.865   6.375  19.824  1.00  0.00     0.030 C 
HETATM   33  C20 UNL     1      -7.213  10.154  19.234  1.00  0.00     0.289 C 
HETATM   34  O2  UNL     1      -6.880  10.379  18.031  1.00  0.00    -0.265 OA
HETATM   35  N6  UNL     1      -6.374  10.917  20.130  1.00  0.00    -0.169 N 
ATOM     36  H6  UNL     1      -6.001  11.810  19.809  1.00  0.00     0.198 HD
ENDBRANCH  22  23
ENDBRANCH   1  22
TORSDOF 8
ENDMDL
MODEL 4
REMARK VINA RESULT: -7.529848827      1.528      2.346
REMARK  8 active torsions:
REMARK  status: ('A' for Active; 'I' for Inactive)
REMARK    1  A    between atoms: N2_8  and  C7_9 
REMARK    2  A    between atoms: C7_9  and  C8_10 
REMARK    3  A    between atoms: C8_10  and  C9_11 
REMARK    4  A    between atoms: C9_11  and  N3_12 
REMARK    5  A    between atoms: C9_11  and  C10_16 
REMARK    6  A    between atoms: C9_11  and  C11_19 
REMARK    7  A    between atoms: C10_16  and  O1_17 
REMARK    8  A    between atoms: C11_19  and  N4_20 
ROOT
HETATM    1  C9  UNL     1      -7.509  12.133  22.674  1.00  0.00     0.173 C 
ENDROOT
BRANCH   1   2
HETATM    2  C8  UNL     1      -8.833  12.056  21.817  1.00  0.00     0.064 C 
BRANCH   2   3
HETATM    3  C7  UNL     1      -8.542  11.540  20.444  1.00  0.00     0.151 C 
BRANCH   3   4
HETATM    4  N2  UNL     1      -8.842  10.104  20.432  1.00  0.00    -0.295 N 
HETATM    5  C2  UNL     1     -10.102   9.715  20.680  1.00  0.00     0.025 A 
HETATM    6  C1  UNL     1     -11.227  10.662  20.970  1.00  0.00     0.070 C 
HETATM    7  C3  UNL     1     -10.395   8.346  20.662  1.00  0.00     0.035 A 
HETATM    8  C4  UNL     1      -9.447   7.386  20.403  1.00  0.00    -0.032 A 
HETATM    9  C5  UNL     1      -8.174   7.854  20.156  1.00  0.00     0.034 A 
HETATM   10  C23 UNL     1      -9.469   5.902  20.322  1.00  0.00     0.041 C 
HETATM   11  N1  UNL     1      -7.923   9.181  20.180  1.00  0.00    -0.298 N 
HETATM   12  C21 UNL     1      -7.294   6.685  19.897  1.00  0.00     0.059 C 
HETATM   13  C6  UNL     1      -6.557   9.596  19.885  1.00  0.00     0.178 C 
HETATM   14  C22 UNL     1      -8.309   5.655  19.381  1.00  0.00     0.011 C 
ENDBRANCH   3   4
ENDBRANCH   2   3
ENDBRANCH   1   2
BRANCH   1  15
HETATM   15  N3  UNL     1      -7.252  10.794  23.012  1.00  0.00    -0.067 N 
ATOM     16  H33 UNL     1      -7.773  10.113  22.460  1.00  0.00     0.275 HD
ATOM     17  H32 UNL     1      -6.325  10.463  22.744  1.00  0.00     0.275 HD
ATOM     18  H31 UNL     1      -7.440  10.757  24.014  1.00  0.00     0.275 HD
ENDBRANCH   1  15
BRANCH   1  19
HETATM   19  C10 UNL     1      -8.046  12.834  23.924  1.00  0.00     0.204 C 
BRANCH  19  20
HETATM   20  O1  UNL     1      -7.726  12.284  25.109  1.00  0.00    -0.398 OA
ATOM     21  H1  UNL     1      -8.179  11.483  25.343  1.00  0.00     0.209 HD
ENDBRANCH  19  20
ENDBRANCH   1  19
BRANCH   1  22
HETATM   22  C11 UNL     1      -6.610  12.959  21.925  1.00  0.00     0.321 C 
BRANCH  22  23
HETATM   23  N4  UNL     1      -5.194  12.849  21.905  1.00  0.00     0.072 N 
HETATM   24  C12 UNL     1      -4.757  14.276  21.652  1.00  0.00     0.320 C 
HETATM   25  C13 UNL     1      -4.619  12.443  23.101  1.00  0.00     0.091 C 
HETATM   26  C14 UNL     1      -3.858  11.806  24.098  1.00  0.00     0.357 C 
HETATM   27  N5  UNL     1      -2.833  10.929  23.522  1.00  0.00    -0.031 N 
HETATM   28  C15 UNL     1      -1.573  11.687  23.595  1.00  0.00     0.244 C 
HETATM   29  C18 UNL     1      -2.638   9.764  24.368  1.00  0.00     0.244 C 
HETATM   30  C19 UNL     1      -2.996  10.462  22.214  1.00  0.00     0.279 C 
HETATM   31  C16 UNL     1      -0.908  11.254  24.885  1.00  0.00     0.030 C 
HETATM   32  C17 UNL     1      -1.243   9.780  24.890  1.00  0.00     0.030 C 
HETATM   33  C20 UNL     1      -3.486  11.210  21.071  1.00  0.00     0.289 C 
HETATM   34  O2  UNL     1      -2.809  11.123  20.001  1.00  0.00    -0.265 OA
HETATM   35  N6  UNL     1      -4.627  12.072  20.865  1.00  0.00    -0.169 N 
ATOM     36  H6  UNL     1      -5.041  12.122  19.934  1.00  0.00     0.198 HD
ENDBRANCH  22  23
ENDBRANCH   1  22
TORSDOF 8
ENDMDL
MODEL 5
REMARK VINA RESULT: -7.511292859      2.005      7.188
REMARK  8 active torsions:
REMARK  status: ('A' for Active; 'I' for Inactive)
REMARK    1  A    between atoms: N2_8  and  C7_9 
REMARK    2  A    between atoms: C7_9  and  C8_10 
REMARK    3  A    between atoms: C8_10  and  C9_11 
REMARK    4  A    between atoms: C9_11  and  N3_12 
REMARK    5  A    between atoms: C9_11  and  C10_16 
REMARK    6  A    between atoms: C9_11  and  C11_19 
REMARK    7  A    between atoms: C10_16  and  O1_17 
REMARK    8  A    between atoms: C11_19  and  N4_20 
ROOT
HETATM    1  C9  UNL     1      -6.039  11.863  20.762  1.00  0.00     0.173 C 
ENDROOT
BRANCH   1   2
HETATM    2  C8  UNL     1      -5.810  11.716  22.318  1.00  0.00     0.064 C 
BRANCH   2   3
HETATM    3  C7  UNL     1      -4.558  12.420  22.735  1.00  0.00     0.151 C 
BRANCH   3   4
HETATM    4  N2  UNL     1      -3.771  11.489  23.550  1.00  0.00    -0.295 N 
HETATM    5  C2  UNL     1      -2.754  10.835  22.966  1.00  0.00     0.025 A 
HETATM    6  C1  UNL     1      -2.372  10.999  21.526  1.00  0.00     0.070 C 
HETATM    7  C3  UNL     1      -1.994   9.951  23.743  1.00  0.00     0.035 A 
HETATM    8  C4  UNL     1      -2.248   9.724  25.073  1.00  0.00    -0.032 A 
HETATM    9  C5  UNL     1      -3.306  10.427  25.609  1.00  0.00     0.034 A 
HETATM   10  C23 UNL     1      -1.627   8.865  26.116  1.00  0.00     0.041 C 
HETATM   11  N1  UNL     1      -4.018  11.274  24.835  1.00  0.00    -0.298 N 
HETATM   12  C21 UNL     1      -3.426  10.059  27.044  1.00  0.00     0.059 C 
HETATM   13  C6  UNL     1      -5.106  11.997  25.483  1.00  0.00     0.178 C 
HETATM   14  C22 UNL     1      -1.985   9.639  27.367  1.00  0.00     0.011 C 
ENDBRANCH   3   4
ENDBRANCH   2   3
ENDBRANCH   1   2
BRANCH   1  15
HETATM   15  N3  UNL     1      -5.375  10.749  20.222  1.00  0.00    -0.067 N 
ATOM     16  H33 UNL     1      -5.388  10.705  19.203  1.00  0.00     0.275 HD
ATOM     17  H32 UNL     1      -4.360  10.777  20.315  1.00  0.00     0.275 HD
ATOM     18  H31 UNL     1      -5.820   9.956  20.683  1.00  0.00     0.275 HD
ENDBRANCH   1  15
BRANCH   1  19
HETATM   19  C10 UNL     1      -5.179  13.097  20.485  1.00  0.00     0.204 C 
BRANCH  19  20
HETATM   20  O1  UNL     1      -4.608  13.176  19.269  1.00  0.00    -0.398 OA
ATOM     21  H1  UNL     1      -4.871  12.521  18.633  1.00  0.00     0.209 HD
ENDBRANCH  19  20
ENDBRANCH   1  19
BRANCH   1  22
HETATM   22  C11 UNL     1      -7.438  12.121  20.599  1.00  0.00     0.321 C 
BRANCH  22  23
HETATM   23  N4  UNL     1      -8.485  11.171  20.742  1.00  0.00     0.072 N 
HETATM   24  C12 UNL     1      -9.695  11.939  20.253  1.00  0.00     0.320 C 
HETATM   25  C13 UNL     1      -8.363  10.039  19.949  1.00  0.00     0.091 C 
HETATM   26  C14 UNL     1      -8.314   8.722  19.454  1.00  0.00     0.357 C 
HETATM   27  N5  UNL     1      -8.788   7.752  20.445  1.00  0.00    -0.031 N 
HETATM   28  C15 UNL     1     -10.171   7.428  20.058  1.00  0.00     0.244 C 
HETATM   29  C18 UNL     1      -8.047   6.508  20.322  1.00  0.00     0.244 C 
HETATM   30  C19 UNL     1      -8.776   8.102  21.799  1.00  0.00     0.279 C 
HETATM   31  C16 UNL     1     -10.077   6.182  19.202  1.00  0.00     0.030 C 
HETATM   32  C17 UNL     1      -8.992   5.424  19.933  1.00  0.00     0.030 C 
HETATM   33  C20 UNL     1      -9.140   9.382  22.376  1.00  0.00     0.289 C 
HETATM   34  O2  UNL     1      -9.925   9.355  23.373  1.00  0.00    -0.265 OA
HETATM   35  N6  UNL     1      -8.791  10.748  22.059  1.00  0.00    -0.169 N 
ATOM     36  H6  UNL     1      -8.764  11.434  22.813  1.00  0.00     0.198 HD
ENDBRANCH  22  23
ENDBRANCH   1  22
TORSDOF 8
ENDMDL
