MODEL 1
REMARK VINA RESULT: -8.236516121      0.000      0.000
REMARK  10 active torsions:
REMARK  status: ('A' for Active; 'I' for Inactive)
REMARK    1  A    between atoms: C2_2  and  C3_3 
REMARK    2  A    between atoms: C5_8  and  C6_9 
REMARK    3  A    between atoms: C6_9  and  C7_10 
REMARK    4  A    between atoms: C14_23  and  C15_24 
REMARK    5  A    between atoms: C15_24  and  C16_25 
REMARK    6  A    between atoms: C20_32  and  C21_33 
REMARK    7  A    between atoms: C21_33  and  C22_34 
REMARK    8  A    between atoms: C22_34  and  C23_35 
REMARK    9  A    between atoms: C23_35  and  N5_36 
REMARK       I    between atoms: C24_38  and  N7_40 
REMARK   10  A    between atoms: C28_46  and  C29_47 
ROOT
HETATM    1  C3  UNL     1      10.290  25.183   5.129  1.00  0.00     0.102 C 
HETATM    2  C4  UNL     1      10.169  24.178   6.193  1.00  0.00     0.224 C 
HETATM    3  O1  UNL     1      10.825  23.093   6.044  1.00  0.00    -0.273 OA
HETATM    4  N1  UNL     1       9.394  24.296   7.367  1.00  0.00    -0.347 N 
ATOM      5  H1  UNL     1       8.882  23.481   7.703  1.00  0.00     0.163 HD
HETATM    6  C5  UNL     1       9.300  25.560   8.124  1.00  0.00     0.177 C 
HETATM    7  C10 UNL     1       7.900  25.558   8.638  1.00  0.00     0.241 C 
HETATM    8  O2  UNL     1       7.588  24.546   9.343  1.00  0.00    -0.271 OA
HETATM    9  N2  UNL     1       6.947  26.552   8.405  1.00  0.00    -0.346 N 
ATOM     10  H2  UNL     1       6.352  26.816   9.191  1.00  0.00     0.163 HD
HETATM   11  C11 UNL     1       6.724  27.245   7.152  1.00  0.00     0.172 C 
HETATM   12  C12 UNL     1       7.597  28.507   7.055  1.00  0.00     0.042 C 
HETATM   13  C13 UNL     1       5.328  27.744   7.137  1.00  0.00     0.240 C 
HETATM   14  O3  UNL     1       4.840  28.081   8.248  1.00  0.00    -0.271 OA
HETATM   15  N3  UNL     1       4.507  27.873   5.992  1.00  0.00    -0.346 N 
ATOM     16  H3  UNL     1       3.924  28.708   5.930  1.00  0.00     0.163 HD
HETATM   17  C14 UNL     1       4.421  26.925   4.900  1.00  0.00     0.177 C 
HETATM   18  C19 UNL     1       5.138  27.541   3.745  1.00  0.00     0.241 C 
HETATM   19  O4  UNL     1       4.627  28.666   3.381  1.00  0.00    -0.271 OA
HETATM   20  N4  UNL     1       6.243  27.041   3.069  1.00  0.00    -0.346 N 
ATOM     21  H4  UNL     1       6.752  27.697   2.477  1.00  0.00     0.163 HD
HETATM   22  C20 UNL     1       6.734  25.717   3.115  1.00  0.00     0.176 C 
HETATM   23  C27 UNL     1       8.160  25.617   2.573  1.00  0.00     0.243 C 
HETATM   24  O5  UNL     1       8.315  26.498   1.688  1.00  0.00    -0.271 OA
HETATM   25  N8  UNL     1       9.066  24.672   3.043  1.00  0.00    -0.336 N 
HETATM   26  C28 UNL     1       9.660  23.382   3.325  1.00  0.00     0.111 A 
HETATM   27  C31 UNL     1      10.291  24.664   3.739  1.00  0.00     0.123 A 
ENDROOT
BRANCH  22  28
HETATM   28  C21 UNL     1       5.871  24.676   2.527  1.00  0.00     0.036 C 
BRANCH  28  29
HETATM   29  C22 UNL     1       5.246  24.884   1.216  1.00  0.00     0.022 C 
BRANCH  29  30
HETATM   30  C23 UNL     1       3.750  24.980   1.164  1.00  0.00     0.122 C 
BRANCH  30  31
HETATM   31  N5  UNL     1       3.298  26.363   1.224  1.00  0.00    -0.365 N 
HETATM   32  C24 UNL     1       2.706  26.969   0.258  1.00  0.00     0.185 C 
HETATM   33  N6  UNL     1       2.345  28.339   0.541  1.00  0.00    -0.064 NA
HETATM   34  N7  UNL     1       2.397  26.422  -1.002  1.00  0.00    -0.364 N 
HETATM   35  C25 UNL     1       1.068  25.895  -1.230  1.00  0.00     0.151 C 
HETATM   36  C26 UNL     1       3.359  26.369  -2.083  1.00  0.00     0.151 C 
ATOM     37  H5  UNL     1       3.461  26.883   2.086  1.00  0.00     0.162 HD
ENDBRANCH  30  31
ENDBRANCH  29  30
ENDBRANCH  28  29
ENDBRANCH  22  28
BRANCH  17  38
HETATM   38  C15 UNL     1       3.001  26.715   4.424  1.00  0.00     0.038 C 
BRANCH  38  39
HETATM   39  C16 UNL     1       2.315  25.496   4.906  1.00  0.00    -0.020 C 
HETATM   40  C17 UNL     1       3.380  24.377   4.887  1.00  0.00     0.009 C 
HETATM   41  C18 UNL     1       1.182  24.981   4.087  1.00  0.00     0.009 C 
ENDBRANCH  38  39
ENDBRANCH  17  38
BRANCH  26  42
HETATM   42  C29 UNL     1      10.168  22.587   2.172  1.00  0.00     0.023 C 
HETATM   43  C30 UNL     1       9.363  22.787   0.912  1.00  0.00     0.007 C 
ENDBRANCH  26  42
BRANCH   1  44
HETATM   44  C2  UNL     1      11.607  25.925   5.411  1.00  0.00     0.012 C 
HETATM   45  C1  UNL     1      12.691  25.412   4.455  1.00  0.00     0.006 C 
ENDBRANCH   1  44
BRANCH   6  46
HETATM   46  C6  UNL     1      10.275  25.497   9.223  1.00  0.00     0.038 C 
BRANCH  46  47
HETATM   47  C7  UNL     1      11.423  26.405   9.253  1.00  0.00    -0.020 C 
HETATM   48  C8  UNL     1      11.295  27.785   8.757  1.00  0.00     0.009 C 
HETATM   49  C9  UNL     1      12.671  25.800   8.585  1.00  0.00     0.009 C 
ENDBRANCH  46  47
ENDBRANCH   6  46
TORSDOF 10
ENDMDL
MODEL 2
REMARK VINA RESULT: -8.217360493      1.911      2.536
REMARK  10 active torsions:
REMARK  status: ('A' for Active; 'I' for Inactive)
REMARK    1  A    between atoms: C2_2  and  C3_3 
REMARK    2  A    between atoms: C5_8  and  C6_9 
REMARK    3  A    between atoms: C6_9  and  C7_10 
REMARK    4  A    between atoms: C14_23  and  C15_24 
REMARK    5  A    between atoms: C15_24  and  C16_25 
REMARK    6  A    between atoms: C20_32  and  C21_33 
REMARK    7  A    between atoms: C21_33  and  C22_34 
REMARK    8  A    between atoms: C22_34  and  C23_35 
REMARK    9  A    between atoms: C23_35  and  N5_36 
REMARK       I    between atoms: C24_38  and  N7_40 
REMARK   10  A    between atoms: C28_46  and  C29_47 
ROOT
HETATM    1  C3  UNL     1      10.252  25.135   5.112  1.00  0.00     0.102 C 
HETATM    2  C4  UNL     1      10.137  24.154   6.200  1.00  0.00     0.224 C 
HETATM    3  O1  UNL     1      10.787  23.064   6.068  1.00  0.00    -0.273 OA
HETATM    4  N1  UNL     1       9.374  24.302   7.378  1.00  0.00    -0.347 N 
ATOM      5  H1  UNL     1       8.862  23.497   7.738  1.00  0.00     0.163 HD
HETATM    6  C5  UNL     1       9.293  25.583   8.108  1.00  0.00     0.177 C 
HETATM    7  C10 UNL     1       7.899  25.599   8.635  1.00  0.00     0.241 C 
HETATM    8  O2  UNL     1       7.590  24.604   9.366  1.00  0.00    -0.271 OA
HETATM    9  N2  UNL     1       6.948  26.592   8.390  1.00  0.00    -0.346 N 
ATOM     10  H2  UNL     1       6.362  26.875   9.175  1.00  0.00     0.163 HD
HETATM   11  C11 UNL     1       6.714  27.257   7.124  1.00  0.00     0.172 C 
HETATM   12  C12 UNL     1       7.591  28.513   6.990  1.00  0.00     0.042 C 
HETATM   13  C13 UNL     1       5.320  27.761   7.111  1.00  0.00     0.240 C 
HETATM   14  O3  UNL     1       4.845  28.125   8.220  1.00  0.00    -0.271 OA
HETATM   15  N3  UNL     1       4.488  27.869   5.972  1.00  0.00    -0.346 N 
ATOM     16  H3  UNL     1       3.909  28.705   5.897  1.00  0.00     0.163 HD
HETATM   17  C14 UNL     1       4.387  26.896   4.903  1.00  0.00     0.177 C 
HETATM   18  C19 UNL     1       5.096  27.483   3.727  1.00  0.00     0.241 C 
HETATM   19  O4  UNL     1       4.586  28.602   3.343  1.00  0.00    -0.271 OA
HETATM   20  N4  UNL     1       6.191  26.963   3.051  1.00  0.00    -0.346 N 
ATOM     21  H4  UNL     1       6.697  27.603   2.440  1.00  0.00     0.163 HD
HETATM   22  C20 UNL     1       6.678  25.639   3.122  1.00  0.00     0.176 C 
HETATM   23  C27 UNL     1       8.098  25.520   2.568  1.00  0.00     0.243 C 
HETATM   24  O5  UNL     1       8.247  26.380   1.662  1.00  0.00    -0.271 OA
HETATM   25  N8  UNL     1       9.005  24.582   3.051  1.00  0.00    -0.336 N 
HETATM   26  C28 UNL     1       9.596  23.297   3.356  1.00  0.00     0.111 A 
HETATM   27  C31 UNL     1      10.236  24.585   3.734  1.00  0.00     0.123 A 
ENDROOT
BRANCH  22  28
HETATM   28  C21 UNL     1       5.805  24.589   2.566  1.00  0.00     0.036 C 
BRANCH  28  29
HETATM   29  C22 UNL     1       5.138  23.631   3.455  1.00  0.00     0.022 C 
BRANCH  29  30
HETATM   30  C23 UNL     1       3.733  23.230   3.120  1.00  0.00     0.122 C 
BRANCH  30  31
HETATM   31  N5  UNL     1       3.443  21.871   3.557  1.00  0.00    -0.365 N 
HETATM   32  C24 UNL     1       2.586  21.100   2.990  1.00  0.00     0.185 C 
HETATM   33  N6  UNL     1       2.463  19.793   3.593  1.00  0.00    -0.064 NA
HETATM   34  N7  UNL     1       1.791  21.420   1.873  1.00  0.00    -0.364 N 
HETATM   35  C25 UNL     1       2.232  21.006   0.557  1.00  0.00     0.151 C 
HETATM   36  C26 UNL     1       0.544  22.145   1.989  1.00  0.00     0.151 C 
ATOM     37  H5  UNL     1       3.951  21.509   4.364  1.00  0.00     0.162 HD
ENDBRANCH  30  31
ENDBRANCH  29  30
ENDBRANCH  28  29
ENDBRANCH  22  28
BRANCH  17  38
HETATM   38  C15 UNL     1       2.962  26.682   4.446  1.00  0.00     0.038 C 
BRANCH  38  39
HETATM   39  C16 UNL     1       2.100  25.865   5.328  1.00  0.00    -0.020 C 
HETATM   40  C17 UNL     1       1.028  25.239   4.406  1.00  0.00     0.009 C 
HETATM   41  C18 UNL     1       1.342  26.577   6.393  1.00  0.00     0.009 C 
ENDBRANCH  38  39
ENDBRANCH  17  38
BRANCH  26  42
HETATM   42  C29 UNL     1      10.089  22.473   2.216  1.00  0.00     0.023 C 
HETATM   43  C30 UNL     1       9.367  22.757   0.923  1.00  0.00     0.007 C 
ENDBRANCH  26  42
BRANCH   1  44
HETATM   44  C2  UNL     1      11.575  25.877   5.365  1.00  0.00     0.012 C 
HETATM   45  C1  UNL     1      12.644  25.345   4.403  1.00  0.00     0.006 C 
ENDBRANCH   1  44
BRANCH   6  46
HETATM   46  C6  UNL     1      10.279  25.541   9.198  1.00  0.00     0.038 C 
BRANCH  46  47
HETATM   47  C7  UNL     1      11.393  26.491   9.232  1.00  0.00    -0.020 C 
HETATM   48  C8  UNL     1      11.205  27.876   8.775  1.00  0.00     0.009 C 
HETATM   49  C9  UNL     1      12.650  25.950   8.529  1.00  0.00     0.009 C 
ENDBRANCH  46  47
ENDBRANCH   6  46
TORSDOF 10
ENDMDL
MODEL 3
REMARK VINA RESULT: -7.889590206      3.344      8.651
REMARK  10 active torsions:
REMARK  status: ('A' for Active; 'I' for Inactive)
REMARK    1  A    between atoms: C2_2  and  C3_3 
REMARK    2  A    between atoms: C5_8  and  C6_9 
REMARK    3  A    between atoms: C6_9  and  C7_10 
REMARK    4  A    between atoms: C14_23  and  C15_24 
REMARK    5  A    between atoms: C15_24  and  C16_25 
REMARK    6  A    between atoms: C20_32  and  C21_33 
REMARK    7  A    between atoms: C21_33  and  C22_34 
REMARK    8  A    between atoms: C22_34  and  C23_35 
REMARK    9  A    between atoms: C23_35  and  N5_36 
REMARK       I    between atoms: C24_38  and  N7_40 
REMARK   10  A    between atoms: C28_46  and  C29_47 
ROOT
HETATM    1  C3  UNL     1       7.113  25.864   4.182  1.00  0.00     0.102 C 
HETATM    2  C4  UNL     1       7.355  27.310   4.273  1.00  0.00     0.224 C 
HETATM    3  O1  UNL     1       7.030  28.017   3.261  1.00  0.00    -0.273 OA
HETATM    4  N1  UNL     1       7.915  27.993   5.373  1.00  0.00    -0.347 N 
ATOM      5  H1  UNL     1       8.575  28.751   5.199  1.00  0.00     0.163 HD
HETATM    6  C5  UNL     1       7.578  27.649   6.769  1.00  0.00     0.177 C 
HETATM    7  C10 UNL     1       8.852  27.886   7.506  1.00  0.00     0.241 C 
HETATM    8  O2  UNL     1       9.324  29.063   7.398  1.00  0.00    -0.271 OA
HETATM    9  N2  UNL     1       9.534  26.941   8.276  1.00  0.00    -0.346 N 
ATOM     10  H2  UNL     1       9.933  27.264   9.158  1.00  0.00     0.163 HD
HETATM   11  C11 UNL     1       9.727  25.545   7.941  1.00  0.00     0.172 C 
HETATM   12  C12 UNL     1       8.575  24.682   8.481  1.00  0.00     0.042 C 
HETATM   13  C13 UNL     1      10.935  25.057   8.650  1.00  0.00     0.240 C 
HETATM   14  O3  UNL     1      11.171  25.572   9.775  1.00  0.00    -0.271 OA
HETATM   15  N3  UNL     1      11.833  24.073   8.176  1.00  0.00    -0.346 N 
ATOM     16  H3  UNL     1      12.181  23.395   8.854  1.00  0.00     0.163 HD
HETATM   17  C14 UNL     1      12.304  23.943   6.812  1.00  0.00     0.177 C 
HETATM   18  C19 UNL     1      11.604  22.758   6.232  1.00  0.00     0.241 C 
HETATM   19  O4  UNL     1      11.846  21.670   6.878  1.00  0.00    -0.271 OA
HETATM   20  N4  UNL     1      10.765  22.725   5.127  1.00  0.00    -0.346 N 
ATOM     21  H4  UNL     1      10.182  21.895   5.020  1.00  0.00     0.163 HD
HETATM   22  C20 UNL     1      10.635  23.722   4.135  1.00  0.00     0.176 C 
HETATM   23  C27 UNL     1       9.366  23.538   3.302  1.00  0.00     0.243 C 
HETATM   24  O5  UNL     1       9.101  22.309   3.241  1.00  0.00    -0.271 OA
HETATM   25  N8  UNL     1       8.686  24.614   2.741  1.00  0.00    -0.336 N 
HETATM   26  C28 UNL     1       8.418  25.765   1.906  1.00  0.00     0.111 A 
HETATM   27  C31 UNL     1       7.427  25.231   2.878  1.00  0.00     0.123 A 
ENDROOT
BRANCH  22  28
HETATM   28  C21 UNL     1      11.807  23.943   3.269  1.00  0.00     0.036 C 
BRANCH  28  29
HETATM   29  C22 UNL     1      12.472  22.810   2.617  1.00  0.00     0.022 C 
BRANCH  29  30
HETATM   30  C23 UNL     1      13.673  22.221   3.295  1.00  0.00     0.122 C 
BRANCH  30  31
HETATM   31  N5  UNL     1      14.388  21.303   2.419  1.00  0.00    -0.365 N 
HETATM   32  C24 UNL     1      15.124  20.336   2.838  1.00  0.00     0.185 C 
HETATM   33  N6  UNL     1      15.737  19.552   1.790  1.00  0.00    -0.064 NA
HETATM   34  N7  UNL     1      15.368  19.998   4.182  1.00  0.00    -0.364 N 
HETATM   35  C25 UNL     1      14.579  18.951   4.796  1.00  0.00     0.151 C 
HETATM   36  C26 UNL     1      16.384  20.657   4.977  1.00  0.00     0.151 C 
ATOM     37  H5  UNL     1      14.300  21.435   1.412  1.00  0.00     0.162 HD
ENDBRANCH  30  31
ENDBRANCH  29  30
ENDBRANCH  28  29
ENDBRANCH  22  28
BRANCH  17  38
HETATM   38  C15 UNL     1      13.778  23.616   6.734  1.00  0.00     0.038 C 
BRANCH  38  39
HETATM   39  C16 UNL     1      14.511  23.557   8.017  1.00  0.00    -0.020 C 
HETATM   40  C17 UNL     1      16.000  23.770   7.660  1.00  0.00     0.009 C 
HETATM   41  C18 UNL     1      14.462  22.275   8.774  1.00  0.00     0.009 C 
ENDBRANCH  38  39
ENDBRANCH  17  38
BRANCH  26  42
HETATM   42  C29 UNL     1       8.288  25.541   0.439  1.00  0.00     0.023 C 
HETATM   43  C30 UNL     1       7.958  26.799  -0.327  1.00  0.00     0.007 C 
ENDBRANCH  26  42
BRANCH   1  44
HETATM   44  C2  UNL     1       5.623  25.674   4.512  1.00  0.00     0.012 C 
HETATM   45  C1  UNL     1       4.959  24.861   3.394  1.00  0.00     0.006 C 
ENDBRANCH   1  44
BRANCH   6  46
HETATM   46  C6  UNL     1       6.521  28.569   7.214  1.00  0.00     0.038 C 
BRANCH  46  47
HETATM   47  C7  UNL     1       5.157  28.444   6.694  1.00  0.00    -0.020 C 
HETATM   48  C8  UNL     1       4.376  29.644   6.357  1.00  0.00     0.009 C 
HETATM   49  C9  UNL     1       4.266  27.562   7.586  1.00  0.00     0.009 C 
ENDBRANCH  46  47
ENDBRANCH   6  46
TORSDOF 10
ENDMDL
MODEL 4
REMARK VINA RESULT: -7.443066733      2.422      8.419
REMARK  10 active torsions:
REMARK  status: ('A' for Active; 'I' for Inactive)
REMARK    1  A    between atoms: C2_2  and  C3_3 
REMARK    2  A    between atoms: C5_8  and  C6_9 
REMARK    3  A    between atoms: C6_9  and  C7_10 
REMARK    4  A    between atoms: C14_23  and  C15_24 
REMARK    5  A    between atoms: C15_24  and  C16_25 
REMARK    6  A    between atoms: C20_32  and  C21_33 
REMARK    7  A    between atoms: C21_33  and  C22_34 
REMARK    8  A    between atoms: C22_34  and  C23_35 
REMARK    9  A    between atoms: C23_35  and  N5_36 
REMARK       I    between atoms: C24_38  and  N7_40 
REMARK   10  A    between atoms: C28_46  and  C29_47 
ROOT
HETATM    1  C3  UNL     1       4.585  27.906   6.162  1.00  0.00     0.102 C 
HETATM    2  C4  UNL     1       3.744  26.817   6.677  1.00  0.00     0.224 C 
HETATM    3  O1  UNL     1       3.627  26.724   7.944  1.00  0.00    -0.273 OA
HETATM    4  N1  UNL     1       3.053  25.861   5.902  1.00  0.00    -0.347 N 
ATOM      5  H1  UNL     1       3.029  24.893   6.221  1.00  0.00     0.163 HD
HETATM    6  C5  UNL     1       2.365  26.215   4.645  1.00  0.00     0.177 C 
HETATM    7  C10 UNL     1       2.552  25.007   3.790  1.00  0.00     0.241 C 
HETATM    8  O2  UNL     1       2.117  23.922   4.292  1.00  0.00    -0.271 OA
HETATM    9  N2  UNL     1       3.148  24.989   2.527  1.00  0.00    -0.346 N 
ATOM     10  H2  UNL     1       2.712  24.401   1.818  1.00  0.00     0.163 HD
HETATM   11  C11 UNL     1       4.330  25.728   2.130  1.00  0.00     0.172 C 
HETATM   12  C12 UNL     1       3.955  27.114   1.580  1.00  0.00     0.042 C 
HETATM   13  C13 UNL     1       4.961  25.023   0.989  1.00  0.00     0.240 C 
HETATM   14  O3  UNL     1       4.183  24.421   0.201  1.00  0.00    -0.271 OA
HETATM   15  N3  UNL     1       6.347  24.968   0.713  1.00  0.00    -0.346 N 
ATOM     16  H3  UNL     1       6.630  25.055  -0.264  1.00  0.00     0.163 HD
HETATM   17  C14 UNL     1       7.400  24.800   1.693  1.00  0.00     0.177 C 
HETATM   18  C19 UNL     1       8.066  26.129   1.833  1.00  0.00     0.241 C 
HETATM   19  O4  UNL     1       8.571  26.555   0.726  1.00  0.00    -0.271 OA
HETATM   20  N4  UNL     1       8.183  26.903   2.980  1.00  0.00    -0.346 N 
ATOM     21  H4  UNL     1       8.443  27.880   2.847  1.00  0.00     0.163 HD
HETATM   22  C20 UNL     1       7.979  26.477   4.311  1.00  0.00     0.176 C 
HETATM   23  C27 UNL     1       7.810  27.656   5.269  1.00  0.00     0.243 C 
HETATM   24  O5  UNL     1       8.483  28.626   4.834  1.00  0.00    -0.271 OA
HETATM   25  N8  UNL     1       7.022  27.573   6.413  1.00  0.00    -0.336 N 
HETATM   26  C28 UNL     1       6.560  27.146   7.716  1.00  0.00     0.111 A 
HETATM   27  C31 UNL     1       5.843  28.166   6.905  1.00  0.00     0.123 A 
ENDROOT
BRANCH  22  28
HETATM   28  C21 UNL     1       8.946  25.499   4.842  1.00  0.00     0.036 C 
BRANCH  28  29
HETATM   29  C22 UNL     1      10.293  25.926   5.235  1.00  0.00     0.022 C 
BRANCH  29  30
HETATM   30  C23 UNL     1      11.415  24.947   5.058  1.00  0.00     0.122 C 
BRANCH  30  31
HETATM   31  N5  UNL     1      11.111  23.663   5.673  1.00  0.00    -0.365 N 
HETATM   32  C24 UNL     1      11.905  22.652   5.659  1.00  0.00     0.185 C 
HETATM   33  N6  UNL     1      11.395  21.480   6.333  1.00  0.00    -0.064 NA
HETATM   34  N7  UNL     1      13.178  22.603   5.062  1.00  0.00    -0.364 N 
HETATM   35  C25 UNL     1      14.348  22.829   5.885  1.00  0.00     0.151 C 
HETATM   36  C26 UNL     1      13.365  22.330   3.652  1.00  0.00     0.151 C 
ATOM     37  H5  UNL     1      10.212  23.558   6.143  1.00  0.00     0.162 HD
ENDBRANCH  30  31
ENDBRANCH  29  30
ENDBRANCH  28  29
ENDBRANCH  22  28
BRANCH  17  38
HETATM   38  C15 UNL     1       8.484  23.856   1.225  1.00  0.00     0.038 C 
BRANCH  38  39
HETATM   39  C16 UNL     1       9.567  23.562   2.189  1.00  0.00    -0.020 C 
HETATM   40  C17 UNL     1      10.872  24.037   1.512  1.00  0.00     0.009 C 
HETATM   41  C18 UNL     1       9.799  22.133   2.542  1.00  0.00     0.009 C 
ENDBRANCH  38  39
ENDBRANCH  17  38
BRANCH  26  42
HETATM   42  C29 UNL     1       7.387  27.514   8.899  1.00  0.00     0.023 C 
HETATM   43  C30 UNL     1       8.748  26.864   8.898  1.00  0.00     0.007 C 
ENDBRANCH  26  42
BRANCH   1  44
HETATM   44  C2  UNL     1       3.695  29.160   6.185  1.00  0.00     0.012 C 
HETATM   45  C1  UNL     1       3.573  29.718   4.761  1.00  0.00     0.006 C 
ENDBRANCH   1  44
BRANCH   6  46
HETATM   46  C6  UNL     1       0.946  26.435   4.959  1.00  0.00     0.038 C 
BRANCH  46  47
HETATM   47  C7  UNL     1       0.224  27.575   4.387  1.00  0.00    -0.020 C 
HETATM   48  C8  UNL     1       0.669  28.178   3.120  1.00  0.00     0.009 C 
HETATM   49  C9  UNL     1       0.045  28.724   5.394  1.00  0.00     0.009 C 
ENDBRANCH  46  47
ENDBRANCH   6  46
TORSDOF 10
ENDMDL
MODEL 5
REMARK VINA RESULT: -6.442966724      2.699      6.420
REMARK  10 active torsions:
REMARK  status: ('A' for Active; 'I' for Inactive)
REMARK    1  A    between atoms: C2_2  and  C3_3 
REMARK    2  A    between atoms: C5_8  and  C6_9 
REMARK    3  A    between atoms: C6_9  and  C7_10 
REMARK    4  A    between atoms: C14_23  and  C15_24 
REMARK    5  A    between atoms: C15_24  and  C16_25 
REMARK    6  A    between atoms: C20_32  and  C21_33 
REMARK    7  A    between atoms: C21_33  and  C22_34 
REMARK    8  A    between atoms: C22_34  and  C23_35 
REMARK    9  A    between atoms: C23_35  and  N5_36 
REMARK       I    between atoms: C24_38  and  N7_40 
REMARK   10  A    between atoms: C28_46  and  C29_47 
ROOT
HETATM    1  C3  UNL     1       8.526  25.903   5.592  1.00  0.00     0.102 C 
HETATM    2  C4  UNL     1       9.435  26.606   4.677  1.00  0.00     0.224 C 
HETATM    3  O1  UNL     1      10.487  27.120   5.185  1.00  0.00    -0.273 OA
HETATM    4  N1  UNL     1       9.256  26.768   3.286  1.00  0.00    -0.347 N 
ATOM      5  H1  UNL     1       9.499  27.662   2.859  1.00  0.00     0.163 HD
HETATM    6  C5  UNL     1       8.729  25.688   2.429  1.00  0.00     0.177 C 
HETATM    7  C10 UNL     1       7.926  26.414   1.404  1.00  0.00     0.241 C 
HETATM    8  O2  UNL     1       8.567  27.290   0.740  1.00  0.00    -0.271 OA
HETATM    9  N2  UNL     1       6.571  26.205   1.135  1.00  0.00    -0.346 N 
ATOM     10  H2  UNL     1       6.288  26.211   0.155  1.00  0.00     0.163 HD
HETATM   11  C11 UNL     1       5.529  25.983   2.117  1.00  0.00     0.172 C 
HETATM   12  C12 UNL     1       5.370  24.484   2.423  1.00  0.00     0.042 C 
HETATM   13  C13 UNL     1       4.233  26.391   1.525  1.00  0.00     0.240 C 
HETATM   14  O3  UNL     1       4.106  26.223   0.282  1.00  0.00    -0.271 OA
HETATM   15  N3  UNL     1       3.139  26.947   2.228  1.00  0.00    -0.346 N 
ATOM     16  H3  UNL     1       2.207  26.624   1.967  1.00  0.00     0.163 HD
HETATM   17  C14 UNL     1       3.225  27.932   3.286  1.00  0.00     0.177 C 
HETATM   18  C19 UNL     1       2.937  27.212   4.562  1.00  0.00     0.241 C 
HETATM   19  O4  UNL     1       1.770  26.665   4.576  1.00  0.00    -0.271 OA
HETATM   20  N4  UNL     1       3.764  27.085   5.670  1.00  0.00    -0.346 N 
ATOM     21  H4  UNL     1       3.517  26.361   6.344  1.00  0.00     0.163 HD
HETATM   22  C20 UNL     1       4.913  27.854   5.959  1.00  0.00     0.176 C 
HETATM   23  C27 UNL     1       5.785  27.198   7.031  1.00  0.00     0.243 C 
HETATM   24  O5  UNL     1       5.041  26.548   7.809  1.00  0.00    -0.271 OA
HETATM   25  N8  UNL     1       7.167  27.356   7.059  1.00  0.00    -0.336 N 
HETATM   26  C28 UNL     1       8.458  28.001   7.171  1.00  0.00     0.111 A 
HETATM   27  C31 UNL     1       8.308  26.543   6.913  1.00  0.00     0.123 A 
ENDROOT
BRANCH  22  28
HETATM   28  C21 UNL     1       4.691  29.280   6.258  1.00  0.00     0.036 C 
BRANCH  28  29
HETATM   29  C22 UNL     1       3.661  29.683   7.221  1.00  0.00     0.022 C 
BRANCH  29  30
HETATM   30  C23 UNL     1       2.435  30.364   6.689  1.00  0.00     0.122 C 
BRANCH  30  31
HETATM   31  N5  UNL     1       1.449  30.592   7.736  1.00  0.00    -0.365 N 
HETATM   32  C24 UNL     1       0.418  29.849   7.928  1.00  0.00     0.185 C 
HETATM   33  N6  UNL     1      -0.424  30.264   9.026  1.00  0.00    -0.064 NA
HETATM   34  N7  UNL     1       0.063  28.712   7.180  1.00  0.00    -0.364 N 
HETATM   35  C25 UNL     1       0.430  27.402   7.677  1.00  0.00     0.151 C 
HETATM   36  C26 UNL     1      -0.663  28.799   5.930  1.00  0.00     0.151 C 
ATOM     37  H5  UNL     1       1.585  31.391   8.355  1.00  0.00     0.162 HD
ENDBRANCH  30  31
ENDBRANCH  29  30
ENDBRANCH  28  29
ENDBRANCH  22  28
BRANCH  17  38
HETATM   38  C15 UNL     1       2.157  28.997   3.177  1.00  0.00     0.038 C 
BRANCH  38  39
HETATM   39  C16 UNL     1       1.285  28.940   1.984  1.00  0.00    -0.020 C 
HETATM   40  C17 UNL     1       1.097  30.405   1.529  1.00  0.00     0.009 C 
HETATM   41  C18 UNL     1      -0.092  28.401   2.168  1.00  0.00     0.009 C 
ENDBRANCH  38  39
ENDBRANCH  17  38
BRANCH  26  42
HETATM   42  C29 UNL     1       8.855  28.531   8.505  1.00  0.00     0.023 C 
HETATM   43  C30 UNL     1      10.254  28.136   8.909  1.00  0.00     0.007 C 
ENDBRANCH  26  42
BRANCH   1  44
HETATM   44  C2  UNL     1       9.134  24.504   5.783  1.00  0.00     0.012 C 
HETATM   45  C1  UNL     1       9.725  24.398   7.194  1.00  0.00     0.006 C 
ENDBRANCH   1  44
BRANCH   6  46
HETATM   46  C6  UNL     1       9.876  24.999   1.822  1.00  0.00     0.038 C 
BRANCH  46  47
HETATM   47  C7  UNL     1      10.173  23.605   2.162  1.00  0.00    -0.020 C 
HETATM   48  C8  UNL     1       9.127  22.737   2.724  1.00  0.00     0.009 C 
HETATM   49  C9  UNL     1      11.407  23.470   3.070  1.00  0.00     0.009 C 
ENDBRANCH  46  47
ENDBRANCH   6  46
TORSDOF 10
ENDMDL
