MODEL 1
REMARK VINA RESULT: -8.487288744      0.000      0.000
REMARK  8 active torsions:
REMARK  status: ('A' for Active; 'I' for Inactive)
REMARK    1  A    between atoms: C1_2  and  C2_4 
REMARK    2  A    between atoms: C2_4  and  N2_5 
REMARK    3  A    between atoms: N2_5  and  C3_6 
REMARK    4  A    between atoms: N2_5  and  C15_21 
REMARK    5  A    between atoms: C3_6  and  C4_7 
REMARK       I    between atoms: C4_7  and  N3_9 
REMARK    6  A    between atoms: N3_9  and  C5_11 
REMARK    7  A    between atoms: C15_21  and  O3_22 
REMARK    8  A    between atoms: C15_21  and  C16_24 
ROOT
HETATM    1  N2  UNL     1       5.228   3.798  18.833  1.00  0.00    -0.348 N 
ENDROOT
BRANCH   1   2
HETATM    2  C2  UNL     1       4.818   4.273  17.507  1.00  0.00     0.224 C 
BRANCH   2   3
HETATM    3  C1  UNL     1       5.672   5.366  17.022  1.00  0.00     0.248 C 
HETATM    4  N1  UNL     1       6.048   6.473  17.815  1.00  0.00    -0.061 NA
HETATM    5  O1  UNL     1       6.102   5.340  15.849  1.00  0.00    -0.275 OA
ENDBRANCH   2   3
ENDBRANCH   1   2
BRANCH   1   6
HETATM    6  C3  UNL     1       4.258   3.884  19.861  1.00  0.00     0.227 C 
BRANCH   6   7
HETATM    7  C4  UNL     1       4.034   5.257  20.395  1.00  0.00     0.235 C 
HETATM    8  O2  UNL     1       2.848   5.686  20.342  1.00  0.00    -0.272 OA
HETATM    9  N3  UNL     1       5.115   5.971  20.906  1.00  0.00    -0.355 N 
ATOM     10  H3  UNL     1       6.029   5.517  20.895  1.00  0.00     0.162 HD
BRANCH   9  11
HETATM   11  C5  UNL     1       5.040   7.338  21.465  1.00  0.00     0.084 C 
HETATM   12  C6  UNL     1       6.271   7.999  21.037  1.00  0.00     0.025 C 
HETATM   13  C7  UNL     1       7.570   7.615  21.698  1.00  0.00     0.002 C 
HETATM   14  C8  UNL     1       8.190   8.671  22.566  1.00  0.00     0.000 C 
HETATM   15  C9  UNL     1       8.577   8.345  23.953  1.00  0.00     0.000 C 
HETATM   16  C10 UNL     1       7.572   8.768  25.060  1.00  0.00     0.000 C 
HETATM   17  C11 UNL     1       6.288   8.591  24.449  1.00  0.00     0.000 C 
HETATM   18  C12 UNL     1       4.931   8.502  24.985  1.00  0.00     0.000 C 
HETATM   19  C13 UNL     1       4.126   8.324  23.661  1.00  0.00     0.002 C 
HETATM   20  C14 UNL     1       4.528   7.188  22.817  1.00  0.00     0.025 C 
ENDBRANCH   9  11
ENDBRANCH   6   7
ENDBRANCH   1   6
BRANCH   1  21
HETATM   21  C15 UNL     1       6.523   3.338  19.025  1.00  0.00     0.123 C 
BRANCH  21  22
HETATM   22  O3  UNL     1       7.097   3.900  20.078  1.00  0.00    -0.349 OA
ATOM     23  H3  UNL     1       7.025   3.357  20.854  1.00  0.00     0.219 HD
ENDBRANCH  21  22
BRANCH  21  24
HETATM   24  C16 UNL     1       7.356   2.388  18.316  1.00  0.00     0.029 C 
HETATM   25  C17 UNL     1       6.716   1.376  17.438  1.00  0.00     0.023 C 
HETATM   26  C18 UNL     1       7.931   0.922  16.596  1.00  0.00    -0.013 C 
HETATM   27  C19 UNL     1       8.995   0.286  17.425  1.00  0.00     0.009 C 
HETATM   28  C23 UNL     1       8.448   2.283  16.158  1.00  0.00     0.010 C 
HETATM   29  C20 UNL     1       9.330   1.154  18.620  1.00  0.00    -0.013 C 
HETATM   30  C21 UNL     1       9.781   2.519  18.148  1.00  0.00     0.010 C 
HETATM   31  C24 UNL     1       8.094   1.542  19.391  1.00  0.00     0.023 C 
HETATM   32  C22 UNL     1       8.472   3.007  17.507  1.00  0.00     0.003 C 
ENDBRANCH  21  24
ENDBRANCH   1  21
TORSDOF 8
ENDMDL
MODEL 2
REMARK VINA RESULT: -8.136475649      1.249      2.196
REMARK  8 active torsions:
REMARK  status: ('A' for Active; 'I' for Inactive)
REMARK    1  A    between atoms: C1_2  and  C2_4 
REMARK    2  A    between atoms: C2_4  and  N2_5 
REMARK    3  A    between atoms: N2_5  and  C3_6 
REMARK    4  A    between atoms: N2_5  and  C15_21 
REMARK    5  A    between atoms: C3_6  and  C4_7 
REMARK       I    between atoms: C4_7  and  N3_9 
REMARK    6  A    between atoms: N3_9  and  C5_11 
REMARK    7  A    between atoms: C15_21  and  O3_22 
REMARK    8  A    between atoms: C15_21  and  C16_24 
ROOT
HETATM    1  N2  UNL     1       4.965   3.512  19.532  1.00  0.00    -0.348 N 
ENDROOT
BRANCH   1   2
HETATM    2  C2  UNL     1       4.287   2.658  20.514  1.00  0.00     0.224 C 
BRANCH   2   3
HETATM    3  C1  UNL     1       4.801   2.865  21.876  1.00  0.00     0.248 C 
HETATM    4  N1  UNL     1       4.236   3.778  22.793  1.00  0.00    -0.061 NA
HETATM    5  O1  UNL     1       5.790   2.210  22.268  1.00  0.00    -0.275 OA
ENDBRANCH   2   3
ENDBRANCH   1   2
BRANCH   1   6
HETATM    6  C3  UNL     1       4.144   4.401  18.797  1.00  0.00     0.227 C 
BRANCH   6   7
HETATM    7  C4  UNL     1       4.216   5.824  19.234  1.00  0.00     0.235 C 
HETATM    8  O2  UNL     1       3.967   6.690  18.349  1.00  0.00    -0.272 OA
HETATM    9  N3  UNL     1       4.546   6.111  20.557  1.00  0.00    -0.355 N 
ATOM     10  H3  UNL     1       4.726   5.324  21.180  1.00  0.00     0.162 HD
BRANCH   9  11
HETATM   11  C5  UNL     1       4.654   7.471  21.127  1.00  0.00     0.084 C 
HETATM   12  C6  UNL     1       6.026   7.895  20.855  1.00  0.00     0.025 C 
HETATM   13  C7  UNL     1       7.148   7.283  21.656  1.00  0.00     0.002 C 
HETATM   14  C8  UNL     1       7.843   8.213  22.608  1.00  0.00     0.000 C 
HETATM   15  C9  UNL     1       8.000   7.828  24.025  1.00  0.00     0.000 C 
HETATM   16  C10 UNL     1       6.966   8.431  25.015  1.00  0.00     0.000 C 
HETATM   17  C11 UNL     1       5.751   8.488  24.256  1.00  0.00     0.000 C 
HETATM   18  C12 UNL     1       4.347   8.651  24.630  1.00  0.00     0.000 C 
HETATM   19  C13 UNL     1       3.684   8.616  23.218  1.00  0.00     0.002 C 
HETATM   20  C14 UNL     1       3.969   7.422  22.408  1.00  0.00     0.025 C 
ENDBRANCH   9  11
ENDBRANCH   6   7
ENDBRANCH   1   6
BRANCH   1  21
HETATM   21  C15 UNL     1       6.333   3.385  19.344  1.00  0.00     0.123 C 
BRANCH  21  22
HETATM   22  O3  UNL     1       7.017   4.247  20.079  1.00  0.00    -0.349 OA
ATOM     23  H3  UNL     1       7.515   3.816  20.763  1.00  0.00     0.219 HD
ENDBRANCH  21  22
BRANCH  21  24
HETATM   24  C16 UNL     1       7.146   2.516  18.517  1.00  0.00     0.029 C 
HETATM   25  C17 UNL     1       6.480   1.545  17.611  1.00  0.00     0.023 C 
HETATM   26  C18 UNL     1       7.649   1.193  16.663  1.00  0.00    -0.013 C 
HETATM   27  C19 UNL     1       8.785   0.539  17.376  1.00  0.00     0.009 C 
HETATM   28  C23 UNL     1       8.096   2.598  16.291  1.00  0.00     0.010 C 
HETATM   29  C20 UNL     1       9.172   1.333  18.605  1.00  0.00    -0.013 C 
HETATM   30  C21 UNL     1       9.549   2.742  18.205  1.00  0.00     0.010 C 
HETATM   31  C24 UNL     1       7.978   1.623  19.480  1.00  0.00     0.023 C 
HETATM   32  C22 UNL     1       8.187   3.227  17.685  1.00  0.00     0.003 C 
ENDBRANCH  21  24
ENDBRANCH   1  21
TORSDOF 8
ENDMDL
MODEL 3
REMARK VINA RESULT: -8.031870519      1.724      2.825
REMARK  8 active torsions:
REMARK  status: ('A' for Active; 'I' for Inactive)
REMARK    1  A    between atoms: C1_2  and  C2_4 
REMARK    2  A    between atoms: C2_4  and  N2_5 
REMARK    3  A    between atoms: N2_5  and  C3_6 
REMARK    4  A    between atoms: N2_5  and  C15_21 
REMARK    5  A    between atoms: C3_6  and  C4_7 
REMARK       I    between atoms: C4_7  and  N3_9 
REMARK    6  A    between atoms: N3_9  and  C5_11 
REMARK    7  A    between atoms: C15_21  and  O3_22 
REMARK    8  A    between atoms: C15_21  and  C16_24 
ROOT
HETATM    1  N2  UNL     1       5.798   4.547  18.988  1.00  0.00    -0.348 N 
ENDROOT
BRANCH   1   2
HETATM    2  C2  UNL     1       6.065   5.733  18.168  1.00  0.00     0.224 C 
BRANCH   2   3
HETATM    3  C1  UNL     1       6.430   6.900  18.983  1.00  0.00     0.248 C 
HETATM    4  N1  UNL     1       7.114   6.808  20.215  1.00  0.00    -0.061 NA
HETATM    5  O1  UNL     1       6.131   8.047  18.588  1.00  0.00    -0.275 OA
ENDBRANCH   2   3
ENDBRANCH   1   2
BRANCH   1   6
HETATM    6  C3  UNL     1       4.491   4.428  19.519  1.00  0.00     0.227 C 
BRANCH   6   7
HETATM    7  C4  UNL     1       4.406   4.550  21.002  1.00  0.00     0.235 C 
HETATM    8  O2  UNL     1       4.433   3.466  21.650  1.00  0.00    -0.272 OA
HETATM    9  N3  UNL     1       4.304   5.816  21.575  1.00  0.00    -0.355 N 
ATOM     10  H3  UNL     1       4.292   6.619  20.946  1.00  0.00     0.162 HD
BRANCH   9  11
HETATM   11  C5  UNL     1       4.211   6.084  23.026  1.00  0.00     0.084 C 
HETATM   12  C6  UNL     1       2.782   6.079  23.329  1.00  0.00     0.025 C 
HETATM   13  C7  UNL     1       1.939   7.247  22.884  1.00  0.00     0.002 C 
HETATM   14  C8  UNL     1       1.407   8.116  23.986  1.00  0.00     0.000 C 
HETATM   15  C9  UNL     1       1.623   9.576  23.937  1.00  0.00     0.000 C 
HETATM   16  C10 UNL     1       2.803  10.121  24.788  1.00  0.00     0.000 C 
HETATM   17  C11 UNL     1       3.795   9.090  24.707  1.00  0.00     0.000 C 
HETATM   18  C12 UNL     1       5.227   9.058  24.998  1.00  0.00     0.000 C 
HETATM   19  C13 UNL     1       5.540   7.567  24.657  1.00  0.00     0.002 C 
HETATM   20  C14 UNL     1       5.180   7.133  23.299  1.00  0.00     0.025 C 
ENDBRANCH   9  11
ENDBRANCH   6   7
ENDBRANCH   1   6
BRANCH   1  21
HETATM   21  C15 UNL     1       6.820   3.642  19.235  1.00  0.00     0.123 C 
BRANCH  21  22
HETATM   22  O3  UNL     1       7.318   3.777  20.455  1.00  0.00    -0.349 OA
ATOM     23  H3  UNL     1       7.920   3.076  20.673  1.00  0.00     0.219 HD
ENDBRANCH  21  22
BRANCH  21  24
HETATM   24  C16 UNL     1       7.441   2.602  18.440  1.00  0.00     0.029 C 
HETATM   25  C17 UNL     1       6.590   1.745  17.576  1.00  0.00     0.023 C 
HETATM   26  C18 UNL     1       7.659   1.138  16.638  1.00  0.00    -0.013 C 
HETATM   27  C19 UNL     1       8.655   0.304  17.371  1.00  0.00     0.009 C 
HETATM   28  C23 UNL     1       8.364   2.416  16.209  1.00  0.00     0.010 C 
HETATM   29  C20 UNL     1       9.201   1.054  18.567  1.00  0.00    -0.013 C 
HETATM   30  C21 UNL     1       9.839   2.347  18.111  1.00  0.00     0.010 C 
HETATM   31  C24 UNL     1       8.096   1.602  19.434  1.00  0.00     0.023 C 
HETATM   32  C22 UNL     1       8.590   3.067  17.577  1.00  0.00     0.003 C 
ENDBRANCH  21  24
ENDBRANCH   1  21
TORSDOF 8
ENDMDL
MODEL 4
REMARK VINA RESULT: -8.029914657      2.295      3.937
REMARK  8 active torsions:
REMARK  status: ('A' for Active; 'I' for Inactive)
REMARK    1  A    between atoms: C1_2  and  C2_4 
REMARK    2  A    between atoms: C2_4  and  N2_5 
REMARK    3  A    between atoms: N2_5  and  C3_6 
REMARK    4  A    between atoms: N2_5  and  C15_21 
REMARK    5  A    between atoms: C3_6  and  C4_7 
REMARK       I    between atoms: C4_7  and  N3_9 
REMARK    6  A    between atoms: N3_9  and  C5_11 
REMARK    7  A    between atoms: C15_21  and  O3_22 
REMARK    8  A    between atoms: C15_21  and  C16_24 
ROOT
HETATM    1  N2  UNL     1       5.667   5.087  19.760  1.00  0.00    -0.348 N 
ENDROOT
BRANCH   1   2
HETATM    2  C2  UNL     1       5.768   6.427  19.174  1.00  0.00     0.224 C 
BRANCH   2   3
HETATM    3  C1  UNL     1       6.616   7.320  19.976  1.00  0.00     0.248 C 
HETATM    4  N1  UNL     1       6.561   7.390  21.385  1.00  0.00    -0.061 NA
HETATM    5  O1  UNL     1       7.439   8.068  19.405  1.00  0.00    -0.275 OA
ENDBRANCH   2   3
ENDBRANCH   1   2
BRANCH   1   6
HETATM    6  C3  UNL     1       4.395   4.710  20.256  1.00  0.00     0.227 C 
BRANCH   6   7
HETATM    7  C4  UNL     1       4.269   4.746  21.741  1.00  0.00     0.235 C 
HETATM    8  O2  UNL     1       4.587   3.687  22.351  1.00  0.00    -0.272 OA
HETATM    9  N3  UNL     1       3.818   5.912  22.356  1.00  0.00    -0.355 N 
ATOM     10  H3  UNL     1       3.591   6.705  21.754  1.00  0.00     0.162 HD
BRANCH   9  11
HETATM   11  C5  UNL     1       3.644   6.089  23.813  1.00  0.00     0.084 C 
HETATM   12  C6  UNL     1       2.364   5.458  24.128  1.00  0.00     0.025 C 
HETATM   13  C7  UNL     1       1.090   6.153  23.718  1.00  0.00     0.002 C 
HETATM   14  C8  UNL     1       0.254   6.686  24.844  1.00  0.00     0.000 C 
HETATM   15  C9  UNL     1      -0.186   8.095  24.827  1.00  0.00     0.000 C 
HETATM   16  C10 UNL     1       0.655   9.084  25.680  1.00  0.00     0.000 C 
HETATM   17  C11 UNL     1       1.995   8.587  25.567  1.00  0.00     0.000 C 
HETATM   18  C12 UNL     1       3.304   9.174  25.845  1.00  0.00     0.000 C 
HETATM   19  C13 UNL     1       4.227   7.974  25.467  1.00  0.00     0.002 C 
HETATM   20  C14 UNL     1       4.066   7.450  24.102  1.00  0.00     0.025 C 
ENDBRANCH   9  11
ENDBRANCH   6   7
ENDBRANCH   1   6
BRANCH   1  21
HETATM   21  C15 UNL     1       6.798   4.287  19.838  1.00  0.00     0.123 C 
BRANCH  21  22
HETATM   22  O3  UNL     1       7.315   4.277  21.057  1.00  0.00    -0.349 OA
ATOM     23  H3  UNL     1       8.246   4.463  21.050  1.00  0.00     0.219 HD
ENDBRANCH  21  22
BRANCH  21  24
HETATM   24  C16 UNL     1       7.512   3.479  18.871  1.00  0.00     0.029 C 
HETATM   25  C17 UNL     1       8.977   3.661  18.713  1.00  0.00     0.023 C 
HETATM   26  C18 UNL     1       9.346   2.361  17.964  1.00  0.00    -0.013 C 
HETATM   27  C19 UNL     1       8.692   2.267  16.626  1.00  0.00     0.009 C 
HETATM   28  C23 UNL     1       8.666   1.351  18.874  1.00  0.00     0.010 C 
HETATM   29  C20 UNL     1       7.208   2.544  16.738  1.00  0.00    -0.013 C 
HETATM   30  C21 UNL     1       6.576   1.561  17.699  1.00  0.00     0.010 C 
HETATM   31  C24 UNL     1       6.935   3.834  17.472  1.00  0.00     0.023 C 
HETATM   32  C22 UNL     1       7.280   1.991  18.995  1.00  0.00     0.003 C 
ENDBRANCH  21  24
ENDBRANCH   1  21
TORSDOF 8
ENDMDL
MODEL 5
REMARK VINA RESULT: -7.975972633      2.306      3.704
REMARK  8 active torsions:
REMARK  status: ('A' for Active; 'I' for Inactive)
REMARK    1  A    between atoms: C1_2  and  C2_4 
REMARK    2  A    between atoms: C2_4  and  N2_5 
REMARK    3  A    between atoms: N2_5  and  C3_6 
REMARK    4  A    between atoms: N2_5  and  C15_21 
REMARK    5  A    between atoms: C3_6  and  C4_7 
REMARK       I    between atoms: C4_7  and  N3_9 
REMARK    6  A    between atoms: N3_9  and  C5_11 
REMARK    7  A    between atoms: C15_21  and  O3_22 
REMARK    8  A    between atoms: C15_21  and  C16_24 
ROOT
HETATM    1  N2  UNL     1       5.343   4.727  19.861  1.00  0.00    -0.348 N 
ENDROOT
BRANCH   1   2
HETATM    2  C2  UNL     1       5.459   6.041  19.220  1.00  0.00     0.224 C 
BRANCH   2   3
HETATM    3  C1  UNL     1       6.380   6.930  19.941  1.00  0.00     0.248 C 
HETATM    4  N1  UNL     1       6.430   7.026  21.349  1.00  0.00    -0.061 NA
HETATM    5  O1  UNL     1       7.173   7.652  19.298  1.00  0.00    -0.275 OA
ENDBRANCH   2   3
ENDBRANCH   1   2
BRANCH   1   6
HETATM    6  C3  UNL     1       4.093   4.423  20.453  1.00  0.00     0.227 C 
BRANCH   6   7
HETATM    7  C4  UNL     1       4.054   4.560  21.936  1.00  0.00     0.235 C 
HETATM    8  O2  UNL     1       4.462   3.564  22.597  1.00  0.00    -0.272 OA
HETATM    9  N3  UNL     1       3.583   5.746  22.497  1.00  0.00    -0.355 N 
ATOM     10  H3  UNL     1       3.281   6.482  21.858  1.00  0.00     0.162 HD
BRANCH   9  11
HETATM   11  C5  UNL     1       3.488   6.019  23.947  1.00  0.00     0.084 C 
HETATM   12  C6  UNL     1       2.231   5.409  24.373  1.00  0.00     0.025 C 
HETATM   13  C7  UNL     1       0.933   6.073  23.988  1.00  0.00     0.002 C 
HETATM   14  C8  UNL     1       0.157   6.679  25.121  1.00  0.00     0.000 C 
HETATM   15  C9  UNL     1      -0.289   8.084  25.034  1.00  0.00     0.000 C 
HETATM   16  C10 UNL     1       0.593   9.128  25.773  1.00  0.00     0.000 C 
HETATM   17  C11 UNL     1       1.927   8.625  25.619  1.00  0.00     0.000 C 
HETATM   18  C12 UNL     1       3.247   9.231  25.785  1.00  0.00     0.000 C 
HETATM   19  C13 UNL     1       4.153   8.009  25.438  1.00  0.00     0.002 C 
HETATM   20  C14 UNL     1       3.920   7.396  24.122  1.00  0.00     0.025 C 
ENDBRANCH   9  11
ENDBRANCH   6   7
ENDBRANCH   1   6
BRANCH   1  21
HETATM   21  C15 UNL     1       6.443   3.883  19.897  1.00  0.00     0.123 C 
BRANCH  21  22
HETATM   22  O3  UNL     1       7.090   3.959  21.049  1.00  0.00    -0.349 OA
ATOM     23  H3  UNL     1       7.429   3.115  21.323  1.00  0.00     0.219 HD
ENDBRANCH  21  22
BRANCH  21  24
HETATM   24  C16 UNL     1       7.015   2.956  18.941  1.00  0.00     0.029 C 
HETATM   25  C17 UNL     1       6.112   2.130  18.101  1.00  0.00     0.023 C 
HETATM   26  C18 UNL     1       7.091   1.674  16.995  1.00  0.00    -0.013 C 
HETATM   27  C19 UNL     1       8.207   0.839  17.528  1.00  0.00     0.009 C 
HETATM   28  C23 UNL     1       7.677   3.024  16.613  1.00  0.00     0.010 C 
HETATM   29  C20 UNL     1       8.853   1.511  18.721  1.00  0.00    -0.013 C 
HETATM   30  C21 UNL     1       9.368   2.876  18.319  1.00  0.00     0.010 C 
HETATM   31  C24 UNL     1       7.832   1.914  19.755  1.00  0.00     0.023 C 
HETATM   32  C22 UNL     1       8.031   3.564  18.001  1.00  0.00     0.003 C 
ENDBRANCH  21  24
ENDBRANCH   1  21
TORSDOF 8
ENDMDL
