MODEL 1
REMARK VINA RESULT: -8.952764219      0.000      0.000
REMARK  6 active torsions:
REMARK  status: ('A' for Active; 'I' for Inactive)
REMARK       I    between atoms: C1_2  and  N1_3 
REMARK    1  A    between atoms: C1_2  and  C10_16 
REMARK    2  A    between atoms: N1_3  and  C2_5 
REMARK    3  A    between atoms: C2_5  and  C3_6 
REMARK       I    between atoms: C3_6  and  N2_8 
REMARK    4  A    between atoms: N2_8  and  C4_10 
REMARK    5  A    between atoms: C4_10  and  C5_11 
REMARK       I    between atoms: N3_23  and  C17_24 
REMARK    6  A    between atoms: C17_24  and  C18_26 
ROOT
HETATM    1  C10 UNL     1       6.925   6.357  20.519  1.00  0.00     0.082 C 
HETATM    2  C11 UNL     1       5.732   6.775  19.689  1.00  0.00     0.039 C 
HETATM    3  C12 UNL     1       5.018   5.582  19.088  1.00  0.00     0.088 C 
HETATM    4  C13 UNL     1       4.115   5.011  20.136  1.00  0.00     0.027 C 
HETATM    5  C14 UNL     1       4.759   3.703  20.543  1.00  0.00     0.027 C 
HETATM    6  C15 UNL     1       6.227   3.977  20.176  1.00  0.00     0.088 C 
HETATM    7  C16 UNL     1       6.708   5.011  21.174  1.00  0.00     0.039 C 
HETATM    8  N3  UNL     1       6.057   4.565  18.858  1.00  0.00    -0.342 N 
HETATM    9  C17 UNL     1       6.672   4.291  17.625  1.00  0.00     0.224 C 
HETATM   10  O3  UNL     1       6.298   4.969  16.610  1.00  0.00    -0.273 OA
ENDROOT
BRANCH   1  11
HETATM   11  C1  UNL     1       7.161   7.342  21.603  1.00  0.00     0.223 C 
HETATM   12  O1  UNL     1       7.541   8.493  21.280  1.00  0.00    -0.273 OA
HETATM   13  N1  UNL     1       6.967   7.011  22.957  1.00  0.00    -0.343 N 
ATOM     14  H1  UNL     1       6.663   6.058  23.156  1.00  0.00     0.163 HD
BRANCH  13  15
HETATM   15  C2  UNL     1       7.154   7.876  24.086  1.00  0.00     0.114 A 
HETATM   16  C8  UNL     1       8.242   8.904  24.064  1.00  0.00     0.044 A 
HETATM   17  C9  UNL     1       8.411   7.687  24.899  1.00  0.00     0.044 A 
BRANCH  15  18
HETATM   18  C3  UNL     1       5.929   8.294  24.791  1.00  0.00     0.246 C 
HETATM   19  O2  UNL     1       5.860   9.510  25.168  1.00  0.00    -0.271 OA
HETATM   20  N2  UNL     1       4.872   7.412  25.050  1.00  0.00    -0.359 N 
ATOM     21  H2  UNL     1       4.940   6.439  24.751  1.00  0.00     0.162 HD
BRANCH  20  22
HETATM   22  C4  UNL     1       3.684   7.868  25.739  1.00  0.00     0.127 C 
BRANCH  22  23
HETATM   23  C5  UNL     1       2.658   8.307  24.720  1.00  0.00     0.003 A 
HETATM   24  C6  UNL     1       2.390   9.758  24.534  1.00  0.00     0.007 A 
HETATM   25  C7  UNL     1       1.420   8.994  25.360  1.00  0.00     0.007 A 
ENDBRANCH  22  23
ENDBRANCH  20  22
ENDBRANCH  15  18
ENDBRANCH  13  15
ENDBRANCH   1  11
BRANCH   9  26
HETATM   26  C18 UNL     1       7.715   3.285  17.406  1.00  0.00     0.078 C 
HETATM   27  C19 UNL     1       7.102   1.911  17.546  1.00  0.00     0.014 C 
HETATM   28  C20 UNL     1       8.136   0.804  17.474  1.00  0.00     0.001 C 
HETATM   29  C21 UNL     1       9.160   0.969  18.573  1.00  0.00     0.000 C 
HETATM   30  C22 UNL     1       9.835   2.321  18.319  1.00  0.00     0.001 C 
HETATM   31  C23 UNL     1       8.806   3.396  18.434  1.00  0.00     0.014 C 
ENDBRANCH   9  26
TORSDOF 6
ENDMDL
MODEL 2
REMARK VINA RESULT: -8.843001457      1.818      3.699
REMARK  6 active torsions:
REMARK  status: ('A' for Active; 'I' for Inactive)
REMARK       I    between atoms: C1_2  and  N1_3 
REMARK    1  A    between atoms: C1_2  and  C10_16 
REMARK    2  A    between atoms: N1_3  and  C2_5 
REMARK    3  A    between atoms: C2_5  and  C3_6 
REMARK       I    between atoms: C3_6  and  N2_8 
REMARK    4  A    between atoms: N2_8  and  C4_10 
REMARK    5  A    between atoms: C4_10  and  C5_11 
REMARK       I    between atoms: N3_23  and  C17_24 
REMARK    6  A    between atoms: C17_24  and  C18_26 
ROOT
HETATM    1  C10 UNL     1       6.822   6.369  20.186  1.00  0.00     0.082 C 
HETATM    2  C11 UNL     1       5.646   6.731  19.307  1.00  0.00     0.039 C 
HETATM    3  C12 UNL     1       4.971   5.503  18.735  1.00  0.00     0.088 C 
HETATM    4  C13 UNL     1       4.049   4.957  19.780  1.00  0.00     0.027 C 
HETATM    5  C14 UNL     1       4.703   3.679  20.257  1.00  0.00     0.027 C 
HETATM    6  C15 UNL     1       6.176   3.965  19.920  1.00  0.00     0.088 C 
HETATM    7  C16 UNL     1       6.611   5.046  20.889  1.00  0.00     0.039 C 
HETATM    8  N3  UNL     1       6.033   4.496  18.576  1.00  0.00    -0.342 N 
HETATM    9  C17 UNL     1       6.687   4.185  17.372  1.00  0.00     0.224 C 
HETATM   10  O3  UNL     1       6.331   4.815  16.321  1.00  0.00    -0.273 OA
ENDROOT
BRANCH   1  11
HETATM   11  C1  UNL     1       7.010   7.401  21.235  1.00  0.00     0.223 C 
HETATM   12  O1  UNL     1       7.012   8.605  20.884  1.00  0.00    -0.273 OA
HETATM   13  N1  UNL     1       7.183   7.055  22.588  1.00  0.00    -0.343 N 
ATOM     14  H1  UNL     1       7.179   6.060  22.811  1.00  0.00     0.163 HD
BRANCH  13  15
HETATM   15  C2  UNL     1       7.364   7.959  23.688  1.00  0.00     0.114 A 
HETATM   16  C8  UNL     1       6.617   7.736  24.966  1.00  0.00     0.044 A 
HETATM   17  C9  UNL     1       6.193   8.835  24.061  1.00  0.00     0.044 A 
BRANCH  15  18
HETATM   18  C3  UNL     1       8.721   8.508  23.858  1.00  0.00     0.246 C 
HETATM   19  O2  UNL     1       9.211   9.164  22.881  1.00  0.00    -0.271 OA
HETATM   20  N2  UNL     1       9.464   8.327  25.033  1.00  0.00    -0.359 N 
ATOM     21  H2  UNL     1       9.066   7.794  25.806  1.00  0.00     0.162 HD
BRANCH  20  22
HETATM   22  C4  UNL     1      10.790   8.891  25.159  1.00  0.00     0.127 C 
BRANCH  22  23
HETATM   23  C5  UNL     1      11.296   8.657  26.564  1.00  0.00     0.003 A 
HETATM   24  C6  UNL     1      12.344   7.628  26.799  1.00  0.00     0.007 A 
HETATM   25  C7  UNL     1      10.942   7.246  27.110  1.00  0.00     0.007 A 
ENDBRANCH  22  23
ENDBRANCH  20  22
ENDBRANCH  15  18
ENDBRANCH  13  15
ENDBRANCH   1  11
BRANCH   9  26
HETATM   26  C18 UNL     1       7.753   3.190  17.222  1.00  0.00     0.078 C 
HETATM   27  C19 UNL     1       7.155   1.811  17.368  1.00  0.00     0.014 C 
HETATM   28  C20 UNL     1       8.207   0.719  17.367  1.00  0.00     0.001 C 
HETATM   29  C21 UNL     1       9.179   0.925  18.507  1.00  0.00     0.000 C 
HETATM   30  C22 UNL     1       9.845   2.280  18.250  1.00  0.00     0.001 C 
HETATM   31  C23 UNL     1       8.796   3.342  18.295  1.00  0.00     0.014 C 
ENDBRANCH   9  26
TORSDOF 6
ENDMDL
MODEL 3
REMARK VINA RESULT: -8.709234501      1.024      1.069
REMARK  6 active torsions:
REMARK  status: ('A' for Active; 'I' for Inactive)
REMARK       I    between atoms: C1_2  and  N1_3 
REMARK    1  A    between atoms: C1_2  and  C10_16 
REMARK    2  A    between atoms: N1_3  and  C2_5 
REMARK    3  A    between atoms: C2_5  and  C3_6 
REMARK       I    between atoms: C3_6  and  N2_8 
REMARK    4  A    between atoms: N2_8  and  C4_10 
REMARK    5  A    between atoms: C4_10  and  C5_11 
REMARK       I    between atoms: N3_23  and  C17_24 
REMARK    6  A    between atoms: C17_24  and  C18_26 
ROOT
HETATM    1  C10 UNL     1       6.219   5.902  20.179  1.00  0.00     0.082 C 
HETATM    2  C11 UNL     1       5.006   6.057  19.289  1.00  0.00     0.039 C 
HETATM    3  C12 UNL     1       4.555   4.731  18.714  1.00  0.00     0.088 C 
HETATM    4  C13 UNL     1       3.730   4.037  19.752  1.00  0.00     0.027 C 
HETATM    5  C14 UNL     1       4.589   2.889  20.238  1.00  0.00     0.027 C 
HETATM    6  C15 UNL     1       5.995   3.422  19.913  1.00  0.00     0.088 C 
HETATM    7  C16 UNL     1       6.230   4.563  20.883  1.00  0.00     0.039 C 
HETATM    8  N3  UNL     1       5.775   3.920  18.566  1.00  0.00    -0.342 N 
HETATM    9  C17 UNL     1       6.484   3.724  17.369  1.00  0.00     0.224 C 
HETATM   10  O3  UNL     1       6.034   4.283  16.313  1.00  0.00    -0.273 OA
ENDROOT
BRANCH   1  11
HETATM   11  C1  UNL     1       6.218   6.951  21.227  1.00  0.00     0.223 C 
HETATM   12  O1  UNL     1       5.646   8.038  20.973  1.00  0.00    -0.273 OA
HETATM   13  N1  UNL     1       6.836   6.749  22.475  1.00  0.00    -0.343 N 
ATOM     14  H1  UNL     1       7.290   5.847  22.620  1.00  0.00     0.163 HD
BRANCH  13  15
HETATM   15  C2  UNL     1       6.894   7.681  23.564  1.00  0.00     0.114 A 
HETATM   16  C8  UNL     1       7.749   8.905  23.451  1.00  0.00     0.044 A 
HETATM   17  C9  UNL     1       8.199   7.784  24.315  1.00  0.00     0.044 A 
BRANCH  15  18
HETATM   18  C3  UNL     1       5.643   7.873  24.319  1.00  0.00     0.246 C 
HETATM   19  O2  UNL     1       5.082   6.831  24.792  1.00  0.00    -0.271 OA
HETATM   20  N2  UNL     1       5.072   9.137  24.521  1.00  0.00    -0.359 N 
ATOM     21  H2  UNL     1       5.525   9.965  24.132  1.00  0.00     0.162 HD
BRANCH  20  22
HETATM   22  C4  UNL     1       3.846   9.279  25.276  1.00  0.00     0.127 C 
BRANCH  22  23
HETATM   23  C5  UNL     1       2.673   9.256  24.324  1.00  0.00     0.003 A 
HETATM   24  C6  UNL     1       1.305   9.512  24.846  1.00  0.00     0.007 A 
HETATM   25  C7  UNL     1       1.681   8.094  24.610  1.00  0.00     0.007 A 
ENDBRANCH  22  23
ENDBRANCH  20  22
ENDBRANCH  15  18
ENDBRANCH  13  15
ENDBRANCH   1  11
BRANCH   9  26
HETATM   26  C18 UNL     1       7.705   2.926  17.231  1.00  0.00     0.078 C 
HETATM   27  C19 UNL     1       7.346   1.464  17.348  1.00  0.00     0.014 C 
HETATM   28  C20 UNL     1       8.568   0.565  17.357  1.00  0.00     0.001 C 
HETATM   29  C21 UNL     1       9.468   0.914  18.519  1.00  0.00     0.000 C 
HETATM   30  C22 UNL     1       9.901   2.367  18.293  1.00  0.00     0.001 C 
HETATM   31  C23 UNL     1       8.687   3.236  18.327  1.00  0.00     0.014 C 
ENDBRANCH   9  26
TORSDOF 6
ENDMDL
MODEL 4
REMARK VINA RESULT: -8.575985554      1.255      3.255
REMARK  6 active torsions:
REMARK  status: ('A' for Active; 'I' for Inactive)
REMARK       I    between atoms: C1_2  and  N1_3 
REMARK    1  A    between atoms: C1_2  and  C10_16 
REMARK    2  A    between atoms: N1_3  and  C2_5 
REMARK    3  A    between atoms: C2_5  and  C3_6 
REMARK       I    between atoms: C3_6  and  N2_8 
REMARK    4  A    between atoms: N2_8  and  C4_10 
REMARK    5  A    between atoms: C4_10  and  C5_11 
REMARK       I    between atoms: N3_23  and  C17_24 
REMARK    6  A    between atoms: C17_24  and  C18_26 
ROOT
HETATM    1  C10 UNL     1       6.387   5.758  20.788  1.00  0.00     0.082 C 
HETATM    2  C11 UNL     1       5.340   6.352  19.872  1.00  0.00     0.039 C 
HETATM    3  C12 UNL     1       4.741   5.309  18.951  1.00  0.00     0.088 C 
HETATM    4  C13 UNL     1       3.686   4.573  19.715  1.00  0.00     0.027 C 
HETATM    5  C14 UNL     1       4.265   3.197  19.965  1.00  0.00     0.027 C 
HETATM    6  C15 UNL     1       5.772   3.502  19.894  1.00  0.00     0.088 C 
HETATM    7  C16 UNL     1       6.078   4.319  21.134  1.00  0.00     0.039 C 
HETATM    8  N3  UNL     1       5.811   4.329  18.702  1.00  0.00    -0.342 N 
HETATM    9  C17 UNL     1       6.618   4.278  17.553  1.00  0.00     0.224 C 
HETATM   10  O3  UNL     1       6.408   5.142  16.638  1.00  0.00    -0.273 OA
ENDROOT
BRANCH   1  11
HETATM   11  C1  UNL     1       6.438   6.518  22.061  1.00  0.00     0.223 C 
HETATM   12  O1  UNL     1       7.494   6.466  22.737  1.00  0.00    -0.273 OA
HETATM   13  N1  UNL     1       5.343   7.279  22.511  1.00  0.00    -0.343 N 
ATOM     14  H1  UNL     1       4.511   7.277  21.921  1.00  0.00     0.163 HD
BRANCH  13  15
HETATM   15  C2  UNL     1       5.277   8.057  23.714  1.00  0.00     0.114 A 
HETATM   16  C8  UNL     1       4.480   7.559  24.879  1.00  0.00     0.044 A 
HETATM   17  C9  UNL     1       3.946   8.678  24.061  1.00  0.00     0.044 A 
BRANCH  15  18
HETATM   18  C3  UNL     1       6.500   8.794  24.077  1.00  0.00     0.246 C 
HETATM   19  O2  UNL     1       6.697   9.024  25.315  1.00  0.00    -0.271 OA
HETATM   20  N2  UNL     1       7.424   9.237  23.120  1.00  0.00    -0.359 N 
ATOM     21  H2  UNL     1       7.254   9.055  22.130  1.00  0.00     0.162 HD
BRANCH  20  22
HETATM   22  C4  UNL     1       8.616   9.951  23.522  1.00  0.00     0.127 C 
BRANCH  22  23
HETATM   23  C5  UNL     1       9.698   8.953  23.864  1.00  0.00     0.003 A 
HETATM   24  C6  UNL     1       9.985   8.648  25.291  1.00  0.00     0.007 A 
HETATM   25  C7  UNL     1      10.904   9.594  24.606  1.00  0.00     0.007 A 
ENDBRANCH  22  23
ENDBRANCH  20  22
ENDBRANCH  15  18
ENDBRANCH  13  15
ENDBRANCH   1  11
BRANCH   9  26
HETATM   26  C18 UNL     1       7.691   3.307  17.317  1.00  0.00     0.078 C 
HETATM   27  C19 UNL     1       7.097   1.918  17.316  1.00  0.00     0.014 C 
HETATM   28  C20 UNL     1       8.155   0.835  17.218  1.00  0.00     0.001 C 
HETATM   29  C21 UNL     1       9.111   0.928  18.384  1.00  0.00     0.000 C 
HETATM   30  C22 UNL     1       9.775   2.305  18.273  1.00  0.00     0.001 C 
HETATM   31  C23 UNL     1       8.721   3.354  18.412  1.00  0.00     0.014 C 
ENDBRANCH   9  26
TORSDOF 6
ENDMDL
MODEL 5
REMARK VINA RESULT: -8.544342126      1.496      3.444
REMARK  6 active torsions:
REMARK  status: ('A' for Active; 'I' for Inactive)
REMARK       I    between atoms: C1_2  and  N1_3 
REMARK    1  A    between atoms: C1_2  and  C10_16 
REMARK    2  A    between atoms: N1_3  and  C2_5 
REMARK    3  A    between atoms: C2_5  and  C3_6 
REMARK       I    between atoms: C3_6  and  N2_8 
REMARK    4  A    between atoms: N2_8  and  C4_10 
REMARK    5  A    between atoms: C4_10  and  C5_11 
REMARK       I    between atoms: N3_23  and  C17_24 
REMARK    6  A    between atoms: C17_24  and  C18_26 
ROOT
HETATM    1  C10 UNL     1       5.618   5.531  20.808  1.00  0.00     0.082 C 
HETATM    2  C11 UNL     1       4.252   4.934  20.550  1.00  0.00     0.039 C 
HETATM    3  C12 UNL     1       4.313   3.429  20.403  1.00  0.00     0.088 C 
HETATM    4  C13 UNL     1       4.336   2.834  21.776  1.00  0.00     0.027 C 
HETATM    5  C14 UNL     1       5.742   2.305  21.956  1.00  0.00     0.027 C 
HETATM    6  C15 UNL     1       6.514   3.199  20.970  1.00  0.00     0.088 C 
HETATM    7  C16 UNL     1       6.505   4.583  21.586  1.00  0.00     0.039 C 
HETATM    8  N3  UNL     1       5.632   3.134  19.819  1.00  0.00    -0.342 N 
HETATM    9  C17 UNL     1       5.880   2.858  18.464  1.00  0.00     0.224 C 
HETATM   10  O3  UNL     1       4.884   2.850  17.666  1.00  0.00    -0.273 OA
ENDROOT
BRANCH   1  11
HETATM   11  C1  UNL     1       5.487   6.772  21.610  1.00  0.00     0.223 C 
HETATM   12  O1  UNL     1       5.576   7.872  21.013  1.00  0.00    -0.273 OA
HETATM   13  N1  UNL     1       5.268   6.734  22.999  1.00  0.00    -0.343 N 
ATOM     14  H1  UNL     1       5.211   5.810  23.429  1.00  0.00     0.163 HD
BRANCH  13  15
HETATM   15  C2  UNL     1       5.118   7.860  23.875  1.00  0.00     0.114 A 
HETATM   16  C8  UNL     1       4.149   7.794  25.014  1.00  0.00     0.044 A 
HETATM   17  C9  UNL     1       3.808   8.607  23.819  1.00  0.00     0.044 A 
BRANCH  15  18
HETATM   18  C3  UNL     1       6.343   8.630  24.155  1.00  0.00     0.246 C 
HETATM   19  O2  UNL     1       6.512   9.041  25.350  1.00  0.00    -0.271 OA
HETATM   20  N2  UNL     1       7.296   8.915  23.168  1.00  0.00    -0.359 N 
ATOM     21  H2  UNL     1       7.148   8.588  22.213  1.00  0.00     0.162 HD
BRANCH  20  22
HETATM   22  C4  UNL     1       8.488   9.668  23.491  1.00  0.00     0.127 C 
BRANCH  22  23
HETATM   23  C5  UNL     1       9.552   8.719  23.993  1.00  0.00     0.003 A 
HETATM   24  C6  UNL     1       9.898   8.711  25.439  1.00  0.00     0.007 A 
HETATM   25  C7  UNL     1      10.813   9.450  24.532  1.00  0.00     0.007 A 
ENDBRANCH  22  23
ENDBRANCH  20  22
ENDBRANCH  15  18
ENDBRANCH  13  15
ENDBRANCH   1  11
BRANCH   9  26
HETATM   26  C18 UNL     1       7.198   2.578  17.886  1.00  0.00     0.078 C 
HETATM   27  C19 UNL     1       7.353   1.083  17.732  1.00  0.00     0.014 C 
HETATM   28  C20 UNL     1       8.743   0.688  17.271  1.00  0.00     0.001 C 
HETATM   29  C21 UNL     1       9.780   1.162  18.263  1.00  0.00     0.000 C 
HETATM   30  C22 UNL     1       9.663   2.690  18.295  1.00  0.00     0.001 C 
HETATM   31  C23 UNL     1       8.302   3.053  18.789  1.00  0.00     0.014 C 
ENDBRANCH   9  26
TORSDOF 6
ENDMDL
