MODEL 1
REMARK VINA RESULT: -9.721859319      0.000      0.000
REMARK  15 active torsions:
REMARK  status: ('A' for Active; 'I' for Inactive)
REMARK    1  A    between atoms: C6_6  and  N1_7 
REMARK       I    between atoms: N1_7  and  C7_9 
REMARK    2  A    between atoms: C7_9  and  C8_11 
REMARK    3  A    between atoms: C10_17  and  C11_18 
REMARK    4  A    between atoms: C11_18  and  C12_19 
REMARK    5  A    between atoms: C12_19  and  C13_20 
REMARK    6  A    between atoms: C13_20  and  C14_21 
REMARK    7  A    between atoms: C14_21  and  C15_22 
REMARK    8  A    between atoms: C17_24  and  N4_25 
REMARK    9  A    between atoms: N4_25  and  C18_27 
REMARK   10  A    between atoms: C18_27  and  C19_28 
REMARK   11  A    between atoms: C19_28  and  C20_29 
REMARK   12  A    between atoms: C20_29  and  N5_30 
REMARK   13  A    between atoms: C23_35  and  N7_36 
REMARK   14  A    between atoms: N7_36  and  C24_38 
REMARK   15  A    between atoms: C24_38  and  C25_39 
REMARK       I    between atoms: N8_43  and  C29_44 
ROOT
HETATM    1  C15 UNL     1      13.572  22.739   4.381  1.00  0.00     0.030 A 
HETATM    2  C16 UNL     1      13.669  23.534   5.498  1.00  0.00     0.074 A 
HETATM    3  C17 UNL     1      13.127  24.802   5.468  1.00  0.00     0.118 A 
HETATM    4  N6  UNL     1      12.524  25.210   4.342  1.00  0.00    -0.177 N 
ATOM      5  H6  UNL     1      12.125  26.148   4.323  1.00  0.00     0.185 HD
HETATM    6  C23 UNL     1      12.414  24.457   3.240  1.00  0.00     0.679 A 
HETATM    7  N11 UNL     1      12.956  23.217   3.298  1.00  0.00    -0.196 N 
ATOM      8  H11 UNL     1      12.889  22.619   2.475  1.00  0.00     0.184 HD
ENDROOT
BRANCH   1   9
HETATM    9  C14 UNL     1      14.156  21.377   4.407  1.00  0.00     0.058 C 
BRANCH   9  10
HETATM   10  C13 UNL     1      14.896  21.131   3.125  1.00  0.00     0.006 C 
BRANCH  10  11
HETATM   11  C12 UNL     1      15.214  19.663   2.936  1.00  0.00     0.006 C 
BRANCH  11  12
HETATM   12  C11 UNL     1      15.614  19.063   4.241  1.00  0.00     0.059 C 
BRANCH  12  13
HETATM   13  C10 UNL     1      16.958  18.447   4.171  1.00  0.00     0.043 A 
HETATM   14  C8  UNL     1      18.109  18.825   4.793  1.00  0.00     0.073 A 
HETATM   15  C9  UNL     1      19.117  17.931   4.364  1.00  0.00     0.126 A 
HETATM   16  N2  UNL     1      18.557  17.075   3.531  1.00  0.00    -0.311 N 
HETATM   17  N3  UNL     1      17.297  17.359   3.406  1.00  0.00    -0.304 N 
ATOM     18  H2  UNL     1      19.039  16.310   3.060  1.00  0.00     0.186 HD
ATOM     19  H3  UNL     1      16.645  16.842   2.816  1.00  0.00     0.186 HD
BRANCH  14  20
HETATM   20  C7  UNL     1      18.310  19.894   5.746  1.00  0.00     0.260 C 
HETATM   21  N1  UNL     1      17.389  20.907   6.043  1.00  0.00    -0.309 N 
ATOM     22  H1  UNL     1      17.172  21.619   5.346  1.00  0.00     0.170 HD
HETATM   23  O1  UNL     1      19.416  19.954   6.401  1.00  0.00    -0.267 OA
BRANCH  21  24
HETATM   24  C6  UNL     1      16.811  20.940   7.208  1.00  0.00     0.108 A 
HETATM   25  C5  UNL     1      16.041  22.057   7.516  1.00  0.00     0.049 A 
HETATM   26  C4  UNL     1      15.415  22.123   8.735  1.00  0.00     0.006 A 
HETATM   27  C3  UNL     1      15.571  21.076   9.615  1.00  0.00     0.025 A 
HETATM   28  C2  UNL     1      16.332  19.972   9.312  1.00  0.00     0.007 A 
HETATM   29  C1  UNL     1      16.488  18.854  10.275  1.00  0.00     0.068 C 
HETATM   30  N12 UNL     1      16.941  19.937   8.093  1.00  0.00    -0.346 N 
ATOM     31  H12 UNL     1      17.511  19.128   7.846  1.00  0.00     0.167 HD
ENDBRANCH  21  24
ENDBRANCH  14  20
ENDBRANCH  12  13
ENDBRANCH  11  12
ENDBRANCH  10  11
ENDBRANCH   9  10
ENDBRANCH   1   9
BRANCH   3  32
HETATM   32  N4  UNL     1      13.192  25.574   6.484  1.00  0.00    -0.376 N 
ATOM     33  H4  UNL     1      13.456  26.551   6.353  1.00  0.00     0.161 HD
BRANCH  32  34
HETATM   34  C18 UNL     1      12.898  25.092   7.814  1.00  0.00     0.123 C 
BRANCH  34  35
HETATM   35  C19 UNL     1      12.066  26.164   8.499  1.00  0.00     0.050 C 
BRANCH  35  36
HETATM   36  C20 UNL     1      10.633  26.018   8.052  1.00  0.00     0.273 C 
BRANCH  36  37
HETATM   37  N5  UNL     1      10.207  27.130   7.240  1.00  0.00     0.080 N 
HETATM   38  C21 UNL     1       9.562  26.652   6.038  1.00  0.00     0.309 C 
HETATM   39  C22 UNL     1       9.337  28.029   7.957  1.00  0.00     0.309 C 
ENDBRANCH  36  37
ENDBRANCH  35  36
ENDBRANCH  34  35
ENDBRANCH  32  34
ENDBRANCH   3  32
BRANCH   6  40
HETATM   40  N7  UNL     1      11.824  24.880   2.162  1.00  0.00    -0.226 N 
ATOM     41  H7  UNL     1      12.279  25.553   1.546  1.00  0.00     0.177 HD
BRANCH  40  42
HETATM   42  C24 UNL     1      10.501  24.369   1.860  1.00  0.00     0.144 C 
BRANCH  42  43
HETATM   43  C25 UNL     1       9.433  25.154   2.617  1.00  0.00     0.022 C 
HETATM   44  C26 UNL     1       9.076  26.426   1.917  1.00  0.00     0.009 C 
HETATM   45  C27 UNL     1       7.927  26.276   0.944  1.00  0.00     0.020 C 
HETATM   46  C28 UNL     1       6.693  25.951   1.713  1.00  0.00     0.125 C 
HETATM   47  N8  UNL     1       6.982  24.865   2.624  1.00  0.00    -0.355 N 
HETATM   48  C29 UNL     1       5.879  24.412   3.419  1.00  0.00     0.183 C 
HETATM   49  C30 UNL     1       8.252  24.228   2.789  1.00  0.00     0.131 C 
HETATM   50  N9  UNL     1       5.775  23.159   3.729  1.00  0.00    -0.374 N 
HETATM   51  N10 UNL     1       4.863  25.277   3.894  1.00  0.00    -0.064 NA
ATOM     52  H92 UNL     1       6.506  22.536   3.386  1.00  0.00     0.158 HD
ATOM     53  H91 UNL     1       4.989  22.837   4.294  1.00  0.00     0.158 HD
ENDBRANCH  42  43
ENDBRANCH  40  42
ENDBRANCH   6  40
TORSDOF 15
ENDMDL
MODEL 2
REMARK VINA RESULT: -9.683788696      1.238      4.244
REMARK  15 active torsions:
REMARK  status: ('A' for Active; 'I' for Inactive)
REMARK    1  A    between atoms: C6_6  and  N1_7 
REMARK       I    between atoms: N1_7  and  C7_9 
REMARK    2  A    between atoms: C7_9  and  C8_11 
REMARK    3  A    between atoms: C10_17  and  C11_18 
REMARK    4  A    between atoms: C11_18  and  C12_19 
REMARK    5  A    between atoms: C12_19  and  C13_20 
REMARK    6  A    between atoms: C13_20  and  C14_21 
REMARK    7  A    between atoms: C14_21  and  C15_22 
REMARK    8  A    between atoms: C17_24  and  N4_25 
REMARK    9  A    between atoms: N4_25  and  C18_27 
REMARK   10  A    between atoms: C18_27  and  C19_28 
REMARK   11  A    between atoms: C19_28  and  C20_29 
REMARK   12  A    between atoms: C20_29  and  N5_30 
REMARK   13  A    between atoms: C23_35  and  N7_36 
REMARK   14  A    between atoms: N7_36  and  C24_38 
REMARK   15  A    between atoms: C24_38  and  C25_39 
REMARK       I    between atoms: N8_43  and  C29_44 
ROOT
HETATM    1  C15 UNL     1      13.072  22.725   4.302  1.00  0.00     0.030 A 
HETATM    2  C16 UNL     1      12.133  22.838   3.305  1.00  0.00     0.074 A 
HETATM    3  C17 UNL     1      11.399  24.002   3.203  1.00  0.00     0.118 A 
HETATM    4  N6  UNL     1      11.635  24.982   4.087  1.00  0.00    -0.177 N 
ATOM      5  H6  UNL     1      11.090  25.841   4.009  1.00  0.00     0.185 HD
HETATM    6  C23 UNL     1      12.543  24.900   5.068  1.00  0.00     0.679 A 
HETATM    7  N11 UNL     1      13.248  23.745   5.144  1.00  0.00    -0.196 N 
ATOM      8  H11 UNL     1      13.947  23.652   5.880  1.00  0.00     0.184 HD
ENDROOT
BRANCH   1   9
HETATM    9  C14 UNL     1      13.859  21.476   4.418  1.00  0.00     0.058 C 
BRANCH   9  10
HETATM   10  C13 UNL     1      14.853  21.411   3.295  1.00  0.00     0.006 C 
BRANCH  10  11
HETATM   11  C12 UNL     1      15.163  19.981   2.903  1.00  0.00     0.006 C 
BRANCH  11  12
HETATM   12  C11 UNL     1      15.500  19.189   4.120  1.00  0.00     0.059 C 
BRANCH  12  13
HETATM   13  C10 UNL     1      16.834  18.556   4.009  1.00  0.00     0.043 A 
HETATM   14  C8  UNL     1      18.000  18.896   4.626  1.00  0.00     0.073 A 
HETATM   15  C9  UNL     1      18.988  18.002   4.151  1.00  0.00     0.126 A 
HETATM   16  N2  UNL     1      18.402  17.184   3.298  1.00  0.00    -0.311 N 
HETATM   17  N3  UNL     1      17.145  17.490   3.201  1.00  0.00    -0.304 N 
ATOM     18  H2  UNL     1      18.865  16.429   2.793  1.00  0.00     0.186 HD
ATOM     19  H3  UNL     1      16.477  17.004   2.604  1.00  0.00     0.186 HD
BRANCH  14  20
HETATM   20  C7  UNL     1      18.231  19.927   5.612  1.00  0.00     0.260 C 
HETATM   21  N1  UNL     1      17.384  21.013   5.872  1.00  0.00    -0.309 N 
ATOM     22  H1  UNL     1      17.275  21.752   5.177  1.00  0.00     0.170 HD
HETATM   23  O1  UNL     1      19.293  19.880   6.337  1.00  0.00    -0.267 OA
BRANCH  21  24
HETATM   24  C6  UNL     1      16.738  21.079   6.998  1.00  0.00     0.108 A 
HETATM   25  C5  UNL     1      15.882  22.160   7.190  1.00  0.00     0.049 A 
HETATM   26  C4  UNL     1      15.181  22.258   8.366  1.00  0.00     0.006 A 
HETATM   27  C3  UNL     1      15.351  21.280   9.319  1.00  0.00     0.025 A 
HETATM   28  C2  UNL     1      16.196  20.212   9.131  1.00  0.00     0.007 A 
HETATM   29  C1  UNL     1      16.364  19.168  10.172  1.00  0.00     0.068 C 
HETATM   30  N12 UNL     1      16.877  20.143   7.952  1.00  0.00    -0.346 N 
ATOM     31  H12 UNL     1      17.510  19.360   7.790  1.00  0.00     0.167 HD
ENDBRANCH  21  24
ENDBRANCH  14  20
ENDBRANCH  12  13
ENDBRANCH  11  12
ENDBRANCH  10  11
ENDBRANCH   9  10
ENDBRANCH   1   9
BRANCH   3  32
HETATM   32  N4  UNL     1      10.518  24.152   2.290  1.00  0.00    -0.376 N 
ATOM     33  H4  UNL     1      10.609  24.923   1.629  1.00  0.00     0.161 HD
BRANCH  32  34
HETATM   34  C18 UNL     1       9.395  23.249   2.175  1.00  0.00     0.123 C 
BRANCH  34  35
HETATM   35  C19 UNL     1       8.136  24.090   2.313  1.00  0.00     0.050 C 
BRANCH  35  36
HETATM   36  C20 UNL     1       8.382  25.431   1.668  1.00  0.00     0.273 C 
BRANCH  36  37
HETATM   37  N5  UNL     1       7.605  26.476   2.287  1.00  0.00     0.080 N 
HETATM   38  C21 UNL     1       6.992  25.989   3.502  1.00  0.00     0.309 C 
HETATM   39  C22 UNL     1       8.389  27.656   2.554  1.00  0.00     0.309 C 
ENDBRANCH  36  37
ENDBRANCH  35  36
ENDBRANCH  34  35
ENDBRANCH  32  34
ENDBRANCH   3  32
BRANCH   6  40
HETATM   40  N7  UNL     1      12.749  25.867   5.911  1.00  0.00    -0.226 N 
ATOM     41  H7  UNL     1      12.817  26.833   5.592  1.00  0.00     0.177 HD
BRANCH  40  42
HETATM   42  C24 UNL     1      12.878  25.535   7.316  1.00  0.00     0.144 C 
BRANCH  42  43
HETATM   43  C25 UNL     1      11.527  25.625   8.020  1.00  0.00     0.022 C 
HETATM   44  C26 UNL     1      11.669  26.056   9.445  1.00  0.00     0.009 C 
HETATM   45  C27 UNL     1      11.589  27.555   9.630  1.00  0.00     0.020 C 
HETATM   46  C28 UNL     1      10.214  28.005   9.272  1.00  0.00     0.125 C 
HETATM   47  N8  UNL     1       9.856  27.441   7.989  1.00  0.00    -0.355 N 
HETATM   48  C29 UNL     1       8.565  27.809   7.488  1.00  0.00     0.183 C 
HETATM   49  C30 UNL     1      10.672  26.566   7.205  1.00  0.00     0.131 C 
HETATM   50  N9  UNL     1       8.383  27.961   6.215  1.00  0.00    -0.374 N 
HETATM   51  N10 UNL     1       7.446  28.028   8.327  1.00  0.00    -0.064 NA
ATOM     52  H92 UNL     1       9.190  27.803   5.611  1.00  0.00     0.158 HD
ATOM     53  H91 UNL     1       7.464  28.224   5.859  1.00  0.00     0.158 HD
ENDBRANCH  42  43
ENDBRANCH  40  42
ENDBRANCH   6  40
TORSDOF 15
ENDMDL
MODEL 3
REMARK VINA RESULT: -9.591490705      2.903      9.598
REMARK  15 active torsions:
REMARK  status: ('A' for Active; 'I' for Inactive)
REMARK    1  A    between atoms: C6_6  and  N1_7 
REMARK       I    between atoms: N1_7  and  C7_9 
REMARK    2  A    between atoms: C7_9  and  C8_11 
REMARK    3  A    between atoms: C10_17  and  C11_18 
REMARK    4  A    between atoms: C11_18  and  C12_19 
REMARK    5  A    between atoms: C12_19  and  C13_20 
REMARK    6  A    between atoms: C13_20  and  C14_21 
REMARK    7  A    between atoms: C14_21  and  C15_22 
REMARK    8  A    between atoms: C17_24  and  N4_25 
REMARK    9  A    between atoms: N4_25  and  C18_27 
REMARK   10  A    between atoms: C18_27  and  C19_28 
REMARK   11  A    between atoms: C19_28  and  C20_29 
REMARK   12  A    between atoms: C20_29  and  N5_30 
REMARK   13  A    between atoms: C23_35  and  N7_36 
REMARK   14  A    between atoms: N7_36  and  C24_38 
REMARK   15  A    between atoms: C24_38  and  C25_39 
REMARK       I    between atoms: N8_43  and  C29_44 
ROOT
HETATM    1  C15 UNL     1      13.548  23.396   4.439  1.00  0.00     0.030 A 
HETATM    2  C16 UNL     1      14.306  23.820   5.504  1.00  0.00     0.074 A 
HETATM    3  C17 UNL     1      15.538  23.240   5.723  1.00  0.00     0.118 A 
HETATM    4  N6  UNL     1      15.948  22.280   4.882  1.00  0.00    -0.177 N 
ATOM      5  H6  UNL     1      16.860  21.853   5.048  1.00  0.00     0.185 HD
HETATM    6  C23 UNL     1      15.231  21.848   3.837  1.00  0.00     0.679 A 
HETATM    7  N11 UNL     1      14.025  22.435   3.647  1.00  0.00    -0.196 N 
ATOM      8  H11 UNL     1      13.455  22.127   2.859  1.00  0.00     0.184 HD
ENDROOT
BRANCH   1   9
HETATM    9  C14 UNL     1      12.222  24.014   4.202  1.00  0.00     0.058 C 
BRANCH   9  10
HETATM   10  C13 UNL     1      11.340  23.032   3.487  1.00  0.00     0.006 C 
BRANCH  10  11
HETATM   11  C12 UNL     1      10.340  23.728   2.589  1.00  0.00     0.006 C 
BRANCH  11  12
HETATM   12  C11 UNL     1       9.214  24.261   3.408  1.00  0.00     0.059 C 
BRANCH  12  13
HETATM   13  C10 UNL     1       9.120  25.735   3.318  1.00  0.00     0.043 A 
HETATM   14  C8  UNL     1       8.804  26.637   4.289  1.00  0.00     0.073 A 
HETATM   15  C9  UNL     1       8.815  27.913   3.679  1.00  0.00     0.126 A 
HETATM   16  N2  UNL     1       9.128  27.741   2.409  1.00  0.00    -0.311 N 
HETATM   17  N3  UNL     1       9.311  26.477   2.178  1.00  0.00    -0.304 N 
ATOM     18  H2  UNL     1       9.213  28.484   1.717  1.00  0.00     0.186 HD
ATOM     19  H3  UNL     1       9.562  26.087   1.270  1.00  0.00     0.186 HD
BRANCH  14  20
HETATM   20  C7  UNL     1       8.543  26.398   5.690  1.00  0.00     0.260 C 
HETATM   21  N1  UNL     1       9.248  25.511   6.514  1.00  0.00    -0.309 N 
ATOM     22  H1  UNL     1       9.169  24.505   6.365  1.00  0.00     0.170 HD
HETATM   23  O1  UNL     1       7.589  27.038   6.271  1.00  0.00    -0.267 OA
BRANCH  21  24
HETATM   24  C6  UNL     1      10.004  25.969   7.467  1.00  0.00     0.108 A 
HETATM   25  C5  UNL     1      11.322  25.524   7.518  1.00  0.00     0.049 A 
HETATM   26  C4  UNL     1      12.148  25.990   8.509  1.00  0.00     0.006 A 
HETATM   27  C3  UNL     1      11.642  26.887   9.424  1.00  0.00     0.025 A 
HETATM   28  C2  UNL     1      10.340  27.327   9.374  1.00  0.00     0.007 A 
HETATM   29  C1  UNL     1       9.814  28.294  10.370  1.00  0.00     0.068 C 
HETATM   30  N12 UNL     1       9.545  26.845   8.377  1.00  0.00    -0.346 N 
ATOM     31  H12 UNL     1       8.576  27.157   8.321  1.00  0.00     0.167 HD
ENDBRANCH  21  24
ENDBRANCH  14  20
ENDBRANCH  12  13
ENDBRANCH  11  12
ENDBRANCH  10  11
ENDBRANCH   9  10
ENDBRANCH   1   9
BRANCH   3  32
HETATM   32  N4  UNL     1      16.277  23.605   6.700  1.00  0.00    -0.376 N 
ATOM     33  H4  UNL     1      17.002  24.306   6.543  1.00  0.00     0.161 HD
BRANCH  32  34
HETATM   34  C18 UNL     1      16.108  23.045   8.021  1.00  0.00     0.123 C 
BRANCH  34  35
HETATM   35  C19 UNL     1      17.230  22.040   8.223  1.00  0.00     0.050 C 
BRANCH  35  36
HETATM   36  C20 UNL     1      16.657  20.650   8.103  1.00  0.00     0.273 C 
BRANCH  36  37
HETATM   37  N5  UNL     1      16.961  19.842   9.258  1.00  0.00     0.080 N 
HETATM   38  C21 UNL     1      18.313  20.093   9.701  1.00  0.00     0.309 C 
HETATM   39  C22 UNL     1      16.028  20.055  10.336  1.00  0.00     0.309 C 
ENDBRANCH  36  37
ENDBRANCH  35  36
ENDBRANCH  34  35
ENDBRANCH  32  34
ENDBRANCH   3  32
BRANCH   6  40
HETATM   40  N7  UNL     1      15.655  20.914   3.039  1.00  0.00    -0.226 N 
ATOM     41  H7  UNL     1      16.624  20.899   2.720  1.00  0.00     0.177 HD
BRANCH  40  42
HETATM   42  C24 UNL     1      14.715  19.896   2.615  1.00  0.00     0.144 C 
BRANCH  42  43
HETATM   43  C25 UNL     1      15.274  18.500   2.877  1.00  0.00     0.022 C 
HETATM   44  C26 UNL     1      15.840  17.886   1.636  1.00  0.00     0.009 C 
HETATM   45  C27 UNL     1      17.313  18.172   1.441  1.00  0.00     0.020 C 
HETATM   46  C28 UNL     1      18.075  17.503   2.533  1.00  0.00     0.125 C 
HETATM   47  N8  UNL     1      17.463  17.832   3.802  1.00  0.00    -0.355 N 
HETATM   48  C29 UNL     1      18.104  17.286   4.961  1.00  0.00     0.183 C 
HETATM   49  C30 UNL     1      16.295  18.639   3.981  1.00  0.00     0.131 C 
HETATM   50  N9  UNL     1      18.124  17.957   6.068  1.00  0.00    -0.374 N 
HETATM   51  N10 UNL     1      18.740  16.021   4.966  1.00  0.00    -0.064 NA
ATOM     52  H92 UNL     1      17.666  18.869   6.063  1.00  0.00     0.158 HD
ATOM     53  H91 UNL     1      18.582  17.569   6.892  1.00  0.00     0.158 HD
ENDBRANCH  42  43
ENDBRANCH  40  42
ENDBRANCH   6  40
TORSDOF 15
ENDMDL
MODEL 4
REMARK VINA RESULT: -9.580468530      2.752     10.243
REMARK  15 active torsions:
REMARK  status: ('A' for Active; 'I' for Inactive)
REMARK    1  A    between atoms: C6_6  and  N1_7 
REMARK       I    between atoms: N1_7  and  C7_9 
REMARK    2  A    between atoms: C7_9  and  C8_11 
REMARK    3  A    between atoms: C10_17  and  C11_18 
REMARK    4  A    between atoms: C11_18  and  C12_19 
REMARK    5  A    between atoms: C12_19  and  C13_20 
REMARK    6  A    between atoms: C13_20  and  C14_21 
REMARK    7  A    between atoms: C14_21  and  C15_22 
REMARK    8  A    between atoms: C17_24  and  N4_25 
REMARK    9  A    between atoms: N4_25  and  C18_27 
REMARK   10  A    between atoms: C18_27  and  C19_28 
REMARK   11  A    between atoms: C19_28  and  C20_29 
REMARK   12  A    between atoms: C20_29  and  N5_30 
REMARK   13  A    between atoms: C23_35  and  N7_36 
REMARK   14  A    between atoms: N7_36  and  C24_38 
REMARK   15  A    between atoms: C24_38  and  C25_39 
REMARK       I    between atoms: N8_43  and  C29_44 
ROOT
HETATM    1  C15 UNL     1      13.175  23.626   6.593  1.00  0.00     0.030 A 
HETATM    2  C16 UNL     1      14.414  23.798   7.162  1.00  0.00     0.074 A 
HETATM    3  C17 UNL     1      15.506  23.180   6.590  1.00  0.00     0.118 A 
HETATM    4  N6  UNL     1      15.313  22.431   5.494  1.00  0.00    -0.177 N 
ATOM      5  H6  UNL     1      16.123  21.976   5.074  1.00  0.00     0.185 HD
HETATM    6  C23 UNL     1      14.118  22.247   4.918  1.00  0.00     0.679 A 
HETATM    7  N11 UNL     1      13.064  22.866   5.502  1.00  0.00    -0.196 N 
ATOM      8  H11 UNL     1      12.140  22.745   5.087  1.00  0.00     0.184 HD
ENDROOT
BRANCH   1   9
HETATM    9  C14 UNL     1      11.998  24.285   7.205  1.00  0.00     0.058 C 
BRANCH   9  10
HETATM   10  C13 UNL     1      12.424  25.586   7.822  1.00  0.00     0.006 C 
BRANCH  10  11
HETATM   11  C12 UNL     1      11.324  26.191   8.668  1.00  0.00     0.006 C 
BRANCH  11  12
HETATM   12  C11 UNL     1       9.996  25.724   8.174  1.00  0.00     0.059 C 
BRANCH  12  13
HETATM   13  C10 UNL     1       9.051  26.850   7.999  1.00  0.00     0.043 A 
HETATM   14  C8  UNL     1       8.738  27.540   6.867  1.00  0.00     0.073 A 
HETATM   15  C9  UNL     1       7.813  28.542   7.242  1.00  0.00     0.126 A 
HETATM   16  N2  UNL     1       7.607  28.421   8.539  1.00  0.00    -0.311 N 
HETATM   17  N3  UNL     1       8.319  27.439   8.999  1.00  0.00    -0.304 N 
ATOM     18  H2  UNL     1       6.984  29.008   9.094  1.00  0.00     0.186 HD
ATOM     19  H3  UNL     1       8.334  27.145   9.976  1.00  0.00     0.186 HD
BRANCH  14  20
HETATM   20  C7  UNL     1       9.198  27.311   5.515  1.00  0.00     0.260 C 
HETATM   21  N1  UNL     1      10.050  26.277   5.106  1.00  0.00    -0.309 N 
ATOM     22  H1  UNL     1      11.027  26.276   5.400  1.00  0.00     0.170 HD
HETATM   23  O1  UNL     1       8.812  28.102   4.576  1.00  0.00    -0.267 OA
BRANCH  21  24
HETATM   24  C6  UNL     1       9.597  25.320   4.352  1.00  0.00     0.108 A 
HETATM   25  C5  UNL     1      10.525  24.506   3.711  1.00  0.00     0.049 A 
HETATM   26  C4  UNL     1      10.081  23.484   2.911  1.00  0.00     0.006 A 
HETATM   27  C3  UNL     1       8.724  23.298   2.770  1.00  0.00     0.025 A 
HETATM   28  C2  UNL     1       7.805  24.102   3.403  1.00  0.00     0.007 A 
HETATM   29  C1  UNL     1       6.346  23.885   3.237  1.00  0.00     0.068 C 
HETATM   30  N12 UNL     1       8.279  25.108   4.191  1.00  0.00    -0.346 N 
ATOM     31  H12 UNL     1       7.616  25.718   4.670  1.00  0.00     0.167 HD
ENDBRANCH  21  24
ENDBRANCH  14  20
ENDBRANCH  12  13
ENDBRANCH  11  12
ENDBRANCH  10  11
ENDBRANCH   9  10
ENDBRANCH   1   9
BRANCH   3  32
HETATM   32  N4  UNL     1      16.677  23.314   7.083  1.00  0.00    -0.376 N 
ATOM     33  H4  UNL     1      17.428  23.680   6.498  1.00  0.00     0.161 HD
BRANCH  32  34
HETATM   34  C18 UNL     1      16.960  22.957   8.455  1.00  0.00     0.123 C 
BRANCH  34  35
HETATM   35  C19 UNL     1      18.145  22.007   8.430  1.00  0.00     0.050 C 
BRANCH  35  36
HETATM   36  C20 UNL     1      17.633  20.606   8.199  1.00  0.00     0.273 C 
BRANCH  36  37
HETATM   37  N5  UNL     1      17.810  19.770   9.360  1.00  0.00     0.080 N 
HETATM   38  C21 UNL     1      16.537  19.528  10.000  1.00  0.00     0.309 C 
HETATM   39  C22 UNL     1      18.461  18.524   9.042  1.00  0.00     0.309 C 
ENDBRANCH  36  37
ENDBRANCH  35  36
ENDBRANCH  34  35
ENDBRANCH  32  34
ENDBRANCH   3  32
BRANCH   6  40
HETATM   40  N7  UNL     1      13.961  21.515   3.856  1.00  0.00    -0.226 N 
ATOM     41  H7  UNL     1      13.032  21.228   3.552  1.00  0.00     0.177 HD
BRANCH  40  42
HETATM   42  C24 UNL     1      15.143  21.120   3.116  1.00  0.00     0.144 C 
BRANCH  42  43
HETATM   43  C25 UNL     1      15.450  19.640   3.336  1.00  0.00     0.022 C 
HETATM   44  C26 UNL     1      15.262  18.841   2.086  1.00  0.00     0.009 C 
HETATM   45  C27 UNL     1      16.519  18.725   1.252  1.00  0.00     0.020 C 
HETATM   46  C28 UNL     1      17.525  17.934   2.017  1.00  0.00     0.125 C 
HETATM   47  N8  UNL     1      17.623  18.472   3.356  1.00  0.00    -0.355 N 
HETATM   48  C29 UNL     1      18.579  17.834   4.212  1.00  0.00     0.183 C 
HETATM   49  C30 UNL     1      16.858  19.562   3.876  1.00  0.00     0.131 C 
HETATM   50  N9  UNL     1      19.230  18.530   5.089  1.00  0.00    -0.374 N 
HETATM   51  N10 UNL     1      18.867  16.449   4.150  1.00  0.00    -0.064 NA
ATOM     52  H92 UNL     1      19.023  19.528   5.132  1.00  0.00     0.158 HD
ATOM     53  H91 UNL     1      19.911  18.076   5.697  1.00  0.00     0.158 HD
ENDBRANCH  42  43
ENDBRANCH  40  42
ENDBRANCH   6  40
TORSDOF 15
ENDMDL
MODEL 5
REMARK VINA RESULT: -9.575061623      1.600      3.918
REMARK  15 active torsions:
REMARK  status: ('A' for Active; 'I' for Inactive)
REMARK    1  A    between atoms: C6_6  and  N1_7 
REMARK       I    between atoms: N1_7  and  C7_9 
REMARK    2  A    between atoms: C7_9  and  C8_11 
REMARK    3  A    between atoms: C10_17  and  C11_18 
REMARK    4  A    between atoms: C11_18  and  C12_19 
REMARK    5  A    between atoms: C12_19  and  C13_20 
REMARK    6  A    between atoms: C13_20  and  C14_21 
REMARK    7  A    between atoms: C14_21  and  C15_22 
REMARK    8  A    between atoms: C17_24  and  N4_25 
REMARK    9  A    between atoms: N4_25  and  C18_27 
REMARK   10  A    between atoms: C18_27  and  C19_28 
REMARK   11  A    between atoms: C19_28  and  C20_29 
REMARK   12  A    between atoms: C20_29  and  N5_30 
REMARK   13  A    between atoms: C23_35  and  N7_36 
REMARK   14  A    between atoms: N7_36  and  C24_38 
REMARK   15  A    between atoms: C24_38  and  C25_39 
REMARK       I    between atoms: N8_43  and  C29_44 
ROOT
HETATM    1  C15 UNL     1      13.887  23.977   6.512  1.00  0.00     0.030 A 
HETATM    2  C16 UNL     1      13.188  24.731   7.423  1.00  0.00     0.074 A 
HETATM    3  C17 UNL     1      12.157  25.533   6.980  1.00  0.00     0.118 A 
HETATM    4  N6  UNL     1      11.877  25.543   5.669  1.00  0.00    -0.177 N 
ATOM      5  H6  UNL     1      11.113  26.137   5.345  1.00  0.00     0.185 HD
HETATM    6  C23 UNL     1      12.540  24.818   4.759  1.00  0.00     0.679 A 
HETATM    7  N11 UNL     1      13.548  24.040   5.223  1.00  0.00    -0.196 N 
ATOM      8  H11 UNL     1      14.072  23.477   4.554  1.00  0.00     0.184 HD
ENDROOT
BRANCH   1   9
HETATM    9  C14 UNL     1      14.998  23.117   6.982  1.00  0.00     0.058 C 
BRANCH   9  10
HETATM   10  C13 UNL     1      14.434  21.934   7.713  1.00  0.00     0.006 C 
BRANCH  10  11
HETATM   11  C12 UNL     1      15.523  21.096   8.348  1.00  0.00     0.006 C 
BRANCH  11  12
HETATM   12  C11 UNL     1      16.658  20.942   7.394  1.00  0.00     0.059 C 
BRANCH  12  13
HETATM   13  C10 UNL     1      17.530  19.803   7.760  1.00  0.00     0.043 A 
HETATM   14  C8  UNL     1      18.388  19.092   6.976  1.00  0.00     0.073 A 
HETATM   15  C9  UNL     1      18.950  18.085   7.796  1.00  0.00     0.126 A 
HETATM   16  N2  UNL     1      18.431  18.223   9.001  1.00  0.00    -0.311 N 
HETATM   17  N3  UNL     1      17.601  19.220   9.001  1.00  0.00    -0.304 N 
ATOM     18  H2  UNL     1      18.649  17.638   9.807  1.00  0.00     0.186 HD
ATOM     19  H3  UNL     1      17.071  19.530   9.816  1.00  0.00     0.186 HD
BRANCH  14  20
HETATM   20  C7  UNL     1      18.727  19.305   5.587  1.00  0.00     0.260 C 
HETATM   21  N1  UNL     1      18.415  18.443   4.528  1.00  0.00    -0.309 N 
ATOM     22  H1  UNL     1      18.870  17.532   4.462  1.00  0.00     0.170 HD
HETATM   23  O1  UNL     1      19.369  20.369   5.252  1.00  0.00    -0.267 OA
BRANCH  21  24
HETATM   24  C6  UNL     1      17.547  18.803   3.630  1.00  0.00     0.108 A 
HETATM   25  C5  UNL     1      17.618  18.195   2.380  1.00  0.00     0.049 A 
HETATM   26  C4  UNL     1      16.714  18.549   1.411  1.00  0.00     0.006 A 
HETATM   27  C3  UNL     1      15.763  19.498   1.710  1.00  0.00     0.025 A 
HETATM   28  C2  UNL     1      15.691  20.099   2.944  1.00  0.00     0.007 A 
HETATM   29  C1  UNL     1      14.658  21.121   3.245  1.00  0.00     0.068 C 
HETATM   30  N12 UNL     1      16.604  19.726   3.885  1.00  0.00    -0.346 N 
ATOM     31  H12 UNL     1      16.570  20.158   4.808  1.00  0.00     0.167 HD
ENDBRANCH  21  24
ENDBRANCH  14  20
ENDBRANCH  12  13
ENDBRANCH  11  12
ENDBRANCH  10  11
ENDBRANCH   9  10
ENDBRANCH   1   9
BRANCH   3  32
HETATM   32  N4  UNL     1      11.479  26.249   7.792  1.00  0.00    -0.376 N 
ATOM     33  H4  UNL     1      10.712  26.820   7.435  1.00  0.00     0.161 HD
BRANCH  32  34
HETATM   34  C18 UNL     1      11.776  26.267   9.207  1.00  0.00     0.123 C 
BRANCH  34  35
HETATM   35  C19 UNL     1      10.455  26.464   9.933  1.00  0.00     0.050 C 
BRANCH  35  36
HETATM   36  C20 UNL     1       9.353  26.560   8.908  1.00  0.00     0.273 C 
BRANCH  36  37
HETATM   37  N5  UNL     1       8.495  27.694   9.145  1.00  0.00     0.080 N 
HETATM   38  C21 UNL     1       9.037  28.518  10.200  1.00  0.00     0.309 C 
HETATM   39  C22 UNL     1       8.280  28.476   7.953  1.00  0.00     0.309 C 
ENDBRANCH  36  37
ENDBRANCH  35  36
ENDBRANCH  34  35
ENDBRANCH  32  34
ENDBRANCH   3  32
BRANCH   6  40
HETATM   40  N7  UNL     1      12.246  24.848   3.494  1.00  0.00    -0.226 N 
ATOM     41  H7  UNL     1      12.429  25.681   2.934  1.00  0.00     0.177 HD
BRANCH  40  42
HETATM   42  C24 UNL     1      11.650  23.667   2.900  1.00  0.00     0.144 C 
BRANCH  42  43
HETATM   43  C25 UNL     1      10.430  24.040   2.061  1.00  0.00     0.022 C 
HETATM   44  C26 UNL     1       9.468  22.901   1.942  1.00  0.00     0.009 C 
HETATM   45  C27 UNL     1       8.413  22.888   3.026  1.00  0.00     0.020 C 
HETATM   46  C28 UNL     1       7.545  24.088   2.859  1.00  0.00     0.125 C 
HETATM   47  N8  UNL     1       8.386  25.257   2.717  1.00  0.00    -0.355 N 
HETATM   48  C29 UNL     1       7.694  26.505   2.578  1.00  0.00     0.183 C 
HETATM   49  C30 UNL     1       9.816  25.261   2.704  1.00  0.00     0.131 C 
HETATM   50  N9  UNL     1       8.197  27.584   3.085  1.00  0.00    -0.374 N 
HETATM   51  N10 UNL     1       6.455  26.629   1.903  1.00  0.00    -0.064 NA
ATOM     52  H92 UNL     1       9.089  27.495   3.571  1.00  0.00     0.158 HD
ATOM     53  H91 UNL     1       7.704  28.472   2.986  1.00  0.00     0.158 HD
ENDBRANCH  42  43
ENDBRANCH  40  42
ENDBRANCH   6  40
TORSDOF 15
ENDMDL
