MODEL 1
REMARK VINA RESULT: -7.398399385      0.000      0.000
REMARK  7 active torsions:
REMARK  status: ('A' for Active; 'I' for Inactive)
REMARK    1  A    between atoms: C2_2  and  C3_3 
REMARK    2  A    between atoms: C3_3  and  O1_4 
REMARK    3  A    between atoms: C3_3  and  C15_25 
REMARK    4  A    between atoms: O1_4  and  C4_5 
REMARK    5  A    between atoms: C8_14  and  N4_15 
REMARK    6  A    between atoms: C9_18  and  O2_19 
REMARK    7  A    between atoms: O2_19  and  C10_20 
ROOT
HETATM    1  C4  UNL     1      16.295  -3.352  10.453  1.00  0.00     0.182 A 
HETATM    2  N1  UNL     1      17.620  -3.515  10.311  1.00  0.00    -0.319 N 
ATOM      3  H1  UNL     1      18.054  -4.336  10.731  1.00  0.00     0.169 HD
HETATM    4  C5  UNL     1      18.397  -2.658   9.651  1.00  0.00     0.132 A 
HETATM    5  C6  UNL     1      19.753  -2.643   9.396  1.00  0.00     0.069 A 
HETATM    6  C7  UNL     1      19.956  -1.495   8.663  1.00  0.00     0.111 A 
HETATM    7  N2  UNL     1      18.774  -0.903   8.518  1.00  0.00    -0.302 N 
ATOM      8  H2  UNL     1      18.633  -0.027   8.013  1.00  0.00     0.186 HD
HETATM    9  N3  UNL     1      17.802  -1.581   9.106  1.00  0.00    -0.221 N 
HETATM   10  C8  UNL     1      16.483  -1.352   9.205  1.00  0.00     0.161 A 
HETATM   11  C9  UNL     1      15.703  -2.243   9.887  1.00  0.00     0.166 A 
ENDROOT
BRANCH   1  12
HETATM   12  O1  UNL     1      15.567  -4.296  11.156  1.00  0.00    -0.327 OA
BRANCH  12  13
HETATM   13  C3  UNL     1      16.058  -4.659  12.465  1.00  0.00     0.137 C 
BRANCH  13  14
HETATM   14  C2  UNL     1      15.123  -4.049  13.435  1.00  0.00     0.029 C 
HETATM   15  C1  UNL     1      15.659  -2.870  14.182  1.00  0.00     0.007 C 
ENDBRANCH  13  14
BRANCH  13  16
HETATM   16  C15 UNL     1      16.247  -6.136  12.518  1.00  0.00    -0.025 C 
HETATM   17  C16 UNL     1      17.413  -6.406  13.513  1.00  0.00     0.017 C 
HETATM   18  C17 UNL     1      16.645  -6.746  11.212  1.00  0.00     0.017 C 
HETATM   19  C18 UNL     1      15.094  -6.879  13.106  1.00  0.00     0.017 C 
ENDBRANCH  13  16
ENDBRANCH  12  13
ENDBRANCH   1  12
BRANCH  11  20
HETATM   20  O2  UNL     1      14.336  -2.048  10.016  1.00  0.00    -0.338 OA
BRANCH  20  21
HETATM   21  C10 UNL     1      13.718  -1.635  11.206  1.00  0.00     0.129 C 
HETATM   22  C11 UNL     1      12.552  -2.555  11.591  1.00  0.00     0.032 C 
HETATM   23  C12 UNL     1      11.937  -1.730  12.729  1.00  0.00     0.002 C 
HETATM   24  C13 UNL     1      12.126  -0.291  12.317  1.00  0.00     0.002 C 
HETATM   25  C14 UNL     1      13.003  -0.311  11.075  1.00  0.00     0.032 C 
ENDBRANCH  20  21
ENDBRANCH  11  20
BRANCH  10  26
HETATM   26  N4  UNL     1      15.987  -0.291   8.651  1.00  0.00    -0.382 N 
ATOM     27  H42 UNL     1      16.433   0.159   7.852  1.00  0.00     0.157 HD
ATOM     28  H41 UNL     1      15.126   0.105   9.026  1.00  0.00     0.157 HD
ENDBRANCH  10  26
TORSDOF 7
ENDMDL
MODEL 2
REMARK VINA RESULT: -7.182442955      1.446      4.606
REMARK  7 active torsions:
REMARK  status: ('A' for Active; 'I' for Inactive)
REMARK    1  A    between atoms: C2_2  and  C3_3 
REMARK    2  A    between atoms: C3_3  and  O1_4 
REMARK    3  A    between atoms: C3_3  and  C15_25 
REMARK    4  A    between atoms: O1_4  and  C4_5 
REMARK    5  A    between atoms: C8_14  and  N4_15 
REMARK    6  A    between atoms: C9_18  and  O2_19 
REMARK    7  A    between atoms: O2_19  and  C10_20 
ROOT
HETATM    1  C4  UNL     1      15.732  -3.062  10.976  1.00  0.00     0.182 A 
HETATM    2  N1  UNL     1      16.211  -2.257  10.014  1.00  0.00    -0.319 N 
ATOM      3  H1  UNL     1      15.545  -1.772   9.413  1.00  0.00     0.169 HD
HETATM    4  C5  UNL     1      17.511  -2.059   9.805  1.00  0.00     0.132 A 
HETATM    5  C6  UNL     1      18.196  -1.288   8.888  1.00  0.00     0.069 A 
HETATM    6  C7  UNL     1      19.525  -1.502   9.177  1.00  0.00     0.111 A 
HETATM    7  N2  UNL     1      19.576  -2.349  10.202  1.00  0.00    -0.302 N 
ATOM      8  H2  UNL     1      20.444  -2.682  10.624  1.00  0.00     0.186 HD
HETATM    9  N3  UNL     1      18.370  -2.710  10.610  1.00  0.00    -0.221 N 
HETATM   10  C8  UNL     1      17.966  -3.530  11.592  1.00  0.00     0.161 A 
HETATM   11  C9  UNL     1      16.628  -3.719  11.791  1.00  0.00     0.166 A 
ENDROOT
BRANCH   1  12
HETATM   12  O1  UNL     1      14.363  -3.206  11.120  1.00  0.00    -0.327 OA
BRANCH  12  13
HETATM   13  C3  UNL     1      13.647  -2.104  11.720  1.00  0.00     0.137 C 
BRANCH  13  14
HETATM   14  C2  UNL     1      12.952  -1.417  10.610  1.00  0.00     0.029 C 
HETATM   15  C1  UNL     1      13.314   0.021  10.423  1.00  0.00     0.007 C 
ENDBRANCH  13  14
BRANCH  13  16
HETATM   16  C15 UNL     1      12.818  -2.621  12.845  1.00  0.00    -0.025 C 
HETATM   17  C16 UNL     1      12.318  -4.034  12.423  1.00  0.00     0.017 C 
HETATM   18  C17 UNL     1      11.600  -1.801  13.131  1.00  0.00     0.017 C 
HETATM   19  C18 UNL     1      13.581  -2.871  14.102  1.00  0.00     0.017 C 
ENDBRANCH  13  16
ENDBRANCH  12  13
ENDBRANCH   1  12
BRANCH  11  20
HETATM   20  O2  UNL     1      16.162  -4.558  12.794  1.00  0.00    -0.338 OA
BRANCH  20  21
HETATM   21  C10 UNL     1      15.552  -5.797  12.552  1.00  0.00     0.129 C 
HETATM   22  C11 UNL     1      14.915  -6.376  13.822  1.00  0.00     0.032 C 
HETATM   23  C12 UNL     1      14.580  -7.787  13.322  1.00  0.00     0.002 C 
HETATM   24  C13 UNL     1      15.703  -8.147  12.381  1.00  0.00     0.002 C 
HETATM   25  C14 UNL     1      16.537  -6.888  12.207  1.00  0.00     0.032 C 
ENDBRANCH  20  21
ENDBRANCH  11  20
BRANCH  10  26
HETATM   26  N4  UNL     1      18.857  -4.119  12.325  1.00  0.00    -0.382 N 
ATOM     27  H42 UNL     1      19.165  -3.731  13.217  1.00  0.00     0.157 HD
ATOM     28  H41 UNL     1      19.263  -4.996  12.000  1.00  0.00     0.157 HD
ENDBRANCH  10  26
TORSDOF 7
ENDMDL
MODEL 3
REMARK VINA RESULT: -6.992340314      1.338      4.444
REMARK  7 active torsions:
REMARK  status: ('A' for Active; 'I' for Inactive)
REMARK    1  A    between atoms: C2_2  and  C3_3 
REMARK    2  A    between atoms: C3_3  and  O1_4 
REMARK    3  A    between atoms: C3_3  and  C15_25 
REMARK    4  A    between atoms: O1_4  and  C4_5 
REMARK    5  A    between atoms: C8_14  and  N4_15 
REMARK    6  A    between atoms: C9_18  and  O2_19 
REMARK    7  A    between atoms: O2_19  and  C10_20 
ROOT
HETATM    1  C4  UNL     1      15.577  -3.187  10.539  1.00  0.00     0.182 A 
HETATM    2  N1  UNL     1      16.022  -2.110   9.871  1.00  0.00    -0.319 N 
ATOM      3  H1  UNL     1      15.357  -1.369   9.650  1.00  0.00     0.169 HD
HETATM    4  C5  UNL     1      17.286  -1.960   9.481  1.00  0.00     0.132 A 
HETATM    5  C6  UNL     1      17.933  -0.951   8.798  1.00  0.00     0.069 A 
HETATM    6  C7  UNL     1      19.238  -1.379   8.698  1.00  0.00     0.111 A 
HETATM    7  N2  UNL     1      19.313  -2.565   9.295  1.00  0.00    -0.302 N 
ATOM      8  H2  UNL     1      20.170  -3.113   9.368  1.00  0.00     0.186 HD
HETATM    9  N3  UNL     1      18.145  -2.951   9.783  1.00  0.00    -0.221 N 
HETATM   10  C8  UNL     1      17.775  -4.056  10.449  1.00  0.00     0.161 A 
HETATM   11  C9  UNL     1      16.472  -4.191  10.840  1.00  0.00     0.166 A 
ENDROOT
BRANCH   1  12
HETATM   12  O1  UNL     1      14.245  -3.256  10.904  1.00  0.00    -0.327 OA
BRANCH  12  13
HETATM   13  C3  UNL     1      13.680  -2.092  11.548  1.00  0.00     0.137 C 
BRANCH  13  14
HETATM   14  C2  UNL     1      12.933  -1.368  10.496  1.00  0.00     0.029 C 
HETATM   15  C1  UNL     1      13.279   0.079  10.350  1.00  0.00     0.007 C 
ENDBRANCH  13  14
BRANCH  13  16
HETATM   16  C15 UNL     1      12.929  -2.526  12.759  1.00  0.00    -0.025 C 
HETATM   17  C16 UNL     1      12.346  -3.935  12.447  1.00  0.00     0.017 C 
HETATM   18  C17 UNL     1      11.769  -1.647  13.103  1.00  0.00     0.017 C 
HETATM   19  C18 UNL     1      13.784  -2.749  13.961  1.00  0.00     0.017 C 
ENDBRANCH  13  16
ENDBRANCH  12  13
ENDBRANCH   1  12
BRANCH  11  20
HETATM   20  O2  UNL     1      16.043  -5.316  11.530  1.00  0.00    -0.338 OA
BRANCH  20  21
HETATM   21  C10 UNL     1      15.723  -5.315  12.895  1.00  0.00     0.129 C 
HETATM   22  C11 UNL     1      16.956  -5.583  13.768  1.00  0.00     0.032 C 
HETATM   23  C12 UNL     1      16.272  -5.780  15.127  1.00  0.00     0.002 C 
HETATM   24  C13 UNL     1      14.965  -6.466  14.813  1.00  0.00     0.002 C 
HETATM   25  C14 UNL     1      14.835  -6.469  13.298  1.00  0.00     0.032 C 
ENDBRANCH  20  21
ENDBRANCH  11  20
BRANCH  10  26
HETATM   26  N4  UNL     1      18.663  -4.964  10.701  1.00  0.00    -0.382 N 
ATOM     27  H42 UNL     1      19.623  -4.889  10.363  1.00  0.00     0.157 HD
ATOM     28  H41 UNL     1      18.395  -5.778  11.255  1.00  0.00     0.157 HD
ENDBRANCH  10  26
TORSDOF 7
ENDMDL
MODEL 4
REMARK VINA RESULT: -6.965034694      1.209      1.669
REMARK  7 active torsions:
REMARK  status: ('A' for Active; 'I' for Inactive)
REMARK    1  A    between atoms: C2_2  and  C3_3 
REMARK    2  A    between atoms: C3_3  and  O1_4 
REMARK    3  A    between atoms: C3_3  and  C15_25 
REMARK    4  A    between atoms: O1_4  and  C4_5 
REMARK    5  A    between atoms: C8_14  and  N4_15 
REMARK    6  A    between atoms: C9_18  and  O2_19 
REMARK    7  A    between atoms: O2_19  and  C10_20 
ROOT
HETATM    1  C4  UNL     1      15.663  -3.906  11.303  1.00  0.00     0.182 A 
HETATM    2  N1  UNL     1      16.965  -4.227  11.229  1.00  0.00    -0.319 N 
ATOM      3  H1  UNL     1      17.292  -5.044  11.743  1.00  0.00     0.169 HD
HETATM    4  C5  UNL     1      17.851  -3.532  10.519  1.00  0.00     0.132 A 
HETATM    5  C6  UNL     1      19.207  -3.691  10.316  1.00  0.00     0.069 A 
HETATM    6  C7  UNL     1      19.558  -2.652   9.483  1.00  0.00     0.111 A 
HETATM    7  N2  UNL     1      18.455  -1.951   9.236  1.00  0.00    -0.302 N 
ATOM      8  H2  UNL     1      18.428  -1.121   8.643  1.00  0.00     0.186 HD
HETATM    9  N3  UNL     1      17.397  -2.457   9.849  1.00  0.00    -0.221 N 
HETATM   10  C8  UNL     1      16.111  -2.075   9.875  1.00  0.00     0.161 A 
HETATM   11  C9  UNL     1      15.217  -2.802  10.610  1.00  0.00     0.166 A 
ENDROOT
BRANCH   1  12
HETATM   12  O1  UNL     1      14.815  -4.689  12.066  1.00  0.00    -0.327 OA
BRANCH  12  13
HETATM   13  C3  UNL     1      15.241  -4.998  13.411  1.00  0.00     0.137 C 
BRANCH  13  14
HETATM   14  C2  UNL     1      14.918  -3.806  14.225  1.00  0.00     0.029 C 
HETATM   15  C1  UNL     1      16.089  -3.135  14.867  1.00  0.00     0.007 C 
ENDBRANCH  13  14
BRANCH  13  16
HETATM   16  C15 UNL     1      14.645  -6.300  13.820  1.00  0.00    -0.025 C 
HETATM   17  C16 UNL     1      13.121  -6.215  13.511  1.00  0.00     0.017 C 
HETATM   18  C17 UNL     1      14.771  -6.597  15.280  1.00  0.00     0.017 C 
HETATM   19  C18 UNL     1      15.110  -7.466  13.013  1.00  0.00     0.017 C 
ENDBRANCH  13  16
ENDBRANCH  12  13
ENDBRANCH   1  12
BRANCH  11  20
HETATM   20  O2  UNL     1      13.877  -2.446  10.667  1.00  0.00    -0.338 OA
BRANCH  20  21
HETATM   21  C10 UNL     1      13.273  -1.864  11.791  1.00  0.00     0.129 C 
HETATM   22  C11 UNL     1      12.039  -2.653  12.247  1.00  0.00     0.032 C 
HETATM   23  C12 UNL     1      11.469  -1.670  13.277  1.00  0.00     0.002 C 
HETATM   24  C13 UNL     1      11.767  -0.300  12.718  1.00  0.00     0.002 C 
HETATM   25  C14 UNL     1      12.657  -0.516  11.505  1.00  0.00     0.032 C 
ENDBRANCH  20  21
ENDBRANCH  11  20
BRANCH  10  26
HETATM   26  N4  UNL     1      15.753  -1.028   9.202  1.00  0.00    -0.382 N 
ATOM     27  H42 UNL     1      14.883  -0.999   8.669  1.00  0.00     0.157 HD
ATOM     28  H41 UNL     1      16.359  -0.207   9.205  1.00  0.00     0.157 HD
ENDBRANCH  10  26
TORSDOF 7
ENDMDL
MODEL 5
REMARK VINA RESULT: -6.947605304      2.920      5.427
REMARK  7 active torsions:
REMARK  status: ('A' for Active; 'I' for Inactive)
REMARK    1  A    between atoms: C2_2  and  C3_3 
REMARK    2  A    between atoms: C3_3  and  O1_4 
REMARK    3  A    between atoms: C3_3  and  C15_25 
REMARK    4  A    between atoms: O1_4  and  C4_5 
REMARK    5  A    between atoms: C8_14  and  N4_15 
REMARK    6  A    between atoms: C9_18  and  O2_19 
REMARK    7  A    between atoms: O2_19  and  C10_20 
ROOT
HETATM    1  C4  UNL     1      16.113  -3.769  13.341  1.00  0.00     0.182 A 
HETATM    2  N1  UNL     1      16.881  -4.288  14.313  1.00  0.00    -0.319 N 
ATOM      3  H1  UNL     1      17.887  -4.128  14.271  1.00  0.00     0.169 HD
HETATM    4  C5  UNL     1      16.396  -5.000  15.328  1.00  0.00     0.132 A 
HETATM    5  C6  UNL     1      17.003  -5.609  16.406  1.00  0.00     0.069 A 
HETATM    6  C7  UNL     1      15.969  -6.192  17.105  1.00  0.00     0.111 A 
HETATM    7  N2  UNL     1      14.845  -5.921  16.447  1.00  0.00    -0.302 N 
ATOM      8  H2  UNL     1      13.921  -6.234  16.746  1.00  0.00     0.186 HD
HETATM    9  N3  UNL     1      15.066  -5.198  15.361  1.00  0.00    -0.221 N 
HETATM   10  C8  UNL     1      14.235  -4.711  14.427  1.00  0.00     0.161 A 
HETATM   11  C9  UNL     1      14.752  -3.982  13.393  1.00  0.00     0.166 A 
ENDROOT
BRANCH   1  12
HETATM   12  O1  UNL     1      16.705  -3.040  12.325  1.00  0.00    -0.327 OA
BRANCH  12  13
HETATM   13  C3  UNL     1      17.600  -3.753  11.443  1.00  0.00     0.137 C 
BRANCH  13  14
HETATM   14  C2  UNL     1      16.742  -4.619  10.605  1.00  0.00     0.029 C 
HETATM   15  C1  UNL     1      16.984  -6.087  10.747  1.00  0.00     0.007 C 
ENDBRANCH  13  14
BRANCH  13  16
HETATM   16  C15 UNL     1      18.482  -2.772  10.751  1.00  0.00    -0.025 C 
HETATM   17  C16 UNL     1      19.597  -2.378  11.763  1.00  0.00     0.017 C 
HETATM   18  C17 UNL     1      17.792  -1.505  10.357  1.00  0.00     0.017 C 
HETATM   19  C18 UNL     1      19.231  -3.335   9.591  1.00  0.00     0.017 C 
ENDBRANCH  13  16
ENDBRANCH  12  13
ENDBRANCH   1  12
BRANCH  11  20
HETATM   20  O2  UNL     1      13.933  -3.457  12.404  1.00  0.00    -0.338 OA
BRANCH  20  21
HETATM   21  C10 UNL     1      13.642  -2.091  12.278  1.00  0.00     0.129 C 
HETATM   22  C11 UNL     1      12.247  -1.754  12.821  1.00  0.00     0.032 C 
HETATM   23  C12 UNL     1      12.118  -0.309  12.322  1.00  0.00     0.002 C 
HETATM   24  C13 UNL     1      12.824  -0.290  10.989  1.00  0.00     0.002 C 
HETATM   25  C14 UNL     1      13.502  -1.643  10.843  1.00  0.00     0.032 C 
ENDBRANCH  20  21
ENDBRANCH  11  20
BRANCH  10  26
HETATM   26  N4  UNL     1      12.965  -4.945  14.532  1.00  0.00    -0.382 N 
ATOM     27  H42 UNL     1      12.604  -5.720  15.088  1.00  0.00     0.157 HD
ATOM     28  H41 UNL     1      12.309  -4.337  14.043  1.00  0.00     0.157 HD
ENDBRANCH  10  26
TORSDOF 7
ENDMDL
