MODEL 1
REMARK VINA RESULT: -7.810653923      0.000      0.000
REMARK  7 active torsions:
REMARK  status: ('A' for Active; 'I' for Inactive)
REMARK    1  A    between atoms: C9_9  and  O1_10 
REMARK    2  A    between atoms: C12_14  and  O2_15 
REMARK    3  A    between atoms: C13_17  and  C14_18 
REMARK    4  A    between atoms: C14_18  and  C15_19 
REMARK    5  A    between atoms: C15_19  and  C16_20 
REMARK    6  A    between atoms: C16_20  and  C18_22 
REMARK    7  A    between atoms: C18_22  and  C19_23 
ROOT
HETATM    1  C1  UNL     1       8.498  -6.111  18.677  1.00  0.00     0.015 C 
HETATM    2  C2  UNL     1       7.861  -5.943  17.547  1.00  0.00    -0.082 C 
HETATM    3  C3  UNL     1       6.627  -5.134  17.497  1.00  0.00     0.034 C 
HETATM    4  C4  UNL     1       5.529  -6.032  16.997  1.00  0.00     0.013 C 
HETATM    5  C5  UNL     1       5.922  -7.358  16.467  1.00  0.00     0.031 C 
HETATM    6  C6  UNL     1       4.753  -7.949  15.738  1.00  0.00    -0.015 C 
HETATM    7  C7  UNL     1       3.826  -8.529  16.780  1.00  0.00     0.018 C 
HETATM    8  C8  UNL     1       3.945  -6.901  14.987  1.00  0.00     0.018 C 
HETATM    9  C9  UNL     1       5.185  -8.952  14.707  1.00  0.00     0.126 C 
HETATM   10  C10 UNL     1       6.015  -8.234  13.667  1.00  0.00     0.035 C 
HETATM   11  C11 UNL     1       7.027  -7.298  14.206  1.00  0.00     0.041 C 
HETATM   12  C12 UNL     1       7.208  -7.446  15.702  1.00  0.00     0.070 C 
HETATM   13  C13 UNL     1       8.276  -6.528  16.247  1.00  0.00     0.048 C 
ENDROOT
BRANCH  13  14
HETATM   14  C14 UNL     1       8.615  -5.430  15.302  1.00  0.00     0.012 C 
BRANCH  14  15
HETATM   15  C15 UNL     1       9.822  -4.629  15.629  1.00  0.00     0.005 C 
BRANCH  15  16
HETATM   16  C16 UNL     1       9.689  -3.166  15.512  1.00  0.00    -0.009 C 
HETATM   17  C17 UNL     1       8.875  -2.552  16.649  1.00  0.00     0.010 C 
BRANCH  16  18
HETATM   18  C18 UNL     1      11.030  -2.496  15.593  1.00  0.00     0.117 C 
BRANCH  18  19
HETATM   19  C19 UNL     1      12.188  -3.233  15.117  1.00  0.00     0.172 C 
HETATM   20  O3  UNL     1      12.495  -3.301  13.911  1.00  0.00    -0.648 OA
HETATM   21  O4  UNL     1      13.044  -3.921  15.994  1.00  0.00    -0.648 OA
ENDBRANCH  18  19
ENDBRANCH  16  18
ENDBRANCH  15  16
ENDBRANCH  14  15
ENDBRANCH  13  14
BRANCH  12  22
HETATM   22  O2  UNL     1       7.727  -8.738  15.846  1.00  0.00    -0.389 OA
ATOM     23  H2  UNL     1       8.672  -8.696  15.767  1.00  0.00     0.210 HD
ENDBRANCH  12  22
BRANCH   9  24
HETATM   24  O1  UNL     1       4.074  -9.432  13.987  1.00  0.00    -0.395 OA
ATOM     25  H1  UNL     1       4.282 -10.257  13.564  1.00  0.00     0.210 HD
ENDBRANCH   9  24
TORSDOF 7
ENDMDL
MODEL 2
REMARK VINA RESULT: -7.655463186      1.485      1.849
REMARK  7 active torsions:
REMARK  status: ('A' for Active; 'I' for Inactive)
REMARK    1  A    between atoms: C9_9  and  O1_10 
REMARK    2  A    between atoms: C12_14  and  O2_15 
REMARK    3  A    between atoms: C13_17  and  C14_18 
REMARK    4  A    between atoms: C14_18  and  C15_19 
REMARK    5  A    between atoms: C15_19  and  C16_20 
REMARK    6  A    between atoms: C16_20  and  C18_22 
REMARK    7  A    between atoms: C18_22  and  C19_23 
ROOT
HETATM    1  C1  UNL     1       8.597  -5.412  19.303  1.00  0.00     0.015 C 
HETATM    2  C2  UNL     1       7.657  -4.993  18.494  1.00  0.00    -0.082 C 
HETATM    3  C3  UNL     1       6.489  -4.260  19.021  1.00  0.00     0.034 C 
HETATM    4  C4  UNL     1       5.266  -5.053  18.654  1.00  0.00     0.013 C 
HETATM    5  C5  UNL     1       5.444  -6.180  17.709  1.00  0.00     0.031 C 
HETATM    6  C6  UNL     1       4.094  -6.623  17.231  1.00  0.00    -0.015 C 
HETATM    7  C7  UNL     1       3.503  -7.494  18.314  1.00  0.00     0.018 C 
HETATM    8  C8  UNL     1       3.130  -5.460  17.048  1.00  0.00     0.018 C 
HETATM    9  C9  UNL     1       4.169  -7.309  15.897  1.00  0.00     0.126 C 
HETATM   10  C10 UNL     1       4.672  -6.310  14.880  1.00  0.00     0.035 C 
HETATM   11  C11 UNL     1       5.826  -5.494  15.318  1.00  0.00     0.041 C 
HETATM   12  C12 UNL     1       6.440  -6.008  16.603  1.00  0.00     0.070 C 
HETATM   13  C13 UNL     1       7.649  -5.207  17.026  1.00  0.00     0.048 C 
ENDROOT
BRANCH  13  14
HETATM   14  C14 UNL     1       7.723  -3.889  16.338  1.00  0.00     0.012 C 
BRANCH  14  15
HETATM   15  C15 UNL     1       8.944  -3.082  16.593  1.00  0.00     0.005 C 
BRANCH  15  16
HETATM   16  C16 UNL     1       9.914  -2.995  15.487  1.00  0.00    -0.009 C 
HETATM   17  C17 UNL     1      10.740  -1.712  15.522  1.00  0.00     0.010 C 
BRANCH  16  18
HETATM   18  C18 UNL     1      10.922  -4.106  15.568  1.00  0.00     0.117 C 
BRANCH  18  19
HETATM   19  C19 UNL     1      12.281  -3.823  15.142  1.00  0.00     0.172 C 
HETATM   20  O3  UNL     1      12.568  -3.506  13.971  1.00  0.00    -0.648 OA
HETATM   21  O4  UNL     1      13.369  -3.889  16.029  1.00  0.00    -0.648 OA
ENDBRANCH  18  19
ENDBRANCH  16  18
ENDBRANCH  15  16
ENDBRANCH  14  15
ENDBRANCH  13  14
BRANCH  12  22
HETATM   22  O2  UNL     1       6.940  -7.266  16.250  1.00  0.00    -0.389 OA
ATOM     23  H2  UNL     1       7.812  -7.359  16.613  1.00  0.00     0.210 HD
ENDBRANCH  12  22
BRANCH   9  24
HETATM   24  O1  UNL     1       2.880  -7.644  15.439  1.00  0.00    -0.395 OA
ATOM     25  H1  UNL     1       2.853  -8.549  15.150  1.00  0.00     0.210 HD
ENDBRANCH   9  24
TORSDOF 7
ENDMDL
MODEL 3
REMARK VINA RESULT: -7.616274367      3.554      5.814
REMARK  7 active torsions:
REMARK  status: ('A' for Active; 'I' for Inactive)
REMARK    1  A    between atoms: C9_9  and  O1_10 
REMARK    2  A    between atoms: C12_14  and  O2_15 
REMARK    3  A    between atoms: C13_17  and  C14_18 
REMARK    4  A    between atoms: C14_18  and  C15_19 
REMARK    5  A    between atoms: C15_19  and  C16_20 
REMARK    6  A    between atoms: C16_20  and  C18_22 
REMARK    7  A    between atoms: C18_22  and  C19_23 
ROOT
HETATM    1  C1  UNL     1       8.259  -6.066  17.991  1.00  0.00     0.015 C 
HETATM    2  C2  UNL     1       7.201  -5.358  17.686  1.00  0.00    -0.082 C 
HETATM    3  C3  UNL     1       7.140  -3.922  18.024  1.00  0.00     0.034 C 
HETATM    4  C4  UNL     1       5.955  -3.730  18.929  1.00  0.00     0.013 C 
HETATM    5  C5  UNL     1       5.025  -4.873  19.085  1.00  0.00     0.031 C 
HETATM    6  C6  UNL     1       3.772  -4.385  19.746  1.00  0.00    -0.015 C 
HETATM    7  C7  UNL     1       4.059  -4.287  21.226  1.00  0.00     0.018 C 
HETATM    8  C8  UNL     1       3.382  -2.985  19.295  1.00  0.00     0.018 C 
HETATM    9  C9  UNL     1       2.594  -5.262  19.429  1.00  0.00     0.126 C 
HETATM   10  C10 UNL     1       2.342  -5.195  17.940  1.00  0.00     0.035 C 
HETATM   11  C11 UNL     1       3.550  -5.306  17.092  1.00  0.00     0.041 C 
HETATM   12  C12 UNL     1       4.770  -5.730  17.882  1.00  0.00     0.070 C 
HETATM   13  C13 UNL     1       5.993  -5.892  17.010  1.00  0.00     0.048 C 
ENDROOT
BRANCH  13  14
HETATM   14  C14 UNL     1       5.838  -5.228  15.688  1.00  0.00     0.012 C 
BRANCH  14  15
HETATM   15  C15 UNL     1       6.077  -6.077  14.493  1.00  0.00     0.005 C 
BRANCH  15  16
HETATM   16  C16 UNL     1       5.286  -7.316  14.400  1.00  0.00    -0.009 C 
HETATM   17  C17 UNL     1       4.579  -7.470  13.056  1.00  0.00     0.010 C 
BRANCH  16  18
HETATM   18  C18 UNL     1       6.168  -8.526  14.514  1.00  0.00     0.117 C 
BRANCH  18  19
HETATM   19  C19 UNL     1       6.005  -9.380  15.677  1.00  0.00     0.172 C 
HETATM   20  O3  UNL     1       6.868 -10.204  16.035  1.00  0.00    -0.648 OA
HETATM   21  O4  UNL     1       4.853  -9.331  16.481  1.00  0.00    -0.648 OA
ENDBRANCH  18  19
ENDBRANCH  16  18
ENDBRANCH  15  16
ENDBRANCH  14  15
ENDBRANCH  13  14
BRANCH  12  22
HETATM   22  O2  UNL     1       4.452  -7.023  18.312  1.00  0.00    -0.389 OA
ATOM     23  H2  UNL     1       4.495  -7.610  17.566  1.00  0.00     0.210 HD
ENDBRANCH  12  22
BRANCH   9  24
HETATM   24  O1  UNL     1       1.418  -4.737  20.000  1.00  0.00    -0.395 OA
ATOM     25  H1  UNL     1       0.767  -5.420  20.109  1.00  0.00     0.210 HD
ENDBRANCH   9  24
TORSDOF 7
ENDMDL
MODEL 4
REMARK VINA RESULT: -7.553990917      3.405      5.489
REMARK  7 active torsions:
REMARK  status: ('A' for Active; 'I' for Inactive)
REMARK    1  A    between atoms: C9_9  and  O1_10 
REMARK    2  A    between atoms: C12_14  and  O2_15 
REMARK    3  A    between atoms: C13_17  and  C14_18 
REMARK    4  A    between atoms: C14_18  and  C15_19 
REMARK    5  A    between atoms: C15_19  and  C16_20 
REMARK    6  A    between atoms: C16_20  and  C18_22 
REMARK    7  A    between atoms: C18_22  and  C19_23 
ROOT
HETATM    1  C1  UNL     1       8.224  -5.765  18.606  1.00  0.00     0.015 C 
HETATM    2  C2  UNL     1       7.182  -5.120  18.148  1.00  0.00    -0.082 C 
HETATM    3  C3  UNL     1       7.033  -3.671  18.391  1.00  0.00     0.034 C 
HETATM    4  C4  UNL     1       5.750  -3.479  19.151  1.00  0.00     0.013 C 
HETATM    5  C5  UNL     1       4.850  -4.649  19.274  1.00  0.00     0.031 C 
HETATM    6  C6  UNL     1       3.516  -4.178  19.767  1.00  0.00    -0.015 C 
HETATM    7  C7  UNL     1       3.635  -3.987  21.260  1.00  0.00     0.018 C 
HETATM    8  C8  UNL     1       3.128  -2.823  19.195  1.00  0.00     0.018 C 
HETATM    9  C9  UNL     1       2.411  -5.120  19.378  1.00  0.00     0.126 C 
HETATM   10  C10 UNL     1       2.321  -5.145  17.870  1.00  0.00     0.035 C 
HETATM   11  C11 UNL     1       3.618  -5.252  17.164  1.00  0.00     0.041 C 
HETATM   12  C12 UNL     1       4.758  -5.580  18.103  1.00  0.00     0.070 C 
HETATM   13  C13 UNL     1       6.074  -5.739  17.379  1.00  0.00     0.048 C 
ENDROOT
BRANCH  13  14
HETATM   14  C14 UNL     1       6.041  -5.156  16.011  1.00  0.00     0.012 C 
BRANCH  14  15
HETATM   15  C15 UNL     1       6.094  -6.121  14.882  1.00  0.00     0.005 C 
BRANCH  15  16
HETATM   16  C16 UNL     1       7.365  -6.842  14.696  1.00  0.00    -0.009 C 
HETATM   17  C17 UNL     1       8.587  -5.972  14.981  1.00  0.00     0.010 C 
BRANCH  16  18
HETATM   18  C18 UNL     1       7.477  -7.991  15.654  1.00  0.00     0.117 C 
BRANCH  18  19
HETATM   19  C19 UNL     1       6.483  -9.047  15.570  1.00  0.00     0.172 C 
HETATM   20  O3  UNL     1       6.602 -10.027  14.809  1.00  0.00    -0.648 OA
HETATM   21  O4  UNL     1       5.312  -9.031  16.349  1.00  0.00    -0.648 OA
ENDBRANCH  18  19
ENDBRANCH  16  18
ENDBRANCH  15  16
ENDBRANCH  14  15
ENDBRANCH  13  14
BRANCH  12  22
HETATM   22  O2  UNL     1       4.442  -6.860  18.573  1.00  0.00    -0.389 OA
ATOM     23  H2  UNL     1       3.839  -6.776  19.302  1.00  0.00     0.210 HD
ENDBRANCH  12  22
BRANCH   9  24
HETATM   24  O1  UNL     1       1.162  -4.613  19.787  1.00  0.00    -0.395 OA
ATOM     25  H1  UNL     1       0.630  -4.389  19.033  1.00  0.00     0.210 HD
ENDBRANCH   9  24
TORSDOF 7
ENDMDL
MODEL 5
REMARK VINA RESULT: -7.516978206      3.021      4.838
REMARK  7 active torsions:
REMARK  status: ('A' for Active; 'I' for Inactive)
REMARK    1  A    between atoms: C9_9  and  O1_10 
REMARK    2  A    between atoms: C12_14  and  O2_15 
REMARK    3  A    between atoms: C13_17  and  C14_18 
REMARK    4  A    between atoms: C14_18  and  C15_19 
REMARK    5  A    between atoms: C15_19  and  C16_20 
REMARK    6  A    between atoms: C16_20  and  C18_22 
REMARK    7  A    between atoms: C18_22  and  C19_23 
ROOT
HETATM    1  C1  UNL     1       9.098  -5.374  15.815  1.00  0.00     0.015 C 
HETATM    2  C2  UNL     1       8.009  -6.009  16.166  1.00  0.00    -0.082 C 
HETATM    3  C3  UNL     1       8.035  -7.466  16.400  1.00  0.00     0.034 C 
HETATM    4  C4  UNL     1       7.064  -8.088  15.434  1.00  0.00     0.013 C 
HETATM    5  C5  UNL     1       6.174  -7.174  14.681  1.00  0.00     0.031 C 
HETATM    6  C6  UNL     1       5.090  -7.984  14.037  1.00  0.00    -0.015 C 
HETATM    7  C7  UNL     1       5.677  -8.601  12.790  1.00  0.00     0.018 C 
HETATM    8  C8  UNL     1       4.632  -9.143  14.909  1.00  0.00     0.018 C 
HETATM    9  C9  UNL     1       3.862  -7.161  13.768  1.00  0.00     0.126 C 
HETATM   10  C10 UNL     1       3.309  -6.690  15.093  1.00  0.00     0.035 C 
HETATM   11  C11 UNL     1       4.314  -6.163  16.043  1.00  0.00     0.041 C 
HETATM   12  C12 UNL     1       5.665  -5.957  15.394  1.00  0.00     0.070 C 
HETATM   13  C13 UNL     1       6.680  -5.372  16.347  1.00  0.00     0.048 C 
ENDROOT
BRANCH  13  14
HETATM   14  C14 UNL     1       6.263  -5.506  17.769  1.00  0.00     0.012 C 
BRANCH  14  15
HETATM   15  C15 UNL     1       7.140  -4.854  18.777  1.00  0.00     0.005 C 
BRANCH  15  16
HETATM   16  C16 UNL     1       6.736  -3.509  19.223  1.00  0.00    -0.009 C 
HETATM   17  C17 UNL     1       7.404  -2.394  18.422  1.00  0.00     0.010 C 
BRANCH  16  18
HETATM   18  C18 UNL     1       5.263  -3.297  19.026  1.00  0.00     0.117 C 
BRANCH  18  19
HETATM   19  C19 UNL     1       4.404  -3.366  20.195  1.00  0.00     0.172 C 
HETATM   20  O3  UNL     1       3.985  -2.351  20.785  1.00  0.00    -0.648 OA
HETATM   21  O4  UNL     1       3.986  -4.592  20.741  1.00  0.00    -0.648 OA
ENDBRANCH  18  19
ENDBRANCH  16  18
ENDBRANCH  15  16
ENDBRANCH  14  15
ENDBRANCH  13  14
BRANCH  12  22
HETATM   22  O2  UNL     1       5.429  -4.952  14.449  1.00  0.00    -0.389 OA
ATOM     23  H2  UNL     1       5.563  -4.108  14.864  1.00  0.00     0.210 HD
ENDBRANCH  12  22
BRANCH   9  24
HETATM   24  O1  UNL     1       2.835  -7.965  13.234  1.00  0.00    -0.395 OA
ATOM     25  H1  UNL     1       2.652  -8.697  13.810  1.00  0.00     0.210 HD
ENDBRANCH   9  24
TORSDOF 7
ENDMDL
