MODEL 1
REMARK VINA RESULT: -6.000422846      0.000      0.000
REMARK  14 active torsions:
REMARK  status: ('A' for Active; 'I' for Inactive)
REMARK    1  A    between atoms: C2_7  and  C3_8 
REMARK    2  A    between atoms: C4_11  and  S1_12 
REMARK    3  A    between atoms: S1_12  and  C5_13 
REMARK    4  A    between atoms: C7_15  and  O3_16 
REMARK    5  A    between atoms: C7_15  and  C8_18 
REMARK    6  A    between atoms: C8_18  and  O5_20 
REMARK    7  A    between atoms: O5_20  and  C9_21 
REMARK    8  A    between atoms: C9_21  and  C10_22 
REMARK    9  A    between atoms: C10_22  and  O6_23 
REMARK   10  A    between atoms: C11_25  and  O7_26 
REMARK   11  A    between atoms: C12_28  and  N4_29 
REMARK   12  A    between atoms: C13_33  and  O8_34 
REMARK   13  A    between atoms: C14_36  and  O9_37 
REMARK   14  A    between atoms: C15_39  and  O10_40 
ROOT
HETATM    1  C8  UNL     1      15.466  -6.521  37.560  1.00  0.00     0.301 C 
HETATM    2  O4  UNL     1      14.328  -6.209  37.978  1.00  0.00    -0.261 OA
ENDROOT
BRANCH   1   3
HETATM    3  C7  UNL     1      15.496  -7.376  36.345  1.00  0.00     0.208 C 
HETATM    4  C6  UNL     1      14.108  -7.886  35.929  1.00  0.00     0.080 C 
HETATM    5  C5  UNL     1      14.869  -9.129  35.515  1.00  0.00     0.131 C 
HETATM    6  C16 UNL     1      15.844  -8.797  36.580  1.00  0.00     0.185 C 
HETATM    7  O11 UNL     1      16.596  -9.380  37.321  1.00  0.00    -0.293 OA
BRANCH   5   8
HETATM    8  S1  UNL     1      13.996 -10.678  35.697  1.00  0.00    -0.097 SA
BRANCH   8   9
HETATM    9  C4  UNL     1      13.550 -11.272  34.072  1.00  0.00     0.108 A 
HETATM   10  C2  UNL     1      12.329 -11.110  33.575  1.00  0.00     0.159 A 
HETATM   11  N3  UNL     1      12.053 -11.611  32.274  1.00  0.00    -0.290 N 
HETATM   12  N2  UNL     1      13.003 -12.267  31.486  1.00  0.00    -0.273 N 
ATOM     13  H3  UNL     1      11.114 -11.486  31.897  1.00  0.00     0.187 HD
HETATM   14  C1  UNL     1      14.195 -12.434  31.950  1.00  0.00     0.208 A 
ATOM     15  H2  UNL     1      12.757 -12.609  30.557  1.00  0.00     0.189 HD
HETATM   16  N1  UNL     1      15.230 -13.086  31.232  1.00  0.00    -0.062 NA
HETATM   17  N5  UNL     1      14.487 -11.943  33.241  1.00  0.00    -0.322 N 
ATOM     18  H5  UNL     1      15.431 -12.078  33.601  1.00  0.00     0.169 HD
BRANCH  10  19
HETATM   19  C3  UNL     1      11.308 -10.441  34.341  1.00  0.00     0.231 C 
HETATM   20  O1  UNL     1      10.543 -11.095  35.066  1.00  0.00    -0.643 OA
HETATM   21  O2  UNL     1      11.171  -9.070  34.277  1.00  0.00    -0.643 OA
ENDBRANCH  10  19
ENDBRANCH   8   9
ENDBRANCH   5   8
BRANCH   3  22
HETATM   22  O3  UNL     1      16.210  -6.867  35.289  1.00  0.00    -0.372 OA
ATOM     23  H3  UNL     1      16.139  -5.923  35.222  1.00  0.00     0.211 HD
ENDBRANCH   3  22
ENDBRANCH   1   3
BRANCH   1  24
HETATM   24  O5  UNL     1      16.538  -6.070  38.223  1.00  0.00    -0.316 OA
BRANCH  24  25
HETATM   25  C9  UNL     1      17.861  -6.315  38.257  1.00  0.00     0.222 C 
BRANCH  25  26
HETATM   26  C10 UNL     1      18.881  -5.438  37.662  1.00  0.00     0.136 C 
HETATM   27  C11 UNL     1      18.947  -5.277  36.200  1.00  0.00     0.190 C 
HETATM   28  C12 UNL     1      20.092  -4.365  35.788  1.00  0.00     0.246 C 
HETATM   29  C13 UNL     1      20.994  -3.942  36.888  1.00  0.00     0.182 C 
HETATM   30  C14 UNL     1      20.340  -3.566  38.171  1.00  0.00     0.180 C 
HETATM   31  C15 UNL     1      18.919  -4.054  38.293  1.00  0.00     0.188 C 
BRANCH  26  32
HETATM   32  O6  UNL     1      20.135  -6.029  38.063  1.00  0.00    -0.382 OA
ATOM     33  H6  UNL     1      20.779  -5.614  37.501  1.00  0.00     0.210 HD
ENDBRANCH  26  32
BRANCH  27  34
HETATM   34  O7  UNL     1      19.233  -6.517  35.628  1.00  0.00    -0.390 OA
ATOM     35  H7  UNL     1      18.879  -6.533  34.747  1.00  0.00     0.210 HD
ENDBRANCH  27  34
BRANCH  28  36
HETATM   36  N4  UNL     1      20.910  -5.011  34.773  1.00  0.00    -0.070 N 
ATOM     37  H43 UNL     1      21.810  -5.315  35.145  1.00  0.00     0.274 HD
ATOM     38  H42 UNL     1      20.540  -5.923  34.509  1.00  0.00     0.274 HD
ATOM     39  H41 UNL     1      21.022  -4.398  33.965  1.00  0.00     0.274 HD
ENDBRANCH  28  36
BRANCH  29  40
HETATM   40  O8  UNL     1      21.662  -2.775  36.426  1.00  0.00    -0.391 OA
ATOM     41  H8  UNL     1      22.435  -2.678  36.970  1.00  0.00     0.210 HD
ENDBRANCH  29  40
BRANCH  30  42
HETATM   42  O9  UNL     1      20.335  -2.183  38.373  1.00  0.00    -0.390 OA
ATOM     43  H9  UNL     1      20.024  -1.710  37.609  1.00  0.00     0.210 HD
ENDBRANCH  30  42
BRANCH  31  44
HETATM   44  O10 UNL     1      17.992  -3.193  37.758  1.00  0.00    -0.390 OA
ATOM     45  H10 UNL     1      17.100  -3.510  37.837  1.00  0.00     0.210 HD
ENDBRANCH  31  44
ENDBRANCH  25  26
ENDBRANCH  24  25
ENDBRANCH   1  24
TORSDOF 14
ENDMDL
MODEL 2
REMARK VINA RESULT: -5.922260848      2.055      3.312
REMARK  14 active torsions:
REMARK  status: ('A' for Active; 'I' for Inactive)
REMARK    1  A    between atoms: C2_7  and  C3_8 
REMARK    2  A    between atoms: C4_11  and  S1_12 
REMARK    3  A    between atoms: S1_12  and  C5_13 
REMARK    4  A    between atoms: C7_15  and  O3_16 
REMARK    5  A    between atoms: C7_15  and  C8_18 
REMARK    6  A    between atoms: C8_18  and  O5_20 
REMARK    7  A    between atoms: O5_20  and  C9_21 
REMARK    8  A    between atoms: C9_21  and  C10_22 
REMARK    9  A    between atoms: C10_22  and  O6_23 
REMARK   10  A    between atoms: C11_25  and  O7_26 
REMARK   11  A    between atoms: C12_28  and  N4_29 
REMARK   12  A    between atoms: C13_33  and  O8_34 
REMARK   13  A    between atoms: C14_36  and  O9_37 
REMARK   14  A    between atoms: C15_39  and  O10_40 
ROOT
HETATM    1  C8  UNL     1      15.662  -6.729  39.061  1.00  0.00     0.301 C 
HETATM    2  O4  UNL     1      15.611  -7.615  39.944  1.00  0.00    -0.261 OA
ENDROOT
BRANCH   1   3
HETATM    3  C7  UNL     1      14.636  -6.824  37.990  1.00  0.00     0.208 C 
HETATM    4  C6  UNL     1      14.299  -8.271  37.602  1.00  0.00     0.080 C 
HETATM    5  C5  UNL     1      14.148  -7.690  36.211  1.00  0.00     0.131 C 
HETATM    6  C16 UNL     1      15.148  -6.672  36.608  1.00  0.00     0.185 C 
HETATM    7  O11 UNL     1      16.004  -6.002  36.084  1.00  0.00    -0.293 OA
BRANCH   5   8
HETATM    8  S1  UNL     1      14.608  -8.766  34.860  1.00  0.00    -0.097 SA
BRANCH   8   9
HETATM    9  C4  UNL     1      13.120  -9.465  34.160  1.00  0.00     0.108 A 
HETATM   10  C2  UNL     1      13.078 -10.710  33.699  1.00  0.00     0.159 A 
HETATM   11  N3  UNL     1      11.856 -11.193  33.157  1.00  0.00    -0.290 N 
HETATM   12  N2  UNL     1      10.690 -10.424  33.085  1.00  0.00    -0.273 N 
ATOM     13  H3  UNL     1      11.828 -12.148  32.802  1.00  0.00     0.187 HD
HETATM   14  C1  UNL     1      10.711  -9.213  33.528  1.00  0.00     0.208 A 
ATOM     15  H2  UNL     1       9.837 -10.816  32.687  1.00  0.00     0.189 HD
HETATM   16  N1  UNL     1       9.583  -8.352  33.501  1.00  0.00    -0.062 NA
HETATM   17  N5  UNL     1      11.916  -8.716  34.070  1.00  0.00    -0.322 N 
ATOM     18  H5  UNL     1      11.923  -7.758  34.418  1.00  0.00     0.169 HD
BRANCH  10  19
HETATM   19  C3  UNL     1      14.248 -11.549  33.747  1.00  0.00     0.231 C 
HETATM   20  O1  UNL     1      14.997 -11.633  32.762  1.00  0.00    -0.643 OA
HETATM   21  O2  UNL     1      14.547 -12.267  34.886  1.00  0.00    -0.643 OA
ENDBRANCH  10  19
ENDBRANCH   8   9
ENDBRANCH   5   8
BRANCH   3  22
HETATM   22  O3  UNL     1      13.517  -6.053  38.183  1.00  0.00    -0.372 OA
ATOM     23  H3  UNL     1      13.669  -5.332  38.782  1.00  0.00     0.211 HD
ENDBRANCH   3  22
ENDBRANCH   1   3
BRANCH   1  24
HETATM   24  O5  UNL     1      16.612  -5.790  39.151  1.00  0.00    -0.316 OA
BRANCH  24  25
HETATM   25  C9  UNL     1      17.957  -5.732  39.137  1.00  0.00     0.222 C 
BRANCH  25  26
HETATM   26  C10 UNL     1      18.744  -5.003  38.132  1.00  0.00     0.136 C 
HETATM   27  C11 UNL     1      19.792  -4.062  38.562  1.00  0.00     0.190 C 
HETATM   28  C12 UNL     1      20.457  -3.383  37.375  1.00  0.00     0.246 C 
HETATM   29  C13 UNL     1      19.845  -3.671  36.054  1.00  0.00     0.182 C 
HETATM   30  C14 UNL     1      19.439  -5.082  35.807  1.00  0.00     0.180 C 
HETATM   31  C15 UNL     1      19.334  -5.910  37.062  1.00  0.00     0.188 C 
BRANCH  26  32
HETATM   32  O6  UNL     1      17.767  -4.221  37.413  1.00  0.00    -0.382 OA
ATOM     33  H6  UNL     1      17.311  -3.736  38.091  1.00  0.00     0.210 HD
ENDBRANCH  26  32
BRANCH  27  34
HETATM   34  O7  UNL     1      19.195  -3.034  39.292  1.00  0.00    -0.390 OA
ATOM     35  H7  UNL     1      19.856  -2.384  39.497  1.00  0.00     0.210 HD
ENDBRANCH  27  34
BRANCH  28  36
HETATM   36  N4  UNL     1      20.456  -1.939  37.554  1.00  0.00    -0.070 N 
ATOM     37  H43 UNL     1      21.229  -1.494  37.059  1.00  0.00     0.274 HD
ATOM     38  H42 UNL     1      19.684  -1.495  37.058  1.00  0.00     0.274 HD
ATOM     39  H41 UNL     1      20.456  -1.706  38.546  1.00  0.00     0.274 HD
ENDBRANCH  28  36
BRANCH  29  40
HETATM   40  O8  UNL     1      20.839  -3.370  35.082  1.00  0.00    -0.391 OA
ATOM     41  H8  UNL     1      21.246  -4.197  34.853  1.00  0.00     0.210 HD
ENDBRANCH  29  40
BRANCH  30  42
HETATM   42  O9  UNL     1      20.316  -5.737  34.937  1.00  0.00    -0.390 OA
ATOM     43  H9  UNL     1      20.448  -5.254  34.130  1.00  0.00     0.210 HD
ENDBRANCH  30  42
BRANCH  31  44
HETATM   44  O10 UNL     1      20.519  -6.491  37.442  1.00  0.00    -0.390 OA
ATOM     45  H10 UNL     1      20.720  -6.358  38.361  1.00  0.00     0.210 HD
ENDBRANCH  31  44
ENDBRANCH  25  26
ENDBRANCH  24  25
ENDBRANCH   1  24
TORSDOF 14
ENDMDL
MODEL 3
REMARK VINA RESULT: -5.880058972      2.540      3.411
REMARK  14 active torsions:
REMARK  status: ('A' for Active; 'I' for Inactive)
REMARK    1  A    between atoms: C2_7  and  C3_8 
REMARK    2  A    between atoms: C4_11  and  S1_12 
REMARK    3  A    between atoms: S1_12  and  C5_13 
REMARK    4  A    between atoms: C7_15  and  O3_16 
REMARK    5  A    between atoms: C7_15  and  C8_18 
REMARK    6  A    between atoms: C8_18  and  O5_20 
REMARK    7  A    between atoms: O5_20  and  C9_21 
REMARK    8  A    between atoms: C9_21  and  C10_22 
REMARK    9  A    between atoms: C10_22  and  O6_23 
REMARK   10  A    between atoms: C11_25  and  O7_26 
REMARK   11  A    between atoms: C12_28  and  N4_29 
REMARK   12  A    between atoms: C13_33  and  O8_34 
REMARK   13  A    between atoms: C14_36  and  O9_37 
REMARK   14  A    between atoms: C15_39  and  O10_40 
ROOT
HETATM    1  C8  UNL     1      16.210  -8.083  36.587  1.00  0.00     0.301 C 
HETATM    2  O4  UNL     1      16.109  -9.123  37.275  1.00  0.00    -0.261 OA
ENDROOT
BRANCH   1   3
HETATM    3  C7  UNL     1      14.950  -7.323  36.375  1.00  0.00     0.208 C 
HETATM    4  C6  UNL     1      14.061  -7.264  37.626  1.00  0.00     0.080 C 
HETATM    5  C5  UNL     1      12.927  -7.333  36.623  1.00  0.00     0.131 C 
HETATM    6  C16 UNL     1      13.849  -8.088  35.744  1.00  0.00     0.185 C 
HETATM    7  O11 UNL     1      13.780  -8.940  34.893  1.00  0.00    -0.293 OA
BRANCH   5   8
HETATM    8  S1  UNL     1      11.460  -8.198  37.162  1.00  0.00    -0.097 SA
BRANCH   8   9
HETATM    9  C4  UNL     1      10.382  -8.419  35.753  1.00  0.00     0.108 A 
HETATM   10  C2  UNL     1       9.326  -7.640  35.549  1.00  0.00     0.159 A 
HETATM   11  N3  UNL     1       8.517  -7.879  34.404  1.00  0.00    -0.290 N 
HETATM   12  N2  UNL     1       8.777  -8.893  33.478  1.00  0.00    -0.273 N 
ATOM     13  H3  UNL     1       7.706  -7.280  34.252  1.00  0.00     0.187 HD
HETATM   14  C1  UNL     1       9.798  -9.660  33.659  1.00  0.00     0.208 A 
ATOM     15  H2  UNL     1       8.167  -9.025  32.671  1.00  0.00     0.189 HD
HETATM   16  N1  UNL     1      10.148 -10.716  32.779  1.00  0.00    -0.062 NA
HETATM   17  N5  UNL     1      10.613  -9.437  34.791  1.00  0.00    -0.322 N 
ATOM     18  H5  UNL     1      11.418 -10.047  34.926  1.00  0.00     0.169 HD
BRANCH  10  19
HETATM   19  C3  UNL     1       9.008  -6.578  36.469  1.00  0.00     0.231 C 
HETATM   20  O1  UNL     1       9.420  -5.427  36.261  1.00  0.00    -0.643 OA
HETATM   21  O2  UNL     1       8.244  -6.830  37.589  1.00  0.00    -0.643 OA
ENDBRANCH  10  19
ENDBRANCH   8   9
ENDBRANCH   5   8
BRANCH   3  22
HETATM   22  O3  UNL     1      15.100  -6.099  35.774  1.00  0.00    -0.372 OA
ATOM     23  H3  UNL     1      15.994  -5.780  35.812  1.00  0.00     0.211 HD
ENDBRANCH   3  22
ENDBRANCH   1   3
BRANCH   1  24
HETATM   24  O5  UNL     1      17.414  -7.745  36.110  1.00  0.00    -0.316 OA
BRANCH  24  25
HETATM   25  C9  UNL     1      18.618  -7.399  36.604  1.00  0.00     0.222 C 
BRANCH  25  26
HETATM   26  C10 UNL     1      19.076  -6.012  36.772  1.00  0.00     0.136 C 
HETATM   27  C11 UNL     1      19.315  -5.170  35.588  1.00  0.00     0.190 C 
HETATM   28  C12 UNL     1      19.823  -3.789  35.976  1.00  0.00     0.246 C 
HETATM   29  C13 UNL     1      20.118  -3.604  37.418  1.00  0.00     0.182 C 
HETATM   30  C14 UNL     1      19.139  -4.189  38.374  1.00  0.00     0.180 C 
HETATM   31  C15 UNL     1      18.228  -5.218  37.755  1.00  0.00     0.188 C 
BRANCH  26  32
HETATM   32  O6  UNL     1      20.347  -6.137  37.444  1.00  0.00    -0.382 OA
ATOM     33  H6  UNL     1      20.989  -6.053  36.749  1.00  0.00     0.210 HD
ENDBRANCH  26  32
BRANCH  27  34
HETATM   34  O7  UNL     1      20.337  -5.744  34.832  1.00  0.00    -0.390 OA
ATOM     35  H7  UNL     1      20.656  -5.098  34.212  1.00  0.00     0.210 HD
ENDBRANCH  27  34
BRANCH  28  36
HETATM   36  N4  UNL     1      21.034  -3.471  35.235  1.00  0.00    -0.070 N 
ATOM     37  H43 UNL     1      21.563  -2.718  35.675  1.00  0.00     0.274 HD
ATOM     38  H42 UNL     1      21.732  -4.211  35.310  1.00  0.00     0.274 HD
ATOM     39  H41 UNL     1      20.809  -3.259  34.263  1.00  0.00     0.274 HD
ENDBRANCH  28  36
BRANCH  29  40
HETATM   40  O8  UNL     1      20.106  -2.200  37.648  1.00  0.00    -0.391 OA
ATOM     41  H8  UNL     1      20.200  -1.791  36.796  1.00  0.00     0.210 HD
ENDBRANCH  29  40
BRANCH  30  42
HETATM   42  O9  UNL     1      18.335  -3.212  38.969  1.00  0.00    -0.390 OA
ATOM     43  H9  UNL     1      18.839  -2.612  39.506  1.00  0.00     0.210 HD
ENDBRANCH  30  42
BRANCH  31  44
HETATM   44  O10 UNL     1      17.100  -4.683  37.181  1.00  0.00    -0.390 OA
ATOM     45  H10 UNL     1      16.425  -4.472  37.815  1.00  0.00     0.210 HD
ENDBRANCH  31  44
ENDBRANCH  25  26
ENDBRANCH  24  25
ENDBRANCH   1  24
TORSDOF 14
ENDMDL
MODEL 4
REMARK VINA RESULT: -5.879926048      1.982      2.832
REMARK  14 active torsions:
REMARK  status: ('A' for Active; 'I' for Inactive)
REMARK    1  A    between atoms: C2_7  and  C3_8 
REMARK    2  A    between atoms: C4_11  and  S1_12 
REMARK    3  A    between atoms: S1_12  and  C5_13 
REMARK    4  A    between atoms: C7_15  and  O3_16 
REMARK    5  A    between atoms: C7_15  and  C8_18 
REMARK    6  A    between atoms: C8_18  and  O5_20 
REMARK    7  A    between atoms: O5_20  and  C9_21 
REMARK    8  A    between atoms: C9_21  and  C10_22 
REMARK    9  A    between atoms: C10_22  and  O6_23 
REMARK   10  A    between atoms: C11_25  and  O7_26 
REMARK   11  A    between atoms: C12_28  and  N4_29 
REMARK   12  A    between atoms: C13_33  and  O8_34 
REMARK   13  A    between atoms: C14_36  and  O9_37 
REMARK   14  A    between atoms: C15_39  and  O10_40 
ROOT
HETATM    1  C8  UNL     1      16.035  -6.491  38.863  1.00  0.00     0.301 C 
HETATM    2  O4  UNL     1      15.751  -5.811  39.875  1.00  0.00    -0.261 OA
ENDROOT
BRANCH   1   3
HETATM    3  C7  UNL     1      14.914  -6.748  37.922  1.00  0.00     0.208 C 
HETATM    4  C6  UNL     1      14.696  -8.241  37.634  1.00  0.00     0.080 C 
HETATM    5  C5  UNL     1      14.330  -7.752  36.247  1.00  0.00     0.131 C 
HETATM    6  C16 UNL     1      15.250  -6.616  36.485  1.00  0.00     0.185 C 
HETATM    7  O11 UNL     1      15.963  -5.889  35.839  1.00  0.00    -0.293 OA
BRANCH   5   8
HETATM    8  S1  UNL     1      14.752  -8.844  34.897  1.00  0.00    -0.097 SA
BRANCH   8   9
HETATM    9  C4  UNL     1      13.243  -9.517  34.218  1.00  0.00     0.108 A 
HETATM   10  C2  UNL     1      13.176 -10.757  33.747  1.00  0.00     0.159 A 
HETATM   11  N3  UNL     1      11.938 -11.219  33.223  1.00  0.00    -0.290 N 
HETATM   12  N2  UNL     1      10.782 -10.434  33.177  1.00  0.00    -0.273 N 
ATOM     13  H3  UNL     1      11.891 -12.171  32.860  1.00  0.00     0.187 HD
HETATM   14  C1  UNL     1      10.826  -9.227  33.631  1.00  0.00     0.208 A 
ATOM     15  H2  UNL     1       9.916 -10.811  32.792  1.00  0.00     0.189 HD
HETATM   16  N1  UNL     1       9.711  -8.350  33.631  1.00  0.00    -0.062 NA
HETATM   17  N5  UNL     1      12.048  -8.751  34.155  1.00  0.00    -0.322 N 
ATOM     18  H5  UNL     1      12.074  -7.797  34.511  1.00  0.00     0.169 HD
BRANCH  10  19
HETATM   19  C3  UNL     1      14.335 -11.612  33.767  1.00  0.00     0.231 C 
HETATM   20  O1  UNL     1      15.085 -11.671  32.781  1.00  0.00    -0.643 OA
HETATM   21  O2  UNL     1      14.623 -12.374  34.880  1.00  0.00    -0.643 OA
ENDBRANCH  10  19
ENDBRANCH   8   9
ENDBRANCH   5   8
BRANCH   3  22
HETATM   22  O3  UNL     1      13.745  -6.090  38.212  1.00  0.00    -0.372 OA
ATOM     23  H3  UNL     1      13.418  -6.292  39.080  1.00  0.00     0.211 HD
ENDBRANCH   3  22
ENDBRANCH   1   3
BRANCH   1  24
HETATM   24  O5  UNL     1      17.294  -6.919  38.712  1.00  0.00    -0.316 OA
BRANCH  24  25
HETATM   25  C9  UNL     1      18.533  -6.492  39.019  1.00  0.00     0.222 C 
BRANCH  25  26
HETATM   26  C10 UNL     1      19.102  -5.212  38.571  1.00  0.00     0.136 C 
HETATM   27  C11 UNL     1      18.672  -4.627  37.291  1.00  0.00     0.190 C 
HETATM   28  C12 UNL     1      19.408  -3.329  36.992  1.00  0.00     0.246 C 
HETATM   29  C13 UNL     1      20.495  -2.984  37.940  1.00  0.00     0.182 C 
HETATM   30  C14 UNL     1      20.211  -3.211  39.384  1.00  0.00     0.180 C 
HETATM   31  C15 UNL     1      19.038  -4.125  39.634  1.00  0.00     0.188 C 
BRANCH  26  32
HETATM   32  O6  UNL     1      20.515  -5.478  38.441  1.00  0.00    -0.382 OA
ATOM     33  H6  UNL     1      20.923  -4.625  38.537  1.00  0.00     0.210 HD
ENDBRANCH  26  32
BRANCH  27  34
HETATM   34  O7  UNL     1      19.024  -5.499  36.260  1.00  0.00    -0.390 OA
ATOM     35  H7  UNL     1      18.370  -5.440  35.575  1.00  0.00     0.210 HD
ENDBRANCH  27  34
BRANCH  28  36
HETATM   36  N4  UNL     1      19.985  -3.372  35.658  1.00  0.00    -0.070 N 
ATOM     37  H43 UNL     1      20.937  -3.740  35.667  1.00  0.00     0.274 HD
ATOM     38  H42 UNL     1      19.552  -4.090  35.078  1.00  0.00     0.274 HD
ATOM     39  H41 UNL     1      19.938  -2.452  35.222  1.00  0.00     0.274 HD
ENDBRANCH  28  36
BRANCH  29  40
HETATM   40  O8  UNL     1      20.718  -1.587  37.797  1.00  0.00    -0.391 OA
ATOM     41  H8  UNL     1      20.644  -1.215  38.667  1.00  0.00     0.210 HD
ENDBRANCH  29  40
BRANCH  30  42
HETATM   42  O9  UNL     1      19.972  -2.016  40.068  1.00  0.00    -0.390 OA
ATOM     43  H9  UNL     1      19.061  -1.926  40.325  1.00  0.00     0.210 HD
ENDBRANCH  30  42
BRANCH  31  44
HETATM   44  O10 UNL     1      17.828  -3.476  39.666  1.00  0.00    -0.390 OA
ATOM     45  H10 UNL     1      17.372  -3.498  38.834  1.00  0.00     0.210 HD
ENDBRANCH  31  44
ENDBRANCH  25  26
ENDBRANCH  24  25
ENDBRANCH   1  24
TORSDOF 14
ENDMDL
MODEL 5
REMARK VINA RESULT: -5.860607466      3.242      4.270
REMARK  14 active torsions:
REMARK  status: ('A' for Active; 'I' for Inactive)
REMARK    1  A    between atoms: C2_7  and  C3_8 
REMARK    2  A    between atoms: C4_11  and  S1_12 
REMARK    3  A    between atoms: S1_12  and  C5_13 
REMARK    4  A    between atoms: C7_15  and  O3_16 
REMARK    5  A    between atoms: C7_15  and  C8_18 
REMARK    6  A    between atoms: C8_18  and  O5_20 
REMARK    7  A    between atoms: O5_20  and  C9_21 
REMARK    8  A    between atoms: C9_21  and  C10_22 
REMARK    9  A    between atoms: C10_22  and  O6_23 
REMARK   10  A    between atoms: C11_25  and  O7_26 
REMARK   11  A    between atoms: C12_28  and  N4_29 
REMARK   12  A    between atoms: C13_33  and  O8_34 
REMARK   13  A    between atoms: C14_36  and  O9_37 
REMARK   14  A    between atoms: C15_39  and  O10_40 
ROOT
HETATM    1  C8  UNL     1      16.301  -8.164  36.611  1.00  0.00     0.301 C 
HETATM    2  O4  UNL     1      16.288  -9.176  37.348  1.00  0.00    -0.261 OA
ENDROOT
BRANCH   1   3
HETATM    3  C7  UNL     1      14.984  -7.513  36.383  1.00  0.00     0.208 C 
HETATM    4  C6  UNL     1      14.051  -7.594  37.600  1.00  0.00     0.080 C 
HETATM    5  C5  UNL     1      12.963  -7.719  36.552  1.00  0.00     0.131 C 
HETATM    6  C16 UNL     1      13.982  -8.345  35.677  1.00  0.00     0.185 C 
HETATM    7  O11 UNL     1      14.022  -9.158  34.787  1.00  0.00    -0.293 OA
BRANCH   5   8
HETATM    8  S1  UNL     1      11.565  -8.739  36.994  1.00  0.00    -0.097 SA
BRANCH   8   9
HETATM    9  C4  UNL     1      10.072  -7.927  36.440  1.00  0.00     0.108 A 
HETATM   10  C2  UNL     1       9.575  -8.126  35.224  1.00  0.00     0.159 A 
HETATM   11  N3  UNL     1       8.383  -7.442  34.858  1.00  0.00    -0.290 N 
HETATM   12  N2  UNL     1       7.704  -6.570  35.714  1.00  0.00    -0.273 N 
ATOM     13  H3  UNL     1       8.005  -7.595  33.924  1.00  0.00     0.187 HD
HETATM   14  C1  UNL     1       8.171  -6.365  36.899  1.00  0.00     0.208 A 
ATOM     15  H2  UNL     1       6.851  -6.103  35.406  1.00  0.00     0.189 HD
HETATM   16  N1  UNL     1       7.558  -5.500  37.842  1.00  0.00    -0.062 NA
HETATM   17  N5  UNL     1       9.354  -7.035  37.279  1.00  0.00    -0.322 N 
ATOM     18  H5  UNL     1       9.716  -6.867  38.217  1.00  0.00     0.169 HD
BRANCH  10  19
HETATM   19  C3  UNL     1      10.231  -9.013  34.299  1.00  0.00     0.231 C 
HETATM   20  O1  UNL     1      11.000  -8.560  33.438  1.00  0.00    -0.643 OA
HETATM   21  O2  UNL     1      10.012 -10.373  34.360  1.00  0.00    -0.643 OA
ENDBRANCH  10  19
ENDBRANCH   8   9
ENDBRANCH   5   8
BRANCH   3  22
HETATM   22  O3  UNL     1      15.041  -6.253  35.843  1.00  0.00    -0.372 OA
ATOM     23  H3  UNL     1      15.673  -6.186  35.138  1.00  0.00     0.211 HD
ENDBRANCH   3  22
ENDBRANCH   1   3
BRANCH   1  24
HETATM   24  O5  UNL     1      17.470  -7.758  36.101  1.00  0.00    -0.316 OA
BRANCH  24  25
HETATM   25  C9  UNL     1      18.682  -7.395  36.560  1.00  0.00     0.222 C 
BRANCH  25  26
HETATM   26  C10 UNL     1      19.118  -6.002  36.736  1.00  0.00     0.136 C 
HETATM   27  C11 UNL     1      19.358  -5.154  35.556  1.00  0.00     0.190 C 
HETATM   28  C12 UNL     1      19.841  -3.767  35.950  1.00  0.00     0.246 C 
HETATM   29  C13 UNL     1      20.118  -3.580  37.396  1.00  0.00     0.182 C 
HETATM   30  C14 UNL     1      19.137  -4.181  38.341  1.00  0.00     0.180 C 
HETATM   31  C15 UNL     1      18.248  -5.222  37.710  1.00  0.00     0.188 C 
BRANCH  26  32
HETATM   32  O6  UNL     1      20.384  -6.109  37.422  1.00  0.00    -0.382 OA
ATOM     33  H6  UNL     1      21.000  -6.347  36.740  1.00  0.00     0.210 HD
ENDBRANCH  26  32
BRANCH  27  34
HETATM   34  O7  UNL     1      20.397  -5.712  34.810  1.00  0.00    -0.390 OA
ATOM     35  H7  UNL     1      20.366  -5.354  33.931  1.00  0.00     0.210 HD
ENDBRANCH  27  34
BRANCH  28  36
HETATM   36  N4  UNL     1      21.055  -3.430  35.223  1.00  0.00    -0.070 N 
ATOM     37  H43 UNL     1      21.594  -2.706  35.698  1.00  0.00     0.274 HD
ATOM     38  H42 UNL     1      21.744  -4.181  35.263  1.00  0.00     0.274 HD
ATOM     39  H41 UNL     1      20.832  -3.169  34.263  1.00  0.00     0.274 HD
ENDBRANCH  28  36
BRANCH  29  40
HETATM   40  O8  UNL     1      20.082  -2.177  37.628  1.00  0.00    -0.391 OA
ATOM     41  H8  UNL     1      19.559  -2.050  38.410  1.00  0.00     0.210 HD
ENDBRANCH  29  40
BRANCH  30  42
HETATM   42  O9  UNL     1      18.312  -3.216  38.928  1.00  0.00    -0.390 OA
ATOM     43  H9  UNL     1      18.197  -3.362  39.859  1.00  0.00     0.210 HD
ENDBRANCH  30  42
BRANCH  31  44
HETATM   44  O10 UNL     1      17.119  -4.703  37.124  1.00  0.00    -0.390 OA
ATOM     45  H10 UNL     1      16.635  -4.122  37.700  1.00  0.00     0.210 HD
ENDBRANCH  31  44
ENDBRANCH  25  26
ENDBRANCH  24  25
ENDBRANCH   1  24
TORSDOF 14
ENDMDL
