MODEL 1
REMARK VINA RESULT: -4.841338254      0.000      0.000
REMARK  3 active torsions:
REMARK  status: ('A' for Active; 'I' for Inactive)
REMARK    1  A    between atoms: C2_2  and  N1_4 
REMARK    2  A    between atoms: N1_4  and  C4_6 
REMARK    3  A    between atoms: C8_13  and  O1_14 
ROOT
HETATM    1  C4  UNL     1      14.975 -13.761  42.890  1.00  0.00     0.309 C 
HETATM    2  N2  UNL     1      14.770 -13.644  44.304  1.00  0.00    -0.052 N 
ATOM      3  H21 UNL     1      14.425 -14.503  44.732  1.00  0.00     0.279 HD
ATOM      4  H22 UNL     1      13.976 -13.051  44.546  1.00  0.00     0.279 HD
HETATM    5  C5  UNL     1      16.020 -13.183  44.877  1.00  0.00     0.241 C 
HETATM    6  C6  UNL     1      16.666 -12.360  43.795  1.00  0.00     0.040 C 
HETATM    7  C7  UNL     1      18.158 -12.244  43.945  1.00  0.00     0.014 C 
HETATM    8  C8  UNL     1      16.297 -13.157  42.549  1.00  0.00     0.173 C 
ENDROOT
BRANCH   1   9
HETATM    9  N1  UNL     1      13.894 -13.362  42.065  1.00  0.00    -0.390 N 
ATOM     10  H1  UNL     1      13.669 -12.377  41.935  1.00  0.00     0.155 HD
BRANCH   9  11
HETATM   11  C2  UNL     1      13.137 -14.372  41.426  1.00  0.00     0.070 C 
HETATM   12  C1  UNL     1      12.293 -13.739  40.315  1.00  0.00     0.031 C 
HETATM   13  C3  UNL     1      14.076 -15.325  40.720  1.00  0.00     0.031 C 
ENDBRANCH   9  11
ENDBRANCH   1   9
BRANCH   8  14
HETATM   14  O1  UNL     1      17.299 -14.123  42.412  1.00  0.00    -0.391 OA
ATOM     15  H1  UNL     1      17.770 -14.268  43.224  1.00  0.00     0.210 HD
ENDBRANCH   8  14
TORSDOF 3
ENDMDL
MODEL 2
REMARK VINA RESULT: -4.833117942      3.970      6.889
REMARK  3 active torsions:
REMARK  status: ('A' for Active; 'I' for Inactive)
REMARK    1  A    between atoms: C2_2  and  N1_4 
REMARK    2  A    between atoms: N1_4  and  C4_6 
REMARK    3  A    between atoms: C8_13  and  O1_14 
ROOT
HETATM    1  C4  UNL     1      10.748 -13.799  40.157  1.00  0.00     0.309 C 
HETATM    2  N2  UNL     1      10.211 -15.080  39.800  1.00  0.00    -0.052 N 
ATOM      3  H21 UNL     1       9.985 -15.660  40.608  1.00  0.00     0.279 HD
ATOM      4  H22 UNL     1      10.903 -15.703  39.383  1.00  0.00     0.279 HD
HETATM    5  C5  UNL     1       9.071 -14.837  38.937  1.00  0.00     0.241 C 
HETATM    6  C6  UNL     1       9.388 -13.548  38.227  1.00  0.00     0.040 C 
HETATM    7  C7  UNL     1       8.166 -12.832  37.718  1.00  0.00     0.014 C 
HETATM    8  C8  UNL     1      10.073 -12.754  39.332  1.00  0.00     0.173 C 
ENDROOT
BRANCH   1   9
HETATM    9  N1  UNL     1      12.160 -13.707  40.218  1.00  0.00    -0.390 N 
ATOM     10  H1  UNL     1      12.663 -12.994  39.689  1.00  0.00     0.155 HD
BRANCH   9  11
HETATM   11  C2  UNL     1      12.853 -14.632  41.033  1.00  0.00     0.070 C 
HETATM   12  C1  UNL     1      13.750 -15.506  40.149  1.00  0.00     0.031 C 
HETATM   13  C3  UNL     1      13.800 -13.881  41.943  1.00  0.00     0.031 C 
ENDBRANCH   9  11
ENDBRANCH   1   9
BRANCH   8  14
HETATM   14  O1  UNL     1       9.042 -12.116  40.029  1.00  0.00    -0.391 OA
ATOM     15  H1  UNL     1       9.342 -11.332  40.474  1.00  0.00     0.210 HD
ENDBRANCH   8  14
TORSDOF 3
ENDMDL
MODEL 3
REMARK VINA RESULT: -4.822495804      2.193      4.940
REMARK  3 active torsions:
REMARK  status: ('A' for Active; 'I' for Inactive)
REMARK    1  A    between atoms: C2_2  and  N1_4 
REMARK    2  A    between atoms: N1_4  and  C4_6 
REMARK    3  A    between atoms: C8_13  and  O1_14 
ROOT
HETATM    1  C4  UNL     1      14.080 -15.008  41.443  1.00  0.00     0.309 C 
HETATM    2  N2  UNL     1      13.797 -15.906  40.361  1.00  0.00    -0.052 N 
ATOM      3  H21 UNL     1      13.774 -16.884  40.649  1.00  0.00     0.279 HD
ATOM      4  H22 UNL     1      14.566 -15.985  39.695  1.00  0.00     0.279 HD
HETATM    5  C5  UNL     1      12.559 -15.461  39.752  1.00  0.00     0.241 C 
HETATM    6  C6  UNL     1      12.529 -13.972  39.972  1.00  0.00     0.040 C 
HETATM    7  C7  UNL     1      11.142 -13.391  39.924  1.00  0.00     0.014 C 
HETATM    8  C8  UNL     1      13.126 -13.861  41.370  1.00  0.00     0.173 C 
ENDROOT
BRANCH   1   9
HETATM    9  N1  UNL     1      15.439 -14.656  41.627  1.00  0.00    -0.390 N 
ATOM     10  H1  UNL     1      16.156 -14.971  40.974  1.00  0.00     0.155 HD
BRANCH   9  11
HETATM   11  C2  UNL     1      15.774 -13.853  42.743  1.00  0.00     0.070 C 
HETATM   12  C1  UNL     1      16.037 -14.759  43.951  1.00  0.00     0.031 C 
HETATM   13  C3  UNL     1      17.087 -13.153  42.475  1.00  0.00     0.031 C 
ENDBRANCH   9  11
ENDBRANCH   1   9
BRANCH   8  14
HETATM   14  O1  UNL     1      12.050 -14.012  42.250  1.00  0.00    -0.391 OA
ATOM     15  H1  UNL     1      11.218 -13.820  41.834  1.00  0.00     0.210 HD
ENDBRANCH   8  14
TORSDOF 3
ENDMDL
MODEL 4
REMARK VINA RESULT: -4.695173675      4.748      6.088
REMARK  3 active torsions:
REMARK  status: ('A' for Active; 'I' for Inactive)
REMARK    1  A    between atoms: C2_2  and  N1_4 
REMARK    2  A    between atoms: N1_4  and  C4_6 
REMARK    3  A    between atoms: C8_13  and  O1_14 
ROOT
HETATM    1  C4  UNL     1      15.100  -9.810  46.175  1.00  0.00     0.309 C 
HETATM    2  N2  UNL     1      15.271  -8.753  45.221  1.00  0.00    -0.052 N 
ATOM      3  H21 UNL     1      14.431  -8.568  44.673  1.00  0.00     0.279 HD
ATOM      4  H22 UNL     1      15.879  -9.010  44.443  1.00  0.00     0.279 HD
HETATM    5  C5  UNL     1      15.742  -7.593  45.953  1.00  0.00     0.241 C 
HETATM    6  C6  UNL     1      16.519  -8.153  47.114  1.00  0.00     0.040 C 
HETATM    7  C7  UNL     1      16.628  -7.199  48.273  1.00  0.00     0.014 C 
HETATM    8  C8  UNL     1      15.680  -9.372  47.480  1.00  0.00     0.173 C 
ENDROOT
BRANCH   1   9
HETATM    9  N1  UNL     1      15.477 -11.107  45.749  1.00  0.00    -0.390 N 
ATOM     10  H1  UNL     1      14.982 -11.934  46.082  1.00  0.00     0.155 HD
BRANCH   9  11
HETATM   11  C2  UNL     1      16.561 -11.221  44.847  1.00  0.00     0.070 C 
HETATM   12  C1  UNL     1      17.785 -11.756  45.598  1.00  0.00     0.031 C 
HETATM   13  C3  UNL     1      16.236 -12.275  43.812  1.00  0.00     0.031 C 
ENDBRANCH   9  11
ENDBRANCH   1   9
BRANCH   8  14
HETATM   14  O1  UNL     1      14.701  -8.902  48.361  1.00  0.00    -0.391 OA
ATOM     15  H1  UNL     1      14.021  -9.547  48.519  1.00  0.00     0.210 HD
ENDBRANCH   8  14
TORSDOF 3
ENDMDL
MODEL 5
REMARK VINA RESULT: -4.679585179      4.979      6.553
REMARK  3 active torsions:
REMARK  status: ('A' for Active; 'I' for Inactive)
REMARK    1  A    between atoms: C2_2  and  N1_4 
REMARK    2  A    between atoms: N1_4  and  C4_6 
REMARK    3  A    between atoms: C8_13  and  O1_14 
ROOT
HETATM    1  C4  UNL     1      15.120 -10.271  47.776  1.00  0.00     0.309 C 
HETATM    2  N2  UNL     1      13.978 -10.009  46.948  1.00  0.00    -0.052 N 
ATOM      3  H21 UNL     1      13.092 -10.194  47.418  1.00  0.00     0.279 HD
ATOM      4  H22 UNL     1      13.868 -10.685  46.192  1.00  0.00     0.279 HD
HETATM    5  C5  UNL     1      14.099  -8.643  46.478  1.00  0.00     0.241 C 
HETATM    6  C6  UNL     1      15.580  -8.383  46.410  1.00  0.00     0.040 C 
HETATM    7  C7  UNL     1      15.933  -6.922  46.481  1.00  0.00     0.014 C 
HETATM    8  C8  UNL     1      16.075  -9.131  47.642  1.00  0.00     0.173 C 
ENDROOT
BRANCH   1   9
HETATM    9  N1  UNL     1      15.694 -11.561  47.662  1.00  0.00    -0.390 N 
ATOM     10  H1  UNL     1      15.303 -12.356  48.166  1.00  0.00     0.155 HD
BRANCH   9  11
HETATM   11  C2  UNL     1      16.827 -11.713  46.828  1.00  0.00     0.070 C 
HETATM   12  C1  UNL     1      17.763 -12.762  47.439  1.00  0.00     0.031 C 
HETATM   13  C3  UNL     1      16.392 -12.292  45.500  1.00  0.00     0.031 C 
ENDBRANCH   9  11
ENDBRANCH   1   9
BRANCH   8  14
HETATM   14  O1  UNL     1      15.965  -8.224  48.701  1.00  0.00    -0.391 OA
ATOM     15  H1  UNL     1      15.060  -8.061  48.941  1.00  0.00     0.210 HD
ENDBRANCH   8  14
TORSDOF 3
ENDMDL
