MODEL 1
REMARK VINA RESULT: -7.074805771      0.000      0.000
REMARK  7 active torsions:
REMARK  status: ('A' for Active; 'I' for Inactive)
REMARK    1  A    between atoms: C2_2  and  C3_4 
REMARK    2  A    between atoms: C3_4  and  N1_5 
REMARK       I    between atoms: N1_5  and  C5_7 
REMARK       I    between atoms: C5_7  and  N6_21 
REMARK    3  A    between atoms: N2_8  and  C6_10 
REMARK    4  A    between atoms: C6_10  and  C7_11 
REMARK    5  A    between atoms: C7_11  and  C8_12 
REMARK    6  A    between atoms: C8_12  and  C9_13 
REMARK    7  A    between atoms: C9_13  and  N3_14 
REMARK       I    between atoms: N3_14  and  C10_16 
ROOT
HETATM    1  N1  UNL     1      11.595 -12.760  15.685  1.00  0.00    -0.216 N 
HETATM    2  C4  UNL     1      11.329 -11.654  14.789  1.00  0.00     0.169 C 
HETATM    3  C5  UNL     1      12.800 -12.760  16.417  1.00  0.00     0.693 C 
HETATM    4  N2  UNL     1      13.879 -12.693  15.673  1.00  0.00    -0.225 N 
ATOM      5  H2  UNL     1      13.808 -12.647  14.657  1.00  0.00     0.177 HD
HETATM    6  N6  UNL     1      12.866 -12.817  17.818  1.00  0.00    -0.120 N 
HETATM    7  C11 UNL     1      12.931 -14.092  18.490  1.00  0.00     0.188 C 
HETATM    8  C12 UNL     1      13.620 -14.056  19.825  1.00  0.00     0.144 C 
HETATM    9  N7  UNL     1      14.203 -12.796  20.175  1.00  0.00    -0.364 N 
ATOM     10  H7  UNL     1      15.068 -12.765  20.715  1.00  0.00     0.162 HD
HETATM   11  C13 UNL     1      13.574 -11.588  19.771  1.00  0.00     0.187 C 
HETATM   12  S1  UNL     1      13.669 -10.245  20.707  1.00  0.00    -0.040 SA
HETATM   13  N8  UNL     1      12.872 -11.598  18.535  1.00  0.00    -0.260 N 
ATOM     14  H8  UNL     1      12.398 -10.767  18.182  1.00  0.00     0.190 HD
ENDROOT
BRANCH   1  15
HETATM   15  C3  UNL     1      10.654 -13.830  15.763  1.00  0.00     0.186 C 
BRANCH  15  16
HETATM   16  C2  UNL     1       9.247 -13.426  15.956  1.00  0.00    -0.002 C 
HETATM   17  C1  UNL     1       8.848 -13.094  17.179  1.00  0.00     0.028 C 
HETATM   18 BR1  UNL     1       8.033 -13.385  14.507  1.00  0.00    -0.055 Br
ENDBRANCH  15  16
ENDBRANCH   1  15
BRANCH   4  19
HETATM   19  C6  UNL     1      15.157 -12.684  16.318  1.00  0.00     0.138 C 
BRANCH  19  20
HETATM   20  C7  UNL     1      16.240 -13.248  15.402  1.00  0.00     0.022 C 
BRANCH  20  21
HETATM   21  C8  UNL     1      15.998 -12.657  14.026  1.00  0.00     0.021 C 
BRANCH  21  22
HETATM   22  C9  UNL     1      17.199 -11.879  13.580  1.00  0.00     0.122 C 
BRANCH  22  23
HETATM   23  N3  UNL     1      16.899 -10.474  13.624  1.00  0.00    -0.365 N 
HETATM   24  C10 UNL     1      15.958  -9.885  14.520  1.00  0.00     0.181 C 
HETATM   25  N4  UNL     1      16.459  -9.371  15.599  1.00  0.00    -0.374 N 
HETATM   26  N5  UNL     1      14.582  -9.870  14.239  1.00  0.00    -0.064 NA
ATOM     27  H42 UNL     1      17.458  -9.382  15.803  1.00  0.00     0.158 HD
ATOM     28  H41 UNL     1      15.786  -8.950  16.241  1.00  0.00     0.158 HD
ATOM     29  H3  UNL     1      17.389  -9.860  12.973  1.00  0.00     0.162 HD
ENDBRANCH  22  23
ENDBRANCH  21  22
ENDBRANCH  20  21
ENDBRANCH  19  20
ENDBRANCH   4  19
TORSDOF 7
ENDMDL
MODEL 2
REMARK VINA RESULT: -7.070615992      1.160      1.688
REMARK  7 active torsions:
REMARK  status: ('A' for Active; 'I' for Inactive)
REMARK    1  A    between atoms: C2_2  and  C3_4 
REMARK    2  A    between atoms: C3_4  and  N1_5 
REMARK       I    between atoms: N1_5  and  C5_7 
REMARK       I    between atoms: C5_7  and  N6_21 
REMARK    3  A    between atoms: N2_8  and  C6_10 
REMARK    4  A    between atoms: C6_10  and  C7_11 
REMARK    5  A    between atoms: C7_11  and  C8_12 
REMARK    6  A    between atoms: C8_12  and  C9_13 
REMARK    7  A    between atoms: C9_13  and  N3_14 
REMARK       I    between atoms: N3_14  and  C10_16 
ROOT
HETATM    1  N1  UNL     1      11.479 -12.741  15.678  1.00  0.00    -0.216 N 
HETATM    2  C4  UNL     1      11.163 -11.637  14.798  1.00  0.00     0.169 C 
HETATM    3  C5  UNL     1      12.700 -12.713  16.385  1.00  0.00     0.693 C 
HETATM    4  N2  UNL     1      13.760 -12.609  15.619  1.00  0.00    -0.225 N 
ATOM      5  H2  UNL     1      13.666 -12.556  14.605  1.00  0.00     0.177 HD
HETATM    6  N6  UNL     1      12.797 -12.780  17.784  1.00  0.00    -0.120 N 
HETATM    7  C11 UNL     1      12.913 -14.058  18.442  1.00  0.00     0.188 C 
HETATM    8  C12 UNL     1      13.629 -14.013  19.763  1.00  0.00     0.144 C 
HETATM    9  N7  UNL     1      14.183 -12.740  20.112  1.00  0.00    -0.364 N 
ATOM     10  H7  UNL     1      15.058 -12.688  20.633  1.00  0.00     0.162 HD
HETATM   11  C13 UNL     1      13.511 -11.547  19.731  1.00  0.00     0.187 C 
HETATM   12  S1  UNL     1      13.588 -10.210  20.677  1.00  0.00    -0.040 SA
HETATM   13  N8  UNL     1      12.784 -11.567  18.511  1.00  0.00    -0.260 N 
ATOM     14  H8  UNL     1      12.278 -10.748  18.176  1.00  0.00     0.190 HD
ENDROOT
BRANCH   1  15
HETATM   15  C3  UNL     1      10.571 -13.839  15.767  1.00  0.00     0.186 C 
BRANCH  15  16
HETATM   16  C2  UNL     1       9.147 -13.476  15.903  1.00  0.00    -0.002 C 
HETATM   17  C1  UNL     1       8.689 -13.163  17.111  1.00  0.00     0.028 C 
HETATM   18 BR1  UNL     1       7.993 -13.459  14.406  1.00  0.00    -0.055 Br
ENDBRANCH  15  16
ENDBRANCH   1  15
BRANCH   4  19
HETATM   19  C6  UNL     1      15.051 -12.569  16.236  1.00  0.00     0.138 C 
BRANCH  19  20
HETATM   20  C7  UNL     1      16.119 -12.106  15.250  1.00  0.00     0.022 C 
BRANCH  20  21
HETATM   21  C8  UNL     1      15.888 -10.625  15.019  1.00  0.00     0.021 C 
BRANCH  21  22
HETATM   22  C9  UNL     1      16.905 -10.087  14.060  1.00  0.00     0.122 C 
BRANCH  22  23
HETATM   23  N3  UNL     1      16.421 -10.241  12.716  1.00  0.00    -0.365 N 
HETATM   24  C10 UNL     1      17.164  -9.881  11.552  1.00  0.00     0.181 C 
HETATM   25  N4  UNL     1      17.803 -10.850  10.973  1.00  0.00    -0.374 N 
HETATM   26  N5  UNL     1      17.193  -8.561  11.076  1.00  0.00    -0.064 NA
ATOM     27  H42 UNL     1      17.781 -11.809  11.320  1.00  0.00     0.158 HD
ATOM     28  H41 UNL     1      18.334 -10.592  10.141  1.00  0.00     0.158 HD
ATOM     29  H3  UNL     1      15.489 -10.633  12.586  1.00  0.00     0.162 HD
ENDBRANCH  22  23
ENDBRANCH  21  22
ENDBRANCH  20  21
ENDBRANCH  19  20
ENDBRANCH   4  19
TORSDOF 7
ENDMDL
MODEL 3
REMARK VINA RESULT: -6.846990284      2.998      4.014
REMARK  7 active torsions:
REMARK  status: ('A' for Active; 'I' for Inactive)
REMARK    1  A    between atoms: C2_2  and  C3_4 
REMARK    2  A    between atoms: C3_4  and  N1_5 
REMARK       I    between atoms: N1_5  and  C5_7 
REMARK       I    between atoms: C5_7  and  N6_21 
REMARK    3  A    between atoms: N2_8  and  C6_10 
REMARK    4  A    between atoms: C6_10  and  C7_11 
REMARK    5  A    between atoms: C7_11  and  C8_12 
REMARK    6  A    between atoms: C8_12  and  C9_13 
REMARK    7  A    between atoms: C9_13  and  N3_14 
REMARK       I    between atoms: N3_14  and  C10_16 
ROOT
HETATM    1  N1  UNL     1      10.454 -13.506  16.533  1.00  0.00    -0.216 N 
HETATM    2  C4  UNL     1      10.704 -12.690  17.702  1.00  0.00     0.169 C 
HETATM    3  C5  UNL     1      11.508 -13.722  15.622  1.00  0.00     0.693 C 
HETATM    4  N2  UNL     1      12.026 -12.622  15.132  1.00  0.00    -0.225 N 
ATOM      5  H2  UNL     1      11.667 -11.708  15.410  1.00  0.00     0.177 HD
HETATM    6  N6  UNL     1      11.986 -14.993  15.264  1.00  0.00    -0.120 N 
HETATM    7  C11 UNL     1      11.415 -15.692  14.141  1.00  0.00     0.188 C 
HETATM    8  C12 UNL     1      12.350 -16.657  13.468  1.00  0.00     0.144 C 
HETATM    9  N7  UNL     1      13.692 -16.654  13.969  1.00  0.00    -0.364 N 
ATOM     10  H7  UNL     1      14.474 -16.819  13.336  1.00  0.00     0.162 HD
HETATM   11  C13 UNL     1      13.931 -16.420  15.350  1.00  0.00     0.187 C 
HETATM   12  S1  UNL     1      15.197 -17.134  16.109  1.00  0.00    -0.040 SA
HETATM   13  N8  UNL     1      13.037 -15.549  16.030  1.00  0.00    -0.260 N 
ATOM     14  H8  UNL     1      13.149 -15.335  17.021  1.00  0.00     0.190 HD
ENDROOT
BRANCH   1  15
HETATM   15  C3  UNL     1       9.141 -14.025  16.318  1.00  0.00     0.186 C 
BRANCH  15  16
HETATM   16  C2  UNL     1       8.307 -13.268  15.363  1.00  0.00    -0.002 C 
HETATM   17  C1  UNL     1       7.734 -12.144  15.781  1.00  0.00     0.028 C 
HETATM   18 BR1  UNL     1       8.051 -13.874  13.591  1.00  0.00    -0.055 Br
ENDBRANCH  15  16
ENDBRANCH   1  15
BRANCH   4  19
HETATM   19  C6  UNL     1      13.107 -12.729  14.198  1.00  0.00     0.138 C 
BRANCH  19  20
HETATM   20  C7  UNL     1      14.327 -11.947  14.676  1.00  0.00     0.022 C 
BRANCH  20  21
HETATM   21  C8  UNL     1      15.290 -12.960  15.266  1.00  0.00     0.021 C 
BRANCH  21  22
HETATM   22  C9  UNL     1      16.669 -12.738  14.725  1.00  0.00     0.122 C 
BRANCH  22  23
HETATM   23  N3  UNL     1      16.627 -12.764  13.289  1.00  0.00    -0.365 N 
HETATM   24  C10 UNL     1      17.268 -11.803  12.452  1.00  0.00     0.181 C 
HETATM   25  N4  UNL     1      18.431 -12.147  11.993  1.00  0.00    -0.374 N 
HETATM   26  N5  UNL     1      16.669 -10.569  12.154  1.00  0.00    -0.064 NA
ATOM     27  H42 UNL     1      18.866 -13.043  12.210  1.00  0.00     0.158 HD
ATOM     28  H41 UNL     1      18.890 -11.459  11.395  1.00  0.00     0.158 HD
ATOM     29  H3  UNL     1      16.105 -13.517  12.840  1.00  0.00     0.162 HD
ENDBRANCH  22  23
ENDBRANCH  21  22
ENDBRANCH  20  21
ENDBRANCH  19  20
ENDBRANCH   4  19
TORSDOF 7
ENDMDL
MODEL 4
REMARK VINA RESULT: -6.643295339      3.180      4.828
REMARK  7 active torsions:
REMARK  status: ('A' for Active; 'I' for Inactive)
REMARK    1  A    between atoms: C2_2  and  C3_4 
REMARK    2  A    between atoms: C3_4  and  N1_5 
REMARK       I    between atoms: N1_5  and  C5_7 
REMARK       I    between atoms: C5_7  and  N6_21 
REMARK    3  A    between atoms: N2_8  and  C6_10 
REMARK    4  A    between atoms: C6_10  and  C7_11 
REMARK    5  A    between atoms: C7_11  and  C8_12 
REMARK    6  A    between atoms: C8_12  and  C9_13 
REMARK    7  A    between atoms: C9_13  and  N3_14 
REMARK       I    between atoms: N3_14  and  C10_16 
ROOT
HETATM    1  N1  UNL     1      12.579 -12.850  18.089  1.00  0.00    -0.216 N 
HETATM    2  C4  UNL     1      13.784 -13.428  18.645  1.00  0.00     0.169 C 
HETATM    3  C5  UNL     1      12.511 -12.641  16.696  1.00  0.00     0.693 C 
HETATM    4  N2  UNL     1      13.471 -11.885  16.220  1.00  0.00    -0.225 N 
ATOM      5  H2  UNL     1      14.185 -11.499  16.838  1.00  0.00     0.177 HD
HETATM    6  N6  UNL     1      11.520 -13.193  15.869  1.00  0.00    -0.120 N 
HETATM    7  C11 UNL     1      10.295 -12.471  15.626  1.00  0.00     0.188 C 
HETATM    8  C12 UNL     1       9.637 -12.789  14.313  1.00  0.00     0.144 C 
HETATM    9  N7  UNL     1      10.377 -13.667  13.458  1.00  0.00    -0.364 N 
ATOM     10  H7  UNL     1      10.338 -13.549  12.445  1.00  0.00     0.162 HD
HETATM   11  C13 UNL     1      11.166 -14.705  14.022  1.00  0.00     0.187 C 
HETATM   12  S1  UNL     1      11.367 -16.125  13.227  1.00  0.00    -0.040 SA
HETATM   13  N8  UNL     1      11.766 -14.457  15.286  1.00  0.00    -0.260 N 
ATOM     14  H8  UNL     1      12.345 -15.157  15.750  1.00  0.00     0.190 HD
ENDROOT
BRANCH   1  15
HETATM   15  C3  UNL     1      11.522 -12.468  18.970  1.00  0.00     0.186 C 
BRANCH  15  16
HETATM   16  C2  UNL     1      11.941 -11.749  20.190  1.00  0.00    -0.002 C 
HETATM   17  C1  UNL     1      12.146 -10.438  20.109  1.00  0.00     0.028 C 
HETATM   18 BR1  UNL     1      12.188 -12.660  21.828  1.00  0.00    -0.055 Br
ENDBRANCH  15  16
ENDBRANCH   1  15
BRANCH   4  19
HETATM   19  C6  UNL     1      13.497 -11.612  14.815  1.00  0.00     0.138 C 
BRANCH  19  20
HETATM   20  C7  UNL     1      14.883 -11.867  14.230  1.00  0.00     0.022 C 
BRANCH  20  21
HETATM   21  C8  UNL     1      15.865 -11.074  15.071  1.00  0.00     0.021 C 
BRANCH  21  22
HETATM   22  C9  UNL     1      16.555 -10.045  14.229  1.00  0.00     0.122 C 
BRANCH  22  23
HETATM   23  N3  UNL     1      16.337 -10.343  12.840  1.00  0.00    -0.365 N 
HETATM   24  C10 UNL     1      17.236  -9.979  11.794  1.00  0.00     0.181 C 
HETATM   25  N4  UNL     1      18.062 -10.904  11.417  1.00  0.00    -0.374 N 
HETATM   26  N5  UNL     1      17.217  -8.698  11.219  1.00  0.00    -0.064 NA
ATOM     27  H42 UNL     1      18.075 -11.835  11.835  1.00  0.00     0.158 HD
ATOM     28  H41 UNL     1      18.705 -10.644  10.669  1.00  0.00     0.158 HD
ATOM     29  H3  UNL     1      15.487 -10.846  12.587  1.00  0.00     0.162 HD
ENDBRANCH  22  23
ENDBRANCH  21  22
ENDBRANCH  20  21
ENDBRANCH  19  20
ENDBRANCH   4  19
TORSDOF 7
ENDMDL
MODEL 5
REMARK VINA RESULT: -6.637975128      1.715      2.609
REMARK  7 active torsions:
REMARK  status: ('A' for Active; 'I' for Inactive)
REMARK    1  A    between atoms: C2_2  and  C3_4 
REMARK    2  A    between atoms: C3_4  and  N1_5 
REMARK       I    between atoms: N1_5  and  C5_7 
REMARK       I    between atoms: C5_7  and  N6_21 
REMARK    3  A    between atoms: N2_8  and  C6_10 
REMARK    4  A    between atoms: C6_10  and  C7_11 
REMARK    5  A    between atoms: C7_11  and  C8_12 
REMARK    6  A    between atoms: C8_12  and  C9_13 
REMARK    7  A    between atoms: C9_13  and  N3_14 
REMARK       I    between atoms: N3_14  and  C10_16 
ROOT
HETATM    1  N1  UNL     1      11.363 -12.675  15.504  1.00  0.00    -0.216 N 
HETATM    2  C4  UNL     1      10.837 -11.561  14.744  1.00  0.00     0.169 C 
HETATM    3  C5  UNL     1      12.580 -12.504  16.195  1.00  0.00     0.693 C 
HETATM    4  N2  UNL     1      13.584 -12.143  15.431  1.00  0.00    -0.225 N 
ATOM      5  H2  UNL     1      13.453 -12.009  14.429  1.00  0.00     0.177 HD
HETATM    6  N6  UNL     1      12.728 -12.689  17.579  1.00  0.00    -0.120 N 
HETATM    7  C11 UNL     1      13.081 -13.985  18.103  1.00  0.00     0.188 C 
HETATM    8  C12 UNL     1      13.817 -13.945  19.414  1.00  0.00     0.144 C 
HETATM    9  N7  UNL     1      14.154 -12.635  19.883  1.00  0.00    -0.364 N 
ATOM     10  H7  UNL     1      15.022 -12.484  20.396  1.00  0.00     0.162 HD
HETATM   11  C13 UNL     1      13.276 -11.546  19.633  1.00  0.00     0.187 C 
HETATM   12  S1  UNL     1      13.150 -10.314  20.707  1.00  0.00    -0.040 SA
HETATM   13  N8  UNL     1      12.528 -11.573  18.425  1.00  0.00    -0.260 N 
ATOM     14  H8  UNL     1      11.880 -10.825  18.180  1.00  0.00     0.190 HD
ENDROOT
BRANCH   1  15
HETATM   15  C3  UNL     1      10.660 -13.917  15.492  1.00  0.00     0.186 C 
BRANCH  15  16
HETATM   16  C2  UNL     1       9.218 -13.833  15.800  1.00  0.00    -0.002 C 
HETATM   17  C1  UNL     1       8.357 -14.351  14.930  1.00  0.00     0.028 C 
HETATM   18 BR1  UNL     1       8.602 -13.008  17.386  1.00  0.00    -0.055 Br
ENDBRANCH  15  16
ENDBRANCH   1  15
BRANCH   4  19
HETATM   19  C6  UNL     1      14.866 -11.940  16.035  1.00  0.00     0.138 C 
BRANCH  19  20
HETATM   20  C7  UNL     1      15.754 -11.060  15.160  1.00  0.00     0.022 C 
BRANCH  20  21
HETATM   21  C8  UNL     1      15.974 -11.814  13.862  1.00  0.00     0.021 C 
BRANCH  21  22
HETATM   22  C9  UNL     1      16.840 -13.012  14.102  1.00  0.00     0.122 C 
BRANCH  22  23
HETATM   23  N3  UNL     1      16.259 -14.157  13.457  1.00  0.00    -0.365 N 
HETATM   24  C10 UNL     1      15.767 -15.301  14.153  1.00  0.00     0.181 C 
HETATM   25  N4  UNL     1      14.489 -15.317  14.373  1.00  0.00    -0.374 N 
HETATM   26  N5  UNL     1      16.621 -16.336  14.566  1.00  0.00    -0.064 NA
ATOM     27  H42 UNL     1      13.869 -14.565  14.073  1.00  0.00     0.158 HD
ATOM     28  H41 UNL     1      14.138 -16.135  14.871  1.00  0.00     0.158 HD
ATOM     29  H3  UNL     1      16.194 -14.151  12.440  1.00  0.00     0.162 HD
ENDBRANCH  22  23
ENDBRANCH  21  22
ENDBRANCH  20  21
ENDBRANCH  19  20
ENDBRANCH   4  19
TORSDOF 7
ENDMDL
