MODEL 1
REMARK VINA RESULT: -6.368266578      0.000      0.000
REMARK  13 active torsions:
REMARK  status: ('A' for Active; 'I' for Inactive)
REMARK    1  A    between atoms: C2_2  and  N1_3 
REMARK    2  A    between atoms: C2_2  and  N7_24 
REMARK    3  A    between atoms: N1_3  and  C3_5 
REMARK    4  A    between atoms: C3_5  and  C4_6 
REMARK    5  A    between atoms: C4_6  and  N2_7 
REMARK    6  A    between atoms: N2_7  and  C5_9 
REMARK    7  A    between atoms: C7_14  and  C8_15 
REMARK    8  A    between atoms: N7_24  and  C12_25 
REMARK    9  A    between atoms: N7_24  and  C14_29 
REMARK   10  A    between atoms: C12_25  and  C13_26 
REMARK   11  A    between atoms: C13_26  and  O1_27 
REMARK   12  A    between atoms: C14_29  and  C15_30 
REMARK   13  A    between atoms: C15_30  and  O2_31 
ROOT
HETATM    1  N2  UNL     1      14.452 -11.532  18.109  1.00  0.00    -0.224 N 
ATOM      2  H2  UNL     1      14.751 -10.635  18.493  1.00  0.00     0.177 HD
ENDROOT
BRANCH   1   3
HETATM    3  C4  UNL     1      13.441 -12.325  18.825  1.00  0.00     0.157 C 
BRANCH   3   4
HETATM    4  C3  UNL     1      12.099 -11.883  18.305  1.00  0.00     0.141 C 
BRANCH   4   5
HETATM    5  N1  UNL     1      11.376 -13.094  17.902  1.00  0.00    -0.379 N 
ATOM      6  H1  UNL     1      11.667 -14.001  18.266  1.00  0.00     0.160 HD
BRANCH   5   7
HETATM    7  C2  UNL     1      10.374 -13.023  17.088  1.00  0.00     0.071 C 
HETATM    8  C1  UNL     1       9.058 -12.653  17.635  1.00  0.00     0.088 C 
BRANCH   7   9
HETATM    9  N7  UNL     1      10.541 -13.298  15.712  1.00  0.00    -0.367 N 
BRANCH   9  10
HETATM   10  C12 UNL     1      10.729 -12.216  14.796  1.00  0.00     0.150 C 
BRANCH  10  11
HETATM   11  C13 UNL     1      12.193 -11.866  14.601  1.00  0.00     0.183 C 
BRANCH  11  12
HETATM   12  O1  UNL     1      12.467 -10.602  15.163  1.00  0.00    -0.399 OA
ATOM     13  H1  UNL     1      12.116  -9.915  14.608  1.00  0.00     0.209 HD
ENDBRANCH  11  12
ENDBRANCH  10  11
ENDBRANCH   9  10
BRANCH   9  14
HETATM   14  C14 UNL     1      10.532 -14.667  15.295  1.00  0.00     0.150 C 
BRANCH  14  15
HETATM   15  C15 UNL     1      11.885 -15.300  15.112  1.00  0.00     0.183 C 
BRANCH  15  16
HETATM   16  O2  UNL     1      12.721 -15.159  16.206  1.00  0.00    -0.399 OA
ATOM     17  H2  UNL     1      13.286 -14.397  16.161  1.00  0.00     0.209 HD
ENDBRANCH  15  16
ENDBRANCH  14  15
ENDBRANCH   9  14
ENDBRANCH   7   9
ENDBRANCH   5   7
ENDBRANCH   4   5
ENDBRANCH   3   4
ENDBRANCH   1   3
BRANCH   1  18
HETATM   18  C5  UNL     1      14.962 -11.949  17.011  1.00  0.00     0.679 A 
HETATM   19  N3  UNL     1      15.003 -13.219  16.624  1.00  0.00    -0.183 N 
HETATM   20  C6  UNL     1      15.629 -13.215  15.407  1.00  0.00     0.125 A 
ATOM     21  H3  UNL     1      14.643 -14.029  17.128  1.00  0.00     0.185 HD
HETATM   22 BR1  UNL     1      15.888 -14.848  14.460  1.00  0.00    -0.028 Br
HETATM   23  C7  UNL     1      15.978 -11.943  15.035  1.00  0.00     0.112 A 
HETATM   24  N6  UNL     1      15.544 -11.171  16.067  1.00  0.00    -0.187 N 
ATOM     25  H6  UNL     1      15.642 -10.157  16.122  1.00  0.00     0.184 HD
BRANCH  23  26
HETATM   26  C8  UNL     1      16.642 -11.498  13.789  1.00  0.00     0.081 A 
HETATM   27  C9  UNL     1      17.672 -12.162  13.133  1.00  0.00     0.121 A 
HETATM   28  N4  UNL     1      18.000 -11.470  12.018  1.00  0.00    -0.360 N 
HETATM   29  C10 UNL     1      17.217 -10.419  11.969  1.00  0.00     0.182 A 
ATOM     30  H4  UNL     1      18.722 -11.719  11.342  1.00  0.00     0.166 HD
HETATM   31  N5  UNL     1      16.370 -10.410  13.049  1.00  0.00    -0.344 N 
HETATM   32  C11 UNL     1      15.373  -9.399  13.295  1.00  0.00     0.157 C 
ENDBRANCH  23  26
ENDBRANCH   1  18
TORSDOF 13
ENDMDL
MODEL 2
REMARK VINA RESULT: -6.298239455      1.524      2.188
REMARK  13 active torsions:
REMARK  status: ('A' for Active; 'I' for Inactive)
REMARK    1  A    between atoms: C2_2  and  N1_3 
REMARK    2  A    between atoms: C2_2  and  N7_24 
REMARK    3  A    between atoms: N1_3  and  C3_5 
REMARK    4  A    between atoms: C3_5  and  C4_6 
REMARK    5  A    between atoms: C4_6  and  N2_7 
REMARK    6  A    between atoms: N2_7  and  C5_9 
REMARK    7  A    between atoms: C7_14  and  C8_15 
REMARK    8  A    between atoms: N7_24  and  C12_25 
REMARK    9  A    between atoms: N7_24  and  C14_29 
REMARK   10  A    between atoms: C12_25  and  C13_26 
REMARK   11  A    between atoms: C13_26  and  O1_27 
REMARK   12  A    between atoms: C14_29  and  C15_30 
REMARK   13  A    between atoms: C15_30  and  O2_31 
ROOT
HETATM    1  N2  UNL     1      13.979 -11.872  18.362  1.00  0.00    -0.224 N 
ATOM      2  H2  UNL     1      14.300 -11.003  18.792  1.00  0.00     0.177 HD
ENDROOT
BRANCH   1   3
HETATM    3  C4  UNL     1      12.901 -12.640  19.003  1.00  0.00     0.157 C 
BRANCH   3   4
HETATM    4  C3  UNL     1      11.604 -12.062  18.502  1.00  0.00     0.141 C 
BRANCH   4   5
HETATM    5  N1  UNL     1      11.066 -13.006  17.517  1.00  0.00    -0.379 N 
ATOM      6  H1  UNL     1      11.640 -13.787  17.199  1.00  0.00     0.160 HD
BRANCH   5   7
HETATM    7  C2  UNL     1       9.870 -12.857  17.047  1.00  0.00     0.071 C 
HETATM    8  C1  UNL     1       8.771 -12.633  17.999  1.00  0.00     0.088 C 
BRANCH   7   9
HETATM    9  N7  UNL     1       9.630 -12.914  15.655  1.00  0.00    -0.367 N 
BRANCH   9  10
HETATM   10  C12 UNL     1       8.813 -13.959  15.124  1.00  0.00     0.150 C 
BRANCH  10  11
HETATM   11  C13 UNL     1       7.862 -13.465  14.048  1.00  0.00     0.183 C 
BRANCH  11  12
HETATM   12  O1  UNL     1       7.427 -14.547  13.254  1.00  0.00    -0.399 OA
ATOM     13  H1  UNL     1       6.578 -14.851  13.553  1.00  0.00     0.209 HD
ENDBRANCH  11  12
ENDBRANCH  10  11
ENDBRANCH   9  10
BRANCH   9  14
HETATM   14  C14 UNL     1      10.211 -11.897  14.832  1.00  0.00     0.150 C 
BRANCH  14  15
HETATM   15  C15 UNL     1      11.714 -11.891  14.767  1.00  0.00     0.183 C 
BRANCH  15  16
HETATM   16  O2  UNL     1      12.293 -10.764  15.324  1.00  0.00    -0.399 OA
ATOM     17  H2  UNL     1      12.165 -10.690  16.262  1.00  0.00     0.209 HD
ENDBRANCH  15  16
ENDBRANCH  14  15
ENDBRANCH   9  14
ENDBRANCH   7   9
ENDBRANCH   5   7
ENDBRANCH   4   5
ENDBRANCH   3   4
ENDBRANCH   1   3
BRANCH   1  18
HETATM   18  C5  UNL     1      14.522 -12.275  17.275  1.00  0.00     0.679 A 
HETATM   19  N3  UNL     1      14.523 -13.532  16.844  1.00  0.00    -0.183 N 
HETATM   20  C6  UNL     1      15.205 -13.516  15.659  1.00  0.00     0.125 A 
ATOM     21  H3  UNL     1      14.101 -14.340  17.302  1.00  0.00     0.185 HD
HETATM   22 BR1  UNL     1      15.434 -15.127  14.666  1.00  0.00    -0.028 Br
HETATM   23  C7  UNL     1      15.631 -12.250  15.350  1.00  0.00     0.112 A 
HETATM   24  N6  UNL     1      15.184 -11.494  16.388  1.00  0.00    -0.187 N 
ATOM     25  H6  UNL     1      15.325 -10.488  16.485  1.00  0.00     0.184 HD
BRANCH  23  26
HETATM   26  C8  UNL     1      16.374 -11.795  14.153  1.00  0.00     0.081 A 
HETATM   27  C9  UNL     1      17.424 -12.470  13.541  1.00  0.00     0.121 A 
HETATM   28  N4  UNL     1      17.830 -11.763  12.462  1.00  0.00    -0.360 N 
HETATM   29  C10 UNL     1      17.075 -10.693  12.393  1.00  0.00     0.182 A 
ATOM     30  H4  UNL     1      18.582 -12.015  11.821  1.00  0.00     0.166 HD
HETATM   31  N5  UNL     1      16.168 -10.686  13.423  1.00  0.00    -0.344 N 
HETATM   32  C11 UNL     1      15.183  -9.656  13.636  1.00  0.00     0.157 C 
ENDBRANCH  23  26
ENDBRANCH   1  18
TORSDOF 13
ENDMDL
MODEL 3
REMARK VINA RESULT: -6.010350045      3.944      5.042
REMARK  13 active torsions:
REMARK  status: ('A' for Active; 'I' for Inactive)
REMARK    1  A    between atoms: C2_2  and  N1_3 
REMARK    2  A    between atoms: C2_2  and  N7_24 
REMARK    3  A    between atoms: N1_3  and  C3_5 
REMARK    4  A    between atoms: C3_5  and  C4_6 
REMARK    5  A    between atoms: C4_6  and  N2_7 
REMARK    6  A    between atoms: N2_7  and  C5_9 
REMARK    7  A    between atoms: C7_14  and  C8_15 
REMARK    8  A    between atoms: N7_24  and  C12_25 
REMARK    9  A    between atoms: N7_24  and  C14_29 
REMARK   10  A    between atoms: C12_25  and  C13_26 
REMARK   11  A    between atoms: C13_26  and  O1_27 
REMARK   12  A    between atoms: C14_29  and  C15_30 
REMARK   13  A    between atoms: C15_30  and  O2_31 
ROOT
HETATM    1  N2  UNL     1      10.475 -13.864  14.076  1.00  0.00    -0.224 N 
ATOM      2  H2  UNL     1      10.410 -14.597  13.368  1.00  0.00     0.177 HD
ENDROOT
BRANCH   1   3
HETATM    3  C4  UNL     1       9.244 -13.257  14.603  1.00  0.00     0.157 C 
BRANCH   3   4
HETATM    4  C3  UNL     1       8.170 -13.497  13.577  1.00  0.00     0.141 C 
BRANCH   4   5
HETATM    5  N1  UNL     1       8.776 -13.269  12.261  1.00  0.00    -0.379 N 
ATOM      6  H1  UNL     1       9.649 -12.746  12.190  1.00  0.00     0.160 HD
BRANCH   5   7
HETATM    7  C2  UNL     1       8.213 -13.724  11.189  1.00  0.00     0.071 C 
HETATM    8  C1  UNL     1       7.610 -12.759  10.256  1.00  0.00     0.088 C 
BRANCH   7   9
HETATM    9  N7  UNL     1       8.177 -15.112  10.927  1.00  0.00    -0.367 N 
BRANCH   9  10
HETATM   10  C12 UNL     1       9.305 -15.922  11.268  1.00  0.00     0.150 C 
BRANCH  10  11
HETATM   11  C13 UNL     1      10.546 -15.555  10.475  1.00  0.00     0.183 C 
BRANCH  11  12
HETATM   12  O1  UNL     1      11.360 -14.682  11.226  1.00  0.00    -0.399 OA
ATOM     13  H1  UNL     1      11.364 -13.819  10.830  1.00  0.00     0.209 HD
ENDBRANCH  11  12
ENDBRANCH  10  11
ENDBRANCH   9  10
BRANCH   9  14
HETATM   14  C14 UNL     1       6.990 -15.654  10.340  1.00  0.00     0.150 C 
BRANCH  14  15
HETATM   15  C15 UNL     1       5.966 -16.180  11.310  1.00  0.00     0.183 C 
BRANCH  15  16
HETATM   16  O2  UNL     1       5.062 -15.226  11.742  1.00  0.00    -0.399 OA
ATOM     17  H2  UNL     1       4.166 -15.538  11.787  1.00  0.00     0.209 HD
ENDBRANCH  15  16
ENDBRANCH  14  15
ENDBRANCH   9  14
ENDBRANCH   7   9
ENDBRANCH   5   7
ENDBRANCH   4   5
ENDBRANCH   3   4
ENDBRANCH   1   3
BRANCH   1  18
HETATM   18  C5  UNL     1      11.627 -13.489  14.489  1.00  0.00     0.679 A 
HETATM   19  N3  UNL     1      11.967 -13.339  15.765  1.00  0.00    -0.183 N 
HETATM   20  C6  UNL     1      13.272 -12.929  15.754  1.00  0.00     0.125 A 
ATOM     21  H3  UNL     1      11.378 -13.497  16.583  1.00  0.00     0.185 HD
HETATM   22 BR1  UNL     1      14.187 -12.608  17.396  1.00  0.00    -0.028 Br
HETATM   23  C7  UNL     1      13.747 -12.823  14.473  1.00  0.00     0.112 A 
HETATM   24  N6  UNL     1      12.686 -13.183  13.702  1.00  0.00    -0.187 N 
ATOM     25  H6  UNL     1      12.687 -13.217  12.682  1.00  0.00     0.184 HD
BRANCH  23  26
HETATM   26  C8  UNL     1      15.104 -12.440  14.023  1.00  0.00     0.081 A 
HETATM   27  C9  UNL     1      16.127 -13.319  13.681  1.00  0.00     0.121 A 
HETATM   28  N4  UNL     1      17.207 -12.603  13.293  1.00  0.00    -0.360 N 
HETATM   29  C10 UNL     1      16.886 -11.335  13.383  1.00  0.00     0.182 A 
ATOM     30  H4  UNL     1      18.104 -12.980  12.986  1.00  0.00     0.166 HD
HETATM   31  N5  UNL     1      15.595 -11.205  13.832  1.00  0.00    -0.344 N 
HETATM   32  C11 UNL     1      14.925  -9.945  14.033  1.00  0.00     0.157 C 
ENDBRANCH  23  26
ENDBRANCH   1  18
TORSDOF 13
ENDMDL
MODEL 4
REMARK VINA RESULT: -6.009379261      3.947      5.083
REMARK  13 active torsions:
REMARK  status: ('A' for Active; 'I' for Inactive)
REMARK    1  A    between atoms: C2_2  and  N1_3 
REMARK    2  A    between atoms: C2_2  and  N7_24 
REMARK    3  A    between atoms: N1_3  and  C3_5 
REMARK    4  A    between atoms: C3_5  and  C4_6 
REMARK    5  A    between atoms: C4_6  and  N2_7 
REMARK    6  A    between atoms: N2_7  and  C5_9 
REMARK    7  A    between atoms: C7_14  and  C8_15 
REMARK    8  A    between atoms: N7_24  and  C12_25 
REMARK    9  A    between atoms: N7_24  and  C14_29 
REMARK   10  A    between atoms: C12_25  and  C13_26 
REMARK   11  A    between atoms: C13_26  and  O1_27 
REMARK   12  A    between atoms: C14_29  and  C15_30 
REMARK   13  A    between atoms: C15_30  and  O2_31 
ROOT
HETATM    1  N2  UNL     1      10.469 -13.901  14.079  1.00  0.00    -0.224 N 
ATOM      2  H2  UNL     1      10.409 -14.617  13.354  1.00  0.00     0.177 HD
ENDROOT
BRANCH   1   3
HETATM    3  C4  UNL     1       9.233 -13.323  14.627  1.00  0.00     0.157 C 
BRANCH   3   4
HETATM    4  C3  UNL     1       8.160 -13.538  13.594  1.00  0.00     0.141 C 
BRANCH   4   5
HETATM    5  N1  UNL     1       8.769 -13.285  12.284  1.00  0.00    -0.379 N 
ATOM      6  H1  UNL     1       9.655 -12.783  12.227  1.00  0.00     0.160 HD
BRANCH   5   7
HETATM    7  C2  UNL     1       8.193 -13.691  11.200  1.00  0.00     0.071 C 
HETATM    8  C1  UNL     1       7.616 -12.682  10.298  1.00  0.00     0.088 C 
BRANCH   7   9
HETATM    9  N7  UNL     1       8.117 -15.070  10.896  1.00  0.00    -0.367 N 
BRANCH   9  10
HETATM   10  C12 UNL     1       6.929 -15.594  10.300  1.00  0.00     0.150 C 
BRANCH  10  11
HETATM   11  C13 UNL     1       5.977 -16.187  11.323  1.00  0.00     0.183 C 
BRANCH  11  12
HETATM   12  O1  UNL     1       5.084 -15.198  11.784  1.00  0.00    -0.399 OA
ATOM     13  H1  UNL     1       4.454 -15.581  12.383  1.00  0.00     0.209 HD
ENDBRANCH  11  12
ENDBRANCH  10  11
ENDBRANCH   9  10
BRANCH   9  14
HETATM   14  C14 UNL     1       9.257 -15.885  11.187  1.00  0.00     0.150 C 
BRANCH  14  15
HETATM   15  C15 UNL     1      10.533 -15.492  10.491  1.00  0.00     0.183 C 
BRANCH  15  16
HETATM   16  O2  UNL     1      11.352 -14.673  11.246  1.00  0.00    -0.399 OA
ATOM     17  H2  UNL     1      11.035 -13.781  11.326  1.00  0.00     0.209 HD
ENDBRANCH  15  16
ENDBRANCH  14  15
ENDBRANCH   9  14
ENDBRANCH   7   9
ENDBRANCH   5   7
ENDBRANCH   4   5
ENDBRANCH   3   4
ENDBRANCH   1   3
BRANCH   1  18
HETATM   18  C5  UNL     1      11.618 -13.522  14.496  1.00  0.00     0.679 A 
HETATM   19  N3  UNL     1      11.950 -13.361  15.773  1.00  0.00    -0.183 N 
HETATM   20  C6  UNL     1      13.255 -12.951  15.767  1.00  0.00     0.125 A 
ATOM     21  H3  UNL     1      11.356 -13.513  16.588  1.00  0.00     0.185 HD
HETATM   22 BR1  UNL     1      14.159 -12.615  17.411  1.00  0.00    -0.028 Br
HETATM   23  C7  UNL     1      13.738 -12.855  14.487  1.00  0.00     0.112 A 
HETATM   24  N6  UNL     1      12.681 -13.222  13.713  1.00  0.00    -0.187 N 
ATOM     25  H6  UNL     1      12.689 -13.265  12.694  1.00  0.00     0.184 HD
BRANCH  23  26
HETATM   26  C8  UNL     1      15.098 -12.476  14.042  1.00  0.00     0.081 A 
HETATM   27  C9  UNL     1      16.123 -13.357  13.716  1.00  0.00     0.121 A 
HETATM   28  N4  UNL     1      17.205 -12.644  13.328  1.00  0.00    -0.360 N 
HETATM   29  C10 UNL     1      16.882 -11.375  13.404  1.00  0.00     0.182 A 
ATOM     30  H4  UNL     1      18.104 -13.023  13.031  1.00  0.00     0.166 HD
HETATM   31  N5  UNL     1      15.589 -11.242  13.843  1.00  0.00    -0.344 N 
HETATM   32  C11 UNL     1      14.916  -9.980  14.028  1.00  0.00     0.157 C 
ENDBRANCH  23  26
ENDBRANCH   1  18
TORSDOF 13
ENDMDL
MODEL 5
REMARK VINA RESULT: -5.893723083      2.414      2.734
REMARK  13 active torsions:
REMARK  status: ('A' for Active; 'I' for Inactive)
REMARK    1  A    between atoms: C2_2  and  N1_3 
REMARK    2  A    between atoms: C2_2  and  N7_24 
REMARK    3  A    between atoms: N1_3  and  C3_5 
REMARK    4  A    between atoms: C3_5  and  C4_6 
REMARK    5  A    between atoms: C4_6  and  N2_7 
REMARK    6  A    between atoms: N2_7  and  C5_9 
REMARK    7  A    between atoms: C7_14  and  C8_15 
REMARK    8  A    between atoms: N7_24  and  C12_25 
REMARK    9  A    between atoms: N7_24  and  C14_29 
REMARK   10  A    between atoms: C12_25  and  C13_26 
REMARK   11  A    between atoms: C13_26  and  O1_27 
REMARK   12  A    between atoms: C14_29  and  C15_30 
REMARK   13  A    between atoms: C15_30  and  O2_31 
ROOT
HETATM    1  N2  UNL     1      12.412 -11.573  15.994  1.00  0.00    -0.224 N 
ATOM      2  H2  UNL     1      11.850 -10.813  15.609  1.00  0.00     0.177 HD
ENDROOT
BRANCH   1   3
HETATM    3  C4  UNL     1      11.978 -12.240  17.230  1.00  0.00     0.157 C 
BRANCH   3   4
HETATM    4  C3  UNL     1      10.575 -12.730  16.986  1.00  0.00     0.141 C 
BRANCH   4   5
HETATM    5  N1  UNL     1      10.208 -12.320  15.627  1.00  0.00    -0.379 N 
ATOM      6  H1  UNL     1      10.827 -11.702  15.101  1.00  0.00     0.160 HD
BRANCH   5   7
HETATM    7  C2  UNL     1       9.107 -12.733  15.089  1.00  0.00     0.071 C 
HETATM    8  C1  UNL     1       7.835 -12.302  15.689  1.00  0.00     0.088 C 
BRANCH   7   9
HETATM    9  N7  UNL     1       9.131 -13.581  13.958  1.00  0.00    -0.367 N 
BRANCH   9  10
HETATM   10  C12 UNL     1      10.122 -14.606  13.868  1.00  0.00     0.150 C 
BRANCH  10  11
HETATM   11  C13 UNL     1      11.135 -14.344  12.769  1.00  0.00     0.183 C 
BRANCH  11  12
HETATM   12  O1  UNL     1      12.058 -13.362  13.184  1.00  0.00    -0.399 OA
ATOM     13  H1  UNL     1      12.335 -13.531  14.077  1.00  0.00     0.209 HD
ENDBRANCH  11  12
ENDBRANCH  10  11
ENDBRANCH   9  10
BRANCH   9  14
HETATM   14  C14 UNL     1       8.137 -13.381  12.948  1.00  0.00     0.150 C 
BRANCH  14  15
HETATM   15  C15 UNL     1       7.394 -14.615  12.512  1.00  0.00     0.183 C 
BRANCH  15  16
HETATM   16  O2  UNL     1       6.057 -14.394  12.233  1.00  0.00    -0.399 OA
ATOM     17  H2  UNL     1       5.776 -13.500  12.385  1.00  0.00     0.209 HD
ENDBRANCH  15  16
ENDBRANCH  14  15
ENDBRANCH   9  14
ENDBRANCH   7   9
ENDBRANCH   5   7
ENDBRANCH   4   5
ENDBRANCH   3   4
ENDBRANCH   1   3
BRANCH   1  18
HETATM   18  C5  UNL     1      13.484 -11.929  15.392  1.00  0.00     0.679 A 
HETATM   19  N3  UNL     1      14.037 -13.135  15.470  1.00  0.00    -0.183 N 
HETATM   20  C6  UNL     1      15.154 -13.082  14.683  1.00  0.00     0.125 A 
ATOM     21  H3  UNL     1      13.699 -13.935  16.006  1.00  0.00     0.185 HD
HETATM   22 BR1  UNL     1      16.258 -14.623  14.484  1.00  0.00    -0.028 Br
HETATM   23  C7  UNL     1      15.299 -11.844  14.112  1.00  0.00     0.112 A 
HETATM   24  N6  UNL     1      14.231 -11.143  14.580  1.00  0.00    -0.187 N 
ATOM     25  H6  UNL     1      14.023 -10.171  14.353  1.00  0.00     0.184 HD
BRANCH  23  26
HETATM   26  C8  UNL     1      16.349 -11.377  13.179  1.00  0.00     0.081 A 
HETATM   27  C9  UNL     1      17.407 -12.139  12.697  1.00  0.00     0.121 A 
HETATM   28  N4  UNL     1      18.140 -11.383  11.848  1.00  0.00    -0.360 N 
HETATM   29  C10 UNL     1      17.575 -10.201  11.794  1.00  0.00     0.182 A 
ATOM     30  H4  UNL     1      18.976 -11.678  11.343  1.00  0.00     0.166 HD
HETATM   31  N5  UNL     1      16.469 -10.168  12.606  1.00  0.00    -0.344 N 
HETATM   32  C11 UNL     1      15.612  -9.021  12.771  1.00  0.00     0.157 C 
ENDBRANCH  23  26
ENDBRANCH   1  18
TORSDOF 13
ENDMDL
