MODEL 1
REMARK VINA RESULT: -9.393819477      0.000      0.000
REMARK  10 active torsions:
REMARK  status: ('A' for Active; 'I' for Inactive)
REMARK    1  A    between atoms: C2_2  and  C4_4 
REMARK    2  A    between atoms: C4_4  and  C5_5 
REMARK    3  A    between atoms: C4_4  and  N3_21 
REMARK    4  A    between atoms: C10_11  and  C11_12 
REMARK       I    between atoms: C11_12  and  N2_14 
REMARK       I    between atoms: N3_21  and  C18_23 
REMARK    5  A    between atoms: C18_23  and  C19_25 
REMARK    6  A    between atoms: C19_25  and  C20_26 
REMARK    7  A    between atoms: C19_25  and  N6_44 
REMARK       I    between atoms: C20_26  and  N4_28 
REMARK    8  A    between atoms: C23_31  and  C24_32 
REMARK       I    between atoms: C24_32  and  N5_34 
REMARK    9  A    between atoms: N5_34  and  C25_36 
REMARK   10  A    between atoms: C28_41  and  O5_42 
ROOT
HETATM    1  C19 UNL     1       3.035  -1.305 -12.778  1.00  0.00     0.269 C 
ENDROOT
BRANCH   1   2
HETATM    2  C18 UNL     1       4.121  -1.735 -11.880  1.00  0.00     0.250 C 
HETATM    3  N3  UNL     1       5.390  -2.188 -12.400  1.00  0.00    -0.349 N 
ATOM      4  H3  UNL     1       5.532  -2.196 -13.411  1.00  0.00     0.163 HD
HETATM    5  O2  UNL     1       3.983  -1.729 -10.651  1.00  0.00    -0.271 OA
BRANCH   3   6
HETATM    6  C4  UNL     1       6.449  -2.625 -11.557  1.00  0.00     0.126 C 
BRANCH   6   7
HETATM    7  C2  UNL     1       6.960  -4.034 -11.911  1.00  0.00     0.005 C 
HETATM    8  C1  UNL     1       6.098  -4.534 -13.047  1.00  0.00     0.012 C 
HETATM    9  C3  UNL     1       8.372  -3.926 -12.414  1.00  0.00     0.012 C 
ENDBRANCH   6   7
BRANCH   6  10
HETATM   10  C5  UNL     1       7.642  -1.681 -11.468  1.00  0.00     0.084 C 
HETATM   11  N1  UNL     1       7.450  -0.558 -10.714  1.00  0.00    -0.377 N 
HETATM   12  C6  UNL     1       7.296  -0.400  -9.349  1.00  0.00     0.134 C 
HETATM   13  C10 UNL     1       7.974   0.728 -10.910  1.00  0.00     0.185 C 
HETATM   14  C7  UNL     1       7.536   1.114  -9.499  1.00  0.00    -0.002 C 
HETATM   15  C8  UNL     1       8.589   1.564  -8.559  1.00  0.00     0.019 C 
HETATM   16  C9  UNL     1       6.291   1.929  -9.420  1.00  0.00     0.019 C 
BRANCH  13  17
HETATM   17  C11 UNL     1       9.434   0.850 -11.145  1.00  0.00     0.243 C 
HETATM   18  O1  UNL     1      10.255   0.217 -10.391  1.00  0.00    -0.271 OA
HETATM   19  N2  UNL     1       9.996   1.625 -12.157  1.00  0.00    -0.350 N 
HETATM   20  C12 UNL     1       9.098   2.314 -13.039  1.00  0.00     0.126 C 
HETATM   21  C17 UNL     1      11.436   1.668 -12.221  1.00  0.00     0.126 C 
HETATM   22  C13 UNL     1       8.718   1.442 -14.250  1.00  0.00     0.020 C 
HETATM   23  C14 UNL     1       9.928   1.473 -15.171  1.00  0.00     0.002 C 
HETATM   24  C15 UNL     1      11.025   0.688 -14.485  1.00  0.00     0.002 C 
HETATM   25  C16 UNL     1      11.934   1.551 -13.649  1.00  0.00     0.020 C 
ENDBRANCH  13  17
ENDBRANCH   6  10
ENDBRANCH   3   6
ENDBRANCH   1   2
BRANCH   1  26
HETATM   26  C20 UNL     1       2.864   0.128 -12.967  1.00  0.00     0.252 C 
HETATM   27  O3  UNL     1       1.691   0.659 -12.886  1.00  0.00    -0.270 OA
HETATM   28  N4  UNL     1       3.891   1.061 -13.236  1.00  0.00    -0.336 N 
HETATM   29  C21 UNL     1       5.333   0.964 -13.447  1.00  0.00     0.129 C 
HETATM   30  C23 UNL     1       4.036   2.479 -13.376  1.00  0.00     0.180 C 
HETATM   31  C22 UNL     1       5.450   2.355 -12.838  1.00  0.00     0.055 C 
BRANCH  30  32
HETATM   32  C24 UNL     1       3.946   3.031 -14.719  1.00  0.00     0.241 C 
HETATM   33  O4  UNL     1       2.808   3.338 -15.181  1.00  0.00    -0.271 OA
HETATM   34  N5  UNL     1       5.128   3.220 -15.500  1.00  0.00    -0.351 N 
ATOM     35  H5  UNL     1       6.032   2.968 -15.102  1.00  0.00     0.163 HD
BRANCH  34  36
HETATM   36  C25 UNL     1       5.070   3.762 -16.841  1.00  0.00     0.124 C 
HETATM   37  C26 UNL     1       4.908   2.583 -17.784  1.00  0.00     0.113 C 
HETATM   38  S1  UNL     1       4.289   3.289 -19.348  1.00  0.00    -0.095 SA
HETATM   39  S2  UNL     1       4.496   5.415 -19.040  1.00  0.00    -0.095 SA
HETATM   40  C27 UNL     1       6.087   5.615 -18.188  1.00  0.00     0.120 C 
HETATM   41  C28 UNL     1       6.276   4.580 -17.105  1.00  0.00     0.151 C 
BRANCH  41  42
HETATM   42  O5  UNL     1       7.370   3.743 -17.398  1.00  0.00    -0.393 OA
ATOM     43  H5  UNL     1       7.931   3.662 -16.635  1.00  0.00     0.210 HD
ENDBRANCH  41  42
ENDBRANCH  34  36
ENDBRANCH  30  32
ENDBRANCH   1  26
BRANCH   1  44
HETATM   44  N6  UNL     1       2.998  -2.108 -13.970  1.00  0.00    -0.369 N 
HETATM   45  C29 UNL     1       2.901  -1.470 -15.210  1.00  0.00     0.085 C 
HETATM   46  C30 UNL     1       1.898  -2.093 -16.167  1.00  0.00     0.212 C 
HETATM   47  O6  UNL     1       1.848  -3.481 -16.071  1.00  0.00    -0.385 OA
HETATM   48  C31 UNL     1       1.345  -3.754 -14.778  1.00  0.00     0.187 C 
HETATM   49  C32 UNL     1       2.463  -3.406 -13.834  1.00  0.00     0.149 C 
ENDBRANCH   1  44
TORSDOF 10
ENDMDL
MODEL 2
REMARK VINA RESULT: -9.163829471      3.599      6.237
REMARK  10 active torsions:
REMARK  status: ('A' for Active; 'I' for Inactive)
REMARK    1  A    between atoms: C2_2  and  C4_4 
REMARK    2  A    between atoms: C4_4  and  C5_5 
REMARK    3  A    between atoms: C4_4  and  N3_21 
REMARK    4  A    between atoms: C10_11  and  C11_12 
REMARK       I    between atoms: C11_12  and  N2_14 
REMARK       I    between atoms: N3_21  and  C18_23 
REMARK    5  A    between atoms: C18_23  and  C19_25 
REMARK    6  A    between atoms: C19_25  and  C20_26 
REMARK    7  A    between atoms: C19_25  and  N6_44 
REMARK       I    between atoms: C20_26  and  N4_28 
REMARK    8  A    between atoms: C23_31  and  C24_32 
REMARK       I    between atoms: C24_32  and  N5_34 
REMARK    9  A    between atoms: N5_34  and  C25_36 
REMARK   10  A    between atoms: C28_41  and  O5_42 
ROOT
HETATM    1  C19 UNL     1       3.518  -2.117 -13.045  1.00  0.00     0.269 C 
ENDROOT
BRANCH   1   2
HETATM    2  C18 UNL     1       4.573  -2.336 -12.040  1.00  0.00     0.250 C 
HETATM    3  N3  UNL     1       5.912  -2.712 -12.428  1.00  0.00    -0.349 N 
ATOM      4  H3  UNL     1       6.126  -2.814 -13.420  1.00  0.00     0.163 HD
HETATM    5  O2  UNL     1       4.348  -2.211 -10.830  1.00  0.00    -0.271 OA
BRANCH   3   6
HETATM    6  C4  UNL     1       6.945  -2.946 -11.478  1.00  0.00     0.126 C 
BRANCH   6   7
HETATM    7  C2  UNL     1       7.651  -4.300 -11.676  1.00  0.00     0.005 C 
HETATM    8  C1  UNL     1       7.271  -4.789 -13.054  1.00  0.00     0.012 C 
HETATM    9  C3  UNL     1       9.138  -4.081 -11.658  1.00  0.00     0.012 C 
ENDBRANCH   6   7
BRANCH   6  10
HETATM   10  C5  UNL     1       8.004  -1.853 -11.384  1.00  0.00     0.084 C 
HETATM   11  N1  UNL     1       7.634  -0.733 -10.696  1.00  0.00    -0.377 N 
HETATM   12  C6  UNL     1       7.393  -0.536  -9.349  1.00  0.00     0.134 C 
HETATM   13  C10 UNL     1       8.000   0.600 -10.933  1.00  0.00     0.185 C 
HETATM   14  C7  UNL     1       7.447   0.988  -9.564  1.00  0.00    -0.002 C 
HETATM   15  C8  UNL     1       8.387   1.611  -8.602  1.00  0.00     0.019 C 
HETATM   16  C9  UNL     1       6.107   1.639  -9.579  1.00  0.00     0.019 C 
BRANCH  13  17
HETATM   17  C11 UNL     1       9.443   0.899 -11.110  1.00  0.00     0.243 C 
HETATM   18  O1  UNL     1      10.299   0.414 -10.288  1.00  0.00    -0.271 OA
HETATM   19  N2  UNL     1       9.952   1.692 -12.136  1.00  0.00    -0.350 N 
HETATM   20  C12 UNL     1       9.019   2.218 -13.091  1.00  0.00     0.126 C 
HETATM   21  C17 UNL     1      11.376   1.918 -12.139  1.00  0.00     0.126 C 
HETATM   22  C13 UNL     1       8.814   1.248 -14.270  1.00  0.00     0.020 C 
HETATM   23  C14 UNL     1      10.055   1.392 -15.137  1.00  0.00     0.002 C 
HETATM   24  C15 UNL     1      11.207   0.788 -14.364  1.00  0.00     0.002 C 
HETATM   25  C16 UNL     1      11.956   1.799 -13.536  1.00  0.00     0.020 C 
ENDBRANCH  13  17
ENDBRANCH   6  10
ENDBRANCH   3   6
ENDBRANCH   1   2
BRANCH   1  26
HETATM   26  C20 UNL     1       2.304  -2.909 -12.908  1.00  0.00     0.252 C 
HETATM   27  O3  UNL     1       2.327  -4.179 -13.135  1.00  0.00    -0.270 OA
HETATM   28  N4  UNL     1       1.032  -2.424 -12.526  1.00  0.00    -0.336 N 
HETATM   29  C21 UNL     1       0.493  -1.106 -12.203  1.00  0.00     0.129 C 
HETATM   30  C23 UNL     1      -0.267  -2.951 -12.232  1.00  0.00     0.180 C 
HETATM   31  C22 UNL     1      -0.476  -1.805 -11.259  1.00  0.00     0.055 C 
BRANCH  30  32
HETATM   32  C24 UNL     1      -1.230  -3.002 -13.322  1.00  0.00     0.241 C 
HETATM   33  O4  UNL     1      -0.824  -2.827 -14.508  1.00  0.00    -0.271 OA
HETATM   34  N5  UNL     1      -2.612  -3.246 -13.049  1.00  0.00    -0.351 N 
ATOM     35  H5  UNL     1      -2.911  -3.387 -12.085  1.00  0.00     0.163 HD
BRANCH  34  36
HETATM   36  C25 UNL     1      -3.595  -3.297 -14.111  1.00  0.00     0.124 C 
HETATM   37  C26 UNL     1      -4.383  -2.001 -14.041  1.00  0.00     0.113 C 
HETATM   38  S1  UNL     1      -5.197  -1.836 -15.666  1.00  0.00    -0.095 SA
HETATM   39  S2  UNL     1      -4.842  -3.756 -16.587  1.00  0.00    -0.095 SA
HETATM   40  C27 UNL     1      -5.071  -4.968 -15.255  1.00  0.00     0.120 C 
HETATM   41  C28 UNL     1      -4.427  -4.514 -13.967  1.00  0.00     0.151 C 
BRANCH  41  42
HETATM   42  O5  UNL     1      -5.395  -4.319 -12.963  1.00  0.00    -0.393 OA
ATOM     43  H5  UNL     1      -5.885  -5.121 -12.824  1.00  0.00     0.210 HD
ENDBRANCH  41  42
ENDBRANCH  34  36
ENDBRANCH  30  32
ENDBRANCH   1  26
BRANCH   1  44
HETATM   44  N6  UNL     1       3.332  -0.716 -13.307  1.00  0.00    -0.369 N 
HETATM   45  C29 UNL     1       2.898  -0.320 -14.575  1.00  0.00     0.085 C 
HETATM   46  C30 UNL     1       3.646   0.867 -15.159  1.00  0.00     0.212 C 
HETATM   47  O6  UNL     1       4.002   1.809 -14.199  1.00  0.00    -0.385 OA
HETATM   48  C31 UNL     1       4.936   1.160 -13.358  1.00  0.00     0.187 C 
HETATM   49  C32 UNL     1       4.133   0.172 -12.559  1.00  0.00     0.149 C 
ENDBRANCH   1  44
TORSDOF 10
ENDMDL
MODEL 3
REMARK VINA RESULT: -8.910070557      4.243      9.525
REMARK  10 active torsions:
REMARK  status: ('A' for Active; 'I' for Inactive)
REMARK    1  A    between atoms: C2_2  and  C4_4 
REMARK    2  A    between atoms: C4_4  and  C5_5 
REMARK    3  A    between atoms: C4_4  and  N3_21 
REMARK    4  A    between atoms: C10_11  and  C11_12 
REMARK       I    between atoms: C11_12  and  N2_14 
REMARK       I    between atoms: N3_21  and  C18_23 
REMARK    5  A    between atoms: C18_23  and  C19_25 
REMARK    6  A    between atoms: C19_25  and  C20_26 
REMARK    7  A    between atoms: C19_25  and  N6_44 
REMARK       I    between atoms: C20_26  and  N4_28 
REMARK    8  A    between atoms: C23_31  and  C24_32 
REMARK       I    between atoms: C24_32  and  N5_34 
REMARK    9  A    between atoms: N5_34  and  C25_36 
REMARK   10  A    between atoms: C28_41  and  O5_42 
ROOT
HETATM    1  C19 UNL     1      15.165   2.972 -11.728  1.00  0.00     0.269 C 
ENDROOT
BRANCH   1   2
HETATM    2  C18 UNL     1      14.643   1.878 -10.890  1.00  0.00     0.250 C 
HETATM    3  N3  UNL     1      13.350   1.973 -10.253  1.00  0.00    -0.349 N 
ATOM      4  H3  UNL     1      12.789   2.812 -10.403  1.00  0.00     0.163 HD
HETATM    5  O2  UNL     1      15.295   0.845 -10.697  1.00  0.00    -0.271 OA
BRANCH   3   6
HETATM    6  C4  UNL     1      12.829   0.940  -9.425  1.00  0.00     0.126 C 
BRANCH   6   7
HETATM    7  C2  UNL     1      12.301   1.458  -8.074  1.00  0.00     0.005 C 
HETATM    8  C1  UNL     1      12.804   2.875  -7.929  1.00  0.00     0.012 C 
HETATM    9  C3  UNL     1      10.799   1.504  -8.125  1.00  0.00     0.012 C 
ENDBRANCH   6   7
BRANCH   6  10
HETATM   10  C5  UNL     1      11.756   0.069 -10.067  1.00  0.00     0.084 C 
HETATM   11  N1  UNL     1      11.263   0.522 -11.258  1.00  0.00    -0.377 N 
HETATM   12  C6  UNL     1      11.853   0.615 -12.505  1.00  0.00     0.134 C 
HETATM   13  C10 UNL     1       9.961   0.410 -11.766  1.00  0.00     0.185 C 
HETATM   14  C7  UNL     1      10.468   0.837 -13.142  1.00  0.00    -0.002 C 
HETATM   15  C8  UNL     1      10.261  -0.107 -14.266  1.00  0.00     0.019 C 
HETATM   16  C9  UNL     1      10.198   2.255 -13.509  1.00  0.00     0.019 C 
BRANCH  13  17
HETATM   17  C11 UNL     1       9.324  -0.930 -11.744  1.00  0.00     0.243 C 
HETATM   18  O1  UNL     1      10.043  -1.973 -11.547  1.00  0.00    -0.271 OA
HETATM   19  N2  UNL     1       7.960  -1.145 -11.927  1.00  0.00    -0.350 N 
HETATM   20  C12 UNL     1       7.127   0.008 -12.113  1.00  0.00     0.126 C 
HETATM   21  C17 UNL     1       7.510  -2.515 -11.919  1.00  0.00     0.126 C 
HETATM   22  C13 UNL     1       6.614   0.555 -10.768  1.00  0.00     0.020 C 
HETATM   23  C14 UNL     1       5.507  -0.394 -10.337  1.00  0.00     0.002 C 
HETATM   24  C15 UNL     1       6.168  -1.705  -9.970  1.00  0.00     0.002 C 
HETATM   25  C16 UNL     1       6.231  -2.676 -11.120  1.00  0.00     0.020 C 
ENDBRANCH  13  17
ENDBRANCH   6  10
ENDBRANCH   3   6
ENDBRANCH   1   2
BRANCH   1  26
HETATM   26  C20 UNL     1      14.227   4.022 -12.099  1.00  0.00     0.252 C 
HETATM   27  O3  UNL     1      13.293   4.377 -11.283  1.00  0.00    -0.270 OA
HETATM   28  N4  UNL     1      14.225   4.746 -13.313  1.00  0.00    -0.336 N 
HETATM   29  C21 UNL     1      15.027   4.704 -14.532  1.00  0.00     0.129 C 
HETATM   30  C23 UNL     1      13.518   5.845 -13.899  1.00  0.00     0.180 C 
HETATM   31  C22 UNL     1      14.775   6.199 -14.674  1.00  0.00     0.055 C 
BRANCH  30  32
HETATM   32  C24 UNL     1      12.364   5.533 -14.729  1.00  0.00     0.241 C 
HETATM   33  O4  UNL     1      12.194   4.341 -15.118  1.00  0.00    -0.271 OA
HETATM   34  N5  UNL     1      11.442   6.562 -15.094  1.00  0.00    -0.351 N 
ATOM     35  H5  UNL     1      11.601   7.513 -14.764  1.00  0.00     0.163 HD
BRANCH  34  36
HETATM   36  C25 UNL     1      10.288   6.284 -15.923  1.00  0.00     0.124 C 
HETATM   37  C26 UNL     1      10.123   7.469 -16.857  1.00  0.00     0.113 C 
HETATM   38  S1  UNL     1       9.063   6.876 -18.218  1.00  0.00    -0.095 SA
HETATM   39  S2  UNL     1       8.386   4.954 -17.508  1.00  0.00    -0.095 SA
HETATM   40  C27 UNL     1       8.036   5.200 -15.743  1.00  0.00     0.120 C 
HETATM   41  C28 UNL     1       9.107   6.023 -15.069  1.00  0.00     0.151 C 
BRANCH  41  42
HETATM   42  O5  UNL     1       8.579   7.239 -14.594  1.00  0.00    -0.393 OA
ATOM     43  H5  UNL     1       8.641   7.906 -15.268  1.00  0.00     0.210 HD
ENDBRANCH  41  42
ENDBRANCH  34  36
ENDBRANCH  30  32
ENDBRANCH   1  26
BRANCH   1  44
HETATM   44  N6  UNL     1      16.454   3.410 -11.268  1.00  0.00    -0.369 N 
HETATM   45  C29 UNL     1      16.519   4.447 -10.333  1.00  0.00     0.085 C 
HETATM   46  C30 UNL     1      17.568   5.505 -10.633  1.00  0.00     0.212 C 
HETATM   47  O6  UNL     1      18.726   4.977 -11.197  1.00  0.00    -0.385 OA
HETATM   48  C31 UNL     1      18.337   4.473 -12.460  1.00  0.00     0.187 C 
HETATM   49  C32 UNL     1      17.530   3.239 -12.165  1.00  0.00     0.149 C 
ENDBRANCH   1  44
TORSDOF 10
ENDMDL
MODEL 4
REMARK VINA RESULT: -8.899491398      2.312      4.521
REMARK  10 active torsions:
REMARK  status: ('A' for Active; 'I' for Inactive)
REMARK    1  A    between atoms: C2_2  and  C4_4 
REMARK    2  A    between atoms: C4_4  and  C5_5 
REMARK    3  A    between atoms: C4_4  and  N3_21 
REMARK    4  A    between atoms: C10_11  and  C11_12 
REMARK       I    between atoms: C11_12  and  N2_14 
REMARK       I    between atoms: N3_21  and  C18_23 
REMARK    5  A    between atoms: C18_23  and  C19_25 
REMARK    6  A    between atoms: C19_25  and  C20_26 
REMARK    7  A    between atoms: C19_25  and  N6_44 
REMARK       I    between atoms: C20_26  and  N4_28 
REMARK    8  A    between atoms: C23_31  and  C24_32 
REMARK       I    between atoms: C24_32  and  N5_34 
REMARK    9  A    between atoms: N5_34  and  C25_36 
REMARK   10  A    between atoms: C28_41  and  O5_42 
ROOT
HETATM    1  C19 UNL     1       3.599   2.400 -13.793  1.00  0.00     0.269 C 
ENDROOT
BRANCH   1   2
HETATM    2  C18 UNL     1       4.510   2.914 -12.755  1.00  0.00     0.250 C 
HETATM    3  N3  UNL     1       5.555   2.088 -12.198  1.00  0.00    -0.349 N 
ATOM      4  H3  UNL     1       5.665   1.135 -12.545  1.00  0.00     0.163 HD
HETATM    5  O2  UNL     1       4.408   4.068 -12.320  1.00  0.00    -0.271 OA
BRANCH   3   6
HETATM    6  C4  UNL     1       6.437   2.553 -11.183  1.00  0.00     0.126 C 
BRANCH   6   7
HETATM    7  C2  UNL     1       6.261   1.810  -9.845  1.00  0.00     0.005 C 
HETATM    8  C1  UNL     1       5.898   0.384 -10.187  1.00  0.00     0.012 C 
HETATM    9  C3  UNL     1       7.578   1.792  -9.123  1.00  0.00     0.012 C 
ENDBRANCH   6   7
BRANCH   6  10
HETATM   10  C5  UNL     1       7.916   2.549 -11.552  1.00  0.00     0.084 C 
HETATM   11  N1  UNL     1       8.373   1.404 -12.139  1.00  0.00    -0.377 N 
HETATM   12  C6  UNL     1       8.119   0.862 -13.386  1.00  0.00     0.134 C 
HETATM   13  C10 UNL     1       9.634   0.802 -12.018  1.00  0.00     0.185 C 
HETATM   14  C7  UNL     1       9.312  -0.097 -13.210  1.00  0.00    -0.002 C 
HETATM   15  C8  UNL     1      10.213  -0.019 -14.384  1.00  0.00     0.019 C 
HETATM   16  C9  UNL     1       8.914  -1.491 -12.867  1.00  0.00     0.019 C 
BRANCH  13  17
HETATM   17  C11 UNL     1      10.830   1.658 -12.211  1.00  0.00     0.243 C 
HETATM   18  O1  UNL     1      10.758   2.688 -12.971  1.00  0.00    -0.271 OA
HETATM   19  N2  UNL     1      12.063   1.419 -11.608  1.00  0.00    -0.350 N 
HETATM   20  C12 UNL     1      12.160   0.294 -10.724  1.00  0.00     0.126 C 
HETATM   21  C17 UNL     1      13.135   2.326 -11.937  1.00  0.00     0.126 C 
HETATM   22  C13 UNL     1      11.800   0.682  -9.278  1.00  0.00     0.020 C 
HETATM   23  C14 UNL     1      13.011   1.431  -8.743  1.00  0.00     0.002 C 
HETATM   24  C15 UNL     1      13.068   2.755  -9.473  1.00  0.00     0.002 C 
HETATM   25  C16 UNL     1      13.933   2.712 -10.706  1.00  0.00     0.020 C 
ENDBRANCH  13  17
ENDBRANCH   6  10
ENDBRANCH   3   6
ENDBRANCH   1   2
BRANCH   1  26
HETATM   26  C20 UNL     1       3.631   3.068 -15.087  1.00  0.00     0.252 C 
HETATM   27  O3  UNL     1       2.539   3.496 -15.624  1.00  0.00    -0.270 OA
HETATM   28  N4  UNL     1       4.784   3.323 -15.864  1.00  0.00    -0.336 N 
HETATM   29  C21 UNL     1       6.205   3.021 -15.718  1.00  0.00     0.129 C 
HETATM   30  C23 UNL     1       5.125   4.005 -17.076  1.00  0.00     0.180 C 
HETATM   31  C22 UNL     1       6.491   4.305 -16.486  1.00  0.00     0.055 C 
BRANCH  30  32
HETATM   32  C24 UNL     1       5.153   3.220 -18.301  1.00  0.00     0.241 C 
HETATM   33  O4  UNL     1       6.047   3.461 -19.164  1.00  0.00    -0.271 OA
HETATM   34  N5  UNL     1       4.182   2.194 -18.519  1.00  0.00    -0.351 N 
ATOM     35  H5  UNL     1       3.475   2.018 -17.806  1.00  0.00     0.163 HD
BRANCH  34  36
HETATM   36  C25 UNL     1       4.180   1.400 -19.730  1.00  0.00     0.124 C 
HETATM   37  C26 UNL     1       3.001   1.870 -20.561  1.00  0.00     0.113 C 
HETATM   38  S1  UNL     1       3.333   1.286 -22.257  1.00  0.00    -0.095 SA
HETATM   39  S2  UNL     1       5.025  -0.029 -21.997  1.00  0.00    -0.095 SA
HETATM   40  C27 UNL     1       4.681  -0.943 -20.466  1.00  0.00     0.120 C 
HETATM   41  C28 UNL     1       4.136  -0.040 -19.386  1.00  0.00     0.151 C 
BRANCH  41  42
HETATM   42  O5  UNL     1       2.822  -0.411 -19.038  1.00  0.00    -0.393 OA
ATOM     43  H5  UNL     1       2.683  -0.279 -18.107  1.00  0.00     0.210 HD
ENDBRANCH  41  42
ENDBRANCH  34  36
ENDBRANCH  30  32
ENDBRANCH   1  26
BRANCH   1  44
HETATM   44  N6  UNL     1       3.604   0.963 -13.824  1.00  0.00    -0.369 N 
HETATM   45  C29 UNL     1       3.656   0.316 -15.061  1.00  0.00     0.085 C 
HETATM   46  C30 UNL     1       2.694  -0.852 -15.206  1.00  0.00     0.212 C 
HETATM   47  O6  UNL     1       2.537  -1.575 -14.028  1.00  0.00    -0.385 OA
HETATM   48  C31 UNL     1       1.910  -0.689 -13.120  1.00  0.00     0.187 C 
HETATM   49  C32 UNL     1       2.968   0.312 -12.746  1.00  0.00     0.149 C 
ENDBRANCH   1  44
TORSDOF 10
ENDMDL
MODEL 5
REMARK VINA RESULT: -8.807261598      3.209      5.379
REMARK  10 active torsions:
REMARK  status: ('A' for Active; 'I' for Inactive)
REMARK    1  A    between atoms: C2_2  and  C4_4 
REMARK    2  A    between atoms: C4_4  and  C5_5 
REMARK    3  A    between atoms: C4_4  and  N3_21 
REMARK    4  A    between atoms: C10_11  and  C11_12 
REMARK       I    between atoms: C11_12  and  N2_14 
REMARK       I    between atoms: N3_21  and  C18_23 
REMARK    5  A    between atoms: C18_23  and  C19_25 
REMARK    6  A    between atoms: C19_25  and  C20_26 
REMARK    7  A    between atoms: C19_25  and  N6_44 
REMARK       I    between atoms: C20_26  and  N4_28 
REMARK    8  A    between atoms: C23_31  and  C24_32 
REMARK       I    between atoms: C24_32  and  N5_34 
REMARK    9  A    between atoms: N5_34  and  C25_36 
REMARK   10  A    between atoms: C28_41  and  O5_42 
ROOT
HETATM    1  C19 UNL     1       3.300  -2.058 -13.020  1.00  0.00     0.269 C 
ENDROOT
BRANCH   1   2
HETATM    2  C18 UNL     1       4.385  -2.362 -12.071  1.00  0.00     0.250 C 
HETATM    3  N3  UNL     1       5.686  -2.791 -12.532  1.00  0.00    -0.349 N 
ATOM      4  H3  UNL     1       5.850  -2.869 -13.536  1.00  0.00     0.163 HD
HETATM    5  O2  UNL     1       4.221  -2.268 -10.849  1.00  0.00    -0.271 OA
BRANCH   3   6
HETATM    6  C4  UNL     1       6.746  -3.107 -11.638  1.00  0.00     0.126 C 
BRANCH   6   7
HETATM    7  C2  UNL     1       7.401  -4.469 -11.937  1.00  0.00     0.005 C 
HETATM    8  C1  UNL     1       6.884  -4.910 -13.286  1.00  0.00     0.012 C 
HETATM    9  C3  UNL     1       8.887  -4.280 -12.050  1.00  0.00     0.012 C 
ENDBRANCH   6   7
BRANCH   6  10
HETATM   10  C5  UNL     1       7.842  -2.053 -11.527  1.00  0.00     0.084 C 
HETATM   11  N1  UNL     1       7.511  -0.932 -10.822  1.00  0.00    -0.377 N 
HETATM   12  C6  UNL     1       7.277  -0.748  -9.471  1.00  0.00     0.134 C 
HETATM   13  C10 UNL     1       7.923   0.391 -11.037  1.00  0.00     0.185 C 
HETATM   14  C7  UNL     1       7.383   0.776  -9.662  1.00  0.00    -0.002 C 
HETATM   15  C8  UNL     1       8.344   1.351  -8.690  1.00  0.00     0.019 C 
HETATM   16  C9  UNL     1       6.066   1.472  -9.666  1.00  0.00     0.019 C 
BRANCH  13  17
HETATM   17  C11 UNL     1       9.375   0.643 -11.211  1.00  0.00     0.243 C 
HETATM   18  O1  UNL     1      10.219   0.041 -10.456  1.00  0.00    -0.271 OA
HETATM   19  N2  UNL     1       9.905   1.511 -12.163  1.00  0.00    -0.350 N 
HETATM   20  C12 UNL     1       8.984   2.169 -13.044  1.00  0.00     0.126 C 
HETATM   21  C17 UNL     1      11.338   1.673 -12.169  1.00  0.00     0.126 C 
HETATM   22  C13 UNL     1       8.718   1.331 -14.308  1.00  0.00     0.020 C 
HETATM   23  C14 UNL     1       9.952   1.506 -15.180  1.00  0.00     0.002 C 
HETATM   24  C15 UNL     1      11.086   0.779 -14.492  1.00  0.00     0.002 C 
HETATM   25  C16 UNL     1      11.892   1.669 -13.581  1.00  0.00     0.020 C 
ENDBRANCH  13  17
ENDBRANCH   6  10
ENDBRANCH   3   6
ENDBRANCH   1   2
BRANCH   1  26
HETATM   26  C20 UNL     1       2.015  -2.700 -12.779  1.00  0.00     0.252 C 
HETATM   27  O3  UNL     1       1.889  -3.976 -12.926  1.00  0.00    -0.270 OA
HETATM   28  N4  UNL     1       0.825  -2.056 -12.372  1.00  0.00    -0.336 N 
HETATM   29  C21 UNL     1       0.450  -0.669 -12.110  1.00  0.00     0.129 C 
HETATM   30  C23 UNL     1      -0.507  -2.416 -11.988  1.00  0.00     0.180 C 
HETATM   31  C22 UNL     1      -0.540  -1.199 -11.080  1.00  0.00     0.055 C 
BRANCH  30  32
HETATM   32  C24 UNL     1      -1.524  -2.423 -13.028  1.00  0.00     0.241 C 
HETATM   33  O4  UNL     1      -2.671  -1.957 -12.767  1.00  0.00    -0.271 OA
HETATM   34  N5  UNL     1      -1.226  -2.952 -14.322  1.00  0.00    -0.351 N 
ATOM     35  H5  UNL     1      -0.292  -3.319 -14.506  1.00  0.00     0.163 HD
BRANCH  34  36
HETATM   36  C25 UNL     1      -2.218  -2.979 -15.376  1.00  0.00     0.124 C 
HETATM   37  C26 UNL     1      -1.997  -4.263 -16.154  1.00  0.00     0.113 C 
HETATM   38  S1  UNL     1      -3.544  -4.549 -17.077  1.00  0.00    -0.095 SA
HETATM   39  S2  UNL     1      -4.631  -2.707 -16.790  1.00  0.00    -0.095 SA
HETATM   40  C27 UNL     1      -3.383  -1.396 -16.930  1.00  0.00     0.120 C 
HETATM   41  C28 UNL     1      -2.111  -1.753 -16.198  1.00  0.00     0.151 C 
BRANCH  41  42
HETATM   42  O5  UNL     1      -1.032  -1.867 -17.095  1.00  0.00    -0.393 OA
ATOM     43  H5  UNL     1      -0.274  -2.227 -16.647  1.00  0.00     0.210 HD
ENDBRANCH  41  42
ENDBRANCH  34  36
ENDBRANCH  30  32
ENDBRANCH   1  26
BRANCH   1  44
HETATM   44  N6  UNL     1       3.256  -0.655 -13.328  1.00  0.00    -0.369 N 
HETATM   45  C29 UNL     1       2.836  -0.257 -14.600  1.00  0.00     0.085 C 
HETATM   46  C30 UNL     1       3.690   0.825 -15.240  1.00  0.00     0.212 C 
HETATM   47  O6  UNL     1       4.167   1.755 -14.321  1.00  0.00    -0.385 OA
HETATM   48  C31 UNL     1       5.047   1.038 -13.477  1.00  0.00     0.187 C 
HETATM   49  C32 UNL     1       4.163   0.168 -12.627  1.00  0.00     0.149 C 
ENDBRANCH   1  44
TORSDOF 10
ENDMDL
