MODEL 1
REMARK VINA RESULT: -3.734345435      0.000      0.000
REMARK  1 active torsions:
REMARK  status: ('A' for Active; 'I' for Inactive)
REMARK    1  A    between atoms: C2_2  and  N1_3 
ROOT
HETATM    1  N1  UNL     1     -12.667  27.588  44.757  1.00  0.00    -0.047 N 
HETATM    2  C3  UNL     1     -13.865  28.353  44.944  1.00  0.00     0.243 C 
HETATM    3  C4  UNL     1     -14.053  28.165  46.465  1.00  0.00     0.036 C 
HETATM    4  C5  UNL     1     -12.816  27.353  46.729  1.00  0.00     0.040 C 
HETATM    5  C6  UNL     1     -11.795  28.061  45.845  1.00  0.00     0.249 C 
HETATM    6  C7  UNL     1     -12.816  26.380  45.584  1.00  0.00     0.249 C 
ENDROOT
BRANCH   1   7
HETATM    7  C2  UNL     1     -12.112  27.446  43.511  1.00  0.00     0.192 C 
HETATM    8  C1  UNL     1     -12.687  27.942  42.453  1.00  0.00     0.038 C 
ENDBRANCH   1   7
TORSDOF 1
ENDMDL
MODEL 2
REMARK VINA RESULT: -3.565139469      1.192      2.085
REMARK  1 active torsions:
REMARK  status: ('A' for Active; 'I' for Inactive)
REMARK    1  A    between atoms: C2_2  and  N1_3 
ROOT
HETATM    1  N1  UNL     1     -13.779  27.713  45.336  1.00  0.00    -0.047 N 
HETATM    2  C3  UNL     1     -12.456  28.096  44.938  1.00  0.00     0.243 C 
HETATM    3  C4  UNL     1     -11.676  27.666  46.199  1.00  0.00     0.036 C 
HETATM    4  C5  UNL     1     -12.828  27.081  46.967  1.00  0.00     0.040 C 
HETATM    5  C6  UNL     1     -13.587  26.351  45.864  1.00  0.00     0.249 C 
HETATM    6  C7  UNL     1     -13.913  28.097  46.750  1.00  0.00     0.249 C 
ENDROOT
BRANCH   1   7
HETATM    7  C2  UNL     1     -14.851  27.929  44.508  1.00  0.00     0.192 C 
HETATM    8  C1  UNL     1     -14.693  28.105  43.228  1.00  0.00     0.038 C 
ENDBRANCH   1   7
TORSDOF 1
ENDMDL
MODEL 3
REMARK VINA RESULT: -3.517031372      1.205      2.113
REMARK  1 active torsions:
REMARK  status: ('A' for Active; 'I' for Inactive)
REMARK    1  A    between atoms: C2_2  and  N1_3 
ROOT
HETATM    1  N1  UNL     1     -13.265  27.473  45.510  1.00  0.00    -0.047 N 
HETATM    2  C3  UNL     1     -13.706  26.279  46.170  1.00  0.00     0.243 C 
HETATM    3  C4  UNL     1     -12.356  25.540  46.290  1.00  0.00     0.036 C 
HETATM    4  C5  UNL     1     -11.483  26.602  45.685  1.00  0.00     0.040 C 
HETATM    5  C6  UNL     1     -12.080  27.867  46.292  1.00  0.00     0.249 C 
HETATM    6  C7  UNL     1     -12.287  27.047  44.497  1.00  0.00     0.249 C 
ENDROOT
BRANCH   1   7
HETATM    7  C2  UNL     1     -14.157  28.456  45.166  1.00  0.00     0.192 C 
HETATM    8  C1  UNL     1     -14.210  28.928  43.953  1.00  0.00     0.038 C 
ENDBRANCH   1   7
TORSDOF 1
ENDMDL
MODEL 4
REMARK VINA RESULT: -3.477858139      1.174      3.095
REMARK  1 active torsions:
REMARK  status: ('A' for Active; 'I' for Inactive)
REMARK    1  A    between atoms: C2_2  and  N1_3 
ROOT
HETATM    1  N1  UNL     1     -13.449  27.739  46.116  1.00  0.00    -0.047 N 
HETATM    2  C3  UNL     1     -14.135  28.324  45.002  1.00  0.00     0.243 C 
HETATM    3  C4  UNL     1     -13.164  27.931  43.869  1.00  0.00     0.036 C 
HETATM    4  C5  UNL     1     -12.184  27.148  44.697  1.00  0.00     0.040 C 
HETATM    5  C6  UNL     1     -13.118  26.388  45.632  1.00  0.00     0.249 C 
HETATM    6  C7  UNL     1     -12.018  28.016  45.912  1.00  0.00     0.249 C 
ENDROOT
BRANCH   1   7
HETATM    7  C2  UNL     1     -13.948  27.856  47.388  1.00  0.00     0.192 C 
HETATM    8  C1  UNL     1     -14.402  26.820  48.035  1.00  0.00     0.038 C 
ENDBRANCH   1   7
TORSDOF 1
ENDMDL
MODEL 5
REMARK VINA RESULT: -3.475488812      1.096      1.416
REMARK  1 active torsions:
REMARK  status: ('A' for Active; 'I' for Inactive)
REMARK    1  A    between atoms: C2_2  and  N1_3 
ROOT
HETATM    1  N1  UNL     1     -13.194  27.429  45.532  1.00  0.00    -0.047 N 
HETATM    2  C3  UNL     1     -14.139  27.718  46.570  1.00  0.00     0.243 C 
HETATM    3  C4  UNL     1     -13.391  27.107  47.774  1.00  0.00     0.036 C 
HETATM    4  C5  UNL     1     -12.148  26.674  47.048  1.00  0.00     0.040 C 
HETATM    5  C6  UNL     1     -11.913  27.859  46.118  1.00  0.00     0.249 C 
HETATM    6  C7  UNL     1     -12.701  26.067  45.790  1.00  0.00     0.249 C 
ENDROOT
BRANCH   1   7
HETATM    7  C2  UNL     1     -13.449  27.783  44.231  1.00  0.00     0.192 C 
HETATM    8  C1  UNL     1     -14.071  28.889  43.940  1.00  0.00     0.038 C 
ENDBRANCH   1   7
TORSDOF 1
ENDMDL
