MODEL 1
REMARK VINA RESULT: -4.252246386      0.000      0.000
REMARK  1 active torsions:
REMARK  status: ('A' for Active; 'I' for Inactive)
REMARK    1  A    between atoms: C2_2  and  N2_6 
ROOT
HETATM    1  N2  UNL     1     -12.720  27.796  43.730  1.00  0.00    -0.023 N 
HETATM    2  C3  UNL     1     -12.054  27.753  42.432  1.00  0.00     0.281 C 
HETATM    3  C4  UNL     1     -11.884  28.284  44.799  1.00  0.00     0.278 A 
HETATM    4  C5  UNL     1     -12.283  26.829  44.689  1.00  0.00     0.220 A 
HETATM    5  C6  UNL     1     -13.207  26.313  45.751  1.00  0.00     0.043 C 
ENDROOT
BRANCH   1   6
HETATM    6  C2  UNL     1     -14.075  28.188  43.652  1.00  0.00     0.174 C 
HETATM    7  C1  UNL     1     -14.771  28.878  44.760  1.00  0.00     0.096 C 
HETATM    8  N1  UNL     1     -14.718  27.936  42.585  1.00  0.00    -0.383 N 
ATOM      9  H12 UNL     1     -15.696  28.219  42.529  1.00  0.00     0.157 HD
ATOM     10  H11 UNL     1     -14.238  27.459  41.821  1.00  0.00     0.157 HD
ENDBRANCH   1   6
TORSDOF 1
ENDMDL
MODEL 2
REMARK VINA RESULT: -4.047444187      1.512      1.742
REMARK  1 active torsions:
REMARK  status: ('A' for Active; 'I' for Inactive)
REMARK    1  A    between atoms: C2_2  and  N2_6 
ROOT
HETATM    1  N2  UNL     1     -12.867  27.801  45.041  1.00  0.00    -0.023 N 
HETATM    2  C3  UNL     1     -12.064  28.184  43.884  1.00  0.00     0.281 C 
HETATM    3  C4  UNL     1     -12.147  27.846  46.291  1.00  0.00     0.278 A 
HETATM    4  C5  UNL     1     -12.544  26.541  45.637  1.00  0.00     0.220 A 
HETATM    5  C6  UNL     1     -13.581  25.729  46.352  1.00  0.00     0.043 C 
ENDROOT
BRANCH   1   6
HETATM    6  C2  UNL     1     -14.202  28.256  44.973  1.00  0.00     0.174 C 
HETATM    7  C1  UNL     1     -15.057  28.049  43.784  1.00  0.00     0.096 C 
HETATM    8  N1  UNL     1     -14.686  28.868  45.977  1.00  0.00    -0.383 N 
ATOM      9  H12 UNL     1     -15.650  29.196  45.928  1.00  0.00     0.157 HD
ATOM     10  H11 UNL     1     -14.096  29.011  46.797  1.00  0.00     0.157 HD
ENDBRANCH   1   6
TORSDOF 1
ENDMDL
MODEL 3
REMARK VINA RESULT: -3.979250615      1.730      1.979
REMARK  1 active torsions:
REMARK  status: ('A' for Active; 'I' for Inactive)
REMARK    1  A    between atoms: C2_2  and  N2_6 
ROOT
HETATM    1  N2  UNL     1     -13.045  27.766  45.190  1.00  0.00    -0.023 N 
HETATM    2  C3  UNL     1     -13.177  28.459  43.913  1.00  0.00     0.281 C 
HETATM    3  C4  UNL     1     -11.754  27.931  45.812  1.00  0.00     0.278 A 
HETATM    4  C5  UNL     1     -12.188  26.620  45.194  1.00  0.00     0.220 A 
HETATM    5  C6  UNL     1     -12.415  25.481  46.142  1.00  0.00     0.043 C 
ENDROOT
BRANCH   1   6
HETATM    6  C2  UNL     1     -14.220  27.802  45.972  1.00  0.00     0.174 C 
HETATM    7  C1  UNL     1     -14.197  27.967  47.442  1.00  0.00     0.096 C 
HETATM    8  N1  UNL     1     -15.342  27.689  45.385  1.00  0.00    -0.383 N 
ATOM      9  H12 UNL     1     -16.191  27.715  45.949  1.00  0.00     0.157 HD
ATOM     10  H11 UNL     1     -15.358  27.575  44.371  1.00  0.00     0.157 HD
ENDBRANCH   1   6
TORSDOF 1
ENDMDL
MODEL 4
REMARK VINA RESULT: -3.757731951      1.890      2.472
REMARK  1 active torsions:
REMARK  status: ('A' for Active; 'I' for Inactive)
REMARK    1  A    between atoms: C2_2  and  N2_6 
ROOT
HETATM    1  N2  UNL     1     -12.963  26.944  45.730  1.00  0.00    -0.023 N 
HETATM    2  C3  UNL     1     -12.111  27.127  44.559  1.00  0.00     0.281 C 
HETATM    3  C4  UNL     1     -12.232  26.717  46.953  1.00  0.00     0.278 A 
HETATM    4  C5  UNL     1     -13.012  25.618  46.266  1.00  0.00     0.220 A 
HETATM    5  C6  UNL     1     -14.225  25.114  46.988  1.00  0.00     0.043 C 
ENDROOT
BRANCH   1   6
HETATM    6  C2  UNL     1     -14.105  27.774  45.729  1.00  0.00     0.174 C 
HETATM    7  C1  UNL     1     -14.959  27.955  44.535  1.00  0.00     0.096 C 
HETATM    8  N1  UNL     1     -14.408  28.389  46.799  1.00  0.00    -0.383 N 
ATOM      9  H12 UNL     1     -15.233  28.989  46.798  1.00  0.00     0.157 HD
ATOM     10  H11 UNL     1     -13.819  28.264  47.622  1.00  0.00     0.157 HD
ENDBRANCH   1   6
TORSDOF 1
ENDMDL
MODEL 5
REMARK VINA RESULT: -3.737908802      2.462      3.121
REMARK  1 active torsions:
REMARK  status: ('A' for Active; 'I' for Inactive)
REMARK    1  A    between atoms: C2_2  and  N2_6 
ROOT
HETATM    1  N2  UNL     1     -13.657  27.224  46.028  1.00  0.00    -0.023 N 
HETATM    2  C3  UNL     1     -14.396  27.784  44.901  1.00  0.00     0.281 C 
HETATM    3  C4  UNL     1     -12.343  27.793  46.205  1.00  0.00     0.278 A 
HETATM    4  C5  UNL     1     -12.548  26.384  45.694  1.00  0.00     0.220 A 
HETATM    5  C6  UNL     1     -12.107  25.277  46.603  1.00  0.00     0.043 C 
ENDROOT
BRANCH   1   6
HETATM    6  C2  UNL     1     -14.468  26.950  47.151  1.00  0.00     0.174 C 
HETATM    7  C1  UNL     1     -14.203  27.524  48.488  1.00  0.00     0.096 C 
HETATM    8  N1  UNL     1     -15.467  26.177  47.002  1.00  0.00    -0.383 N 
ATOM      9  H12 UNL     1     -16.054  25.979  47.813  1.00  0.00     0.157 HD
ATOM     10  H11 UNL     1     -15.650  25.781  46.080  1.00  0.00     0.157 HD
ENDBRANCH   1   6
TORSDOF 1
ENDMDL
