MODEL 1
REMARK VINA RESULT: -7.609994278      0.000      0.000
REMARK  17 active torsions:
REMARK  status: ('A' for Active; 'I' for Inactive)
REMARK    1  A    between atoms: C2_2  and  N1_3 
REMARK    2  A    between atoms: N1_3  and  C3_6 
REMARK    3  A    between atoms: C3_6  and  C4_7 
REMARK    4  A    between atoms: C4_7  and  N2_8 
REMARK    5  A    between atoms: N2_8  and  C5_11 
REMARK    6  A    between atoms: C6_12  and  O1_13 
REMARK    7  A    between atoms: O1_13  and  C7_14 
REMARK    8  A    between atoms: C8_15  and  O2_16 
REMARK    9  A    between atoms: C9_18  and  C10_19 
REMARK   10  A    between atoms: C10_19  and  N3_20 
REMARK   11  A    between atoms: C11_25  and  O4_26 
REMARK   12  A    between atoms: O4_26  and  C12_27 
REMARK   13  A    between atoms: C17_35  and  O5_36 
REMARK   14  A    between atoms: C18_38  and  O6_39 
REMARK   15  A    between atoms: C19_42  and  C20_43 
REMARK   16  A    between atoms: C20_43  and  N5_44 
REMARK   17  A    between atoms: C21_48  and  O8_49 
ROOT
HETATM    1  C7  UNL     1     -22.290   1.348   4.941  1.00  0.00     0.189 C 
HETATM    2  C8  UNL     1     -23.343   0.381   4.512  1.00  0.00     0.180 C 
HETATM    3  C9  UNL     1     -23.878  -0.344   5.712  1.00  0.00     0.181 C 
HETATM    4  O3  UNL     1     -24.489   0.501   6.619  1.00  0.00    -0.349 OA
HETATM    5  C11 UNL     1     -23.766   1.600   6.980  1.00  0.00     0.292 C 
HETATM    6  C18 UNL     1     -22.988   2.294   5.930  1.00  0.00     0.205 C 
ENDROOT
BRANCH   1   7
HETATM    7  O1  UNL     1     -21.846   2.162   3.900  1.00  0.00    -0.348 OA
BRANCH   7   8
HETATM    8  C6  UNL     1     -21.084   1.505   2.974  1.00  0.00     0.294 C 
HETATM    9  C5  UNL     1     -20.009   2.419   2.362  1.00  0.00     0.271 C 
HETATM   10  C21 UNL     1     -19.621   1.548   1.179  1.00  0.00     0.184 C 
HETATM   11  C19 UNL     1     -20.982   1.011   0.788  1.00  0.00     0.181 C 
HETATM   12  O7  UNL     1     -21.841   1.225   1.831  1.00  0.00    -0.349 OA
BRANCH   9  13
HETATM   13  N2  UNL     1     -20.611   3.635   1.865  1.00  0.00    -0.062 N 
ATOM     14  H22 UNL     1     -21.614   3.662   2.047  1.00  0.00     0.277 HD
ATOM     15  H21 UNL     1     -20.640   3.653   0.845  1.00  0.00     0.277 HD
BRANCH  13  16
HETATM   16  C4  UNL     1     -19.946   4.783   2.396  1.00  0.00     0.260 C 
BRANCH  16  17
HETATM   17  C3  UNL     1     -20.881   5.715   3.133  1.00  0.00     0.259 C 
BRANCH  17  18
HETATM   18  N1  UNL     1     -22.046   5.061   3.642  1.00  0.00    -0.074 N 
ATOM     19  H12 UNL     1     -22.119   5.113   4.658  1.00  0.00     0.277 HD
ATOM     20  H11 UNL     1     -21.998   4.046   3.563  1.00  0.00     0.277 HD
BRANCH  18  21
HETATM   21  C2  UNL     1     -23.201   5.626   2.964  1.00  0.00     0.228 C 
HETATM   22  C1  UNL     1     -22.936   7.013   2.436  1.00  0.00     0.034 C 
ENDBRANCH  18  21
ENDBRANCH  17  18
ENDBRANCH  16  17
ENDBRANCH  13  16
ENDBRANCH   9  13
BRANCH  10  23
HETATM   23  O8  UNL     1     -18.881   0.476   1.697  1.00  0.00    -0.391 OA
ATOM     24  H8  UNL     1     -17.992   0.579   1.375  1.00  0.00     0.210 HD
ENDBRANCH  10  23
BRANCH  11  25
HETATM   25  C20 UNL     1     -20.922  -0.403   0.301  1.00  0.00     0.264 C 
BRANCH  25  26
HETATM   26  N5  UNL     1     -21.454  -1.282   1.318  1.00  0.00    -0.077 N 
ATOM     27  H53 UNL     1     -21.310  -2.266   1.091  1.00  0.00     0.274 HD
ATOM     28  H52 UNL     1     -20.909  -1.251   2.179  1.00  0.00     0.274 HD
ATOM     29  H51 UNL     1     -22.437  -1.061   1.474  1.00  0.00     0.274 HD
ENDBRANCH  25  26
ENDBRANCH  11  25
ENDBRANCH   7   8
ENDBRANCH   1   7
BRANCH   2  30
HETATM   30  O2  UNL     1     -22.948  -0.556   3.578  1.00  0.00    -0.390 OA
ATOM     31  H2  UNL     1     -23.214  -1.451   3.756  1.00  0.00     0.210 HD
ENDBRANCH   2  30
BRANCH   6  32
HETATM   32  O6  UNL     1     -23.889   3.040   5.146  1.00  0.00    -0.388 OA
ATOM     33  H6  UNL     1     -24.440   3.495   5.772  1.00  0.00     0.210 HD
ENDBRANCH   6  32
BRANCH   3  34
HETATM   34  C10 UNL     1     -22.781  -1.157   6.348  1.00  0.00     0.264 C 
BRANCH  34  35
HETATM   35  N3  UNL     1     -22.901  -2.575   6.199  1.00  0.00    -0.077 N 
ATOM     36  H33 UNL     1     -22.180  -3.046   6.746  1.00  0.00     0.274 HD
ATOM     37  H32 UNL     1     -23.738  -2.907   6.679  1.00  0.00     0.274 HD
ATOM     38  H31 UNL     1     -22.891  -2.917   5.238  1.00  0.00     0.274 HD
ENDBRANCH  34  35
ENDBRANCH   3  34
BRANCH   5  39
HETATM   39  O4  UNL     1     -24.629   2.524   7.568  1.00  0.00    -0.351 OA
BRANCH  39  40
HETATM   40  C12 UNL     1     -25.574   1.957   8.382  1.00  0.00     0.157 C 
HETATM   41  C13 UNL     1     -25.822   2.768   9.641  1.00  0.00     0.062 C 
HETATM   42  C14 UNL     1     -26.430   4.103   9.307  1.00  0.00     0.235 C 
HETATM   43  N4  UNL     1     -27.692   3.888   8.665  1.00  0.00    -0.069 N 
HETATM   44  C15 UNL     1     -27.570   3.146   7.439  1.00  0.00     0.212 C 
ATOM     45  H42 UNL     1     -28.355   3.441   9.299  1.00  0.00     0.277 HD
ATOM     46  H41 UNL     1     -28.180   4.770   8.512  1.00  0.00     0.277 HD
HETATM   47  C16 UNL     1     -28.965   2.891   6.904  1.00  0.00     0.043 C 
HETATM   48  C17 UNL     1     -26.889   1.825   7.605  1.00  0.00     0.177 C 
BRANCH  48  49
HETATM   49  O5  UNL     1     -27.724   0.992   8.346  1.00  0.00    -0.391 OA
ATOM     50  H5  UNL     1     -28.611   1.142   8.042  1.00  0.00     0.210 HD
ENDBRANCH  48  49
ENDBRANCH  39  40
ENDBRANCH   5  39
TORSDOF 17
ENDMDL
MODEL 2
REMARK VINA RESULT: -7.450442982      0.982      1.111
REMARK  17 active torsions:
REMARK  status: ('A' for Active; 'I' for Inactive)
REMARK    1  A    between atoms: C2_2  and  N1_3 
REMARK    2  A    between atoms: N1_3  and  C3_6 
REMARK    3  A    between atoms: C3_6  and  C4_7 
REMARK    4  A    between atoms: C4_7  and  N2_8 
REMARK    5  A    between atoms: N2_8  and  C5_11 
REMARK    6  A    between atoms: C6_12  and  O1_13 
REMARK    7  A    between atoms: O1_13  and  C7_14 
REMARK    8  A    between atoms: C8_15  and  O2_16 
REMARK    9  A    between atoms: C9_18  and  C10_19 
REMARK   10  A    between atoms: C10_19  and  N3_20 
REMARK   11  A    between atoms: C11_25  and  O4_26 
REMARK   12  A    between atoms: O4_26  and  C12_27 
REMARK   13  A    between atoms: C17_35  and  O5_36 
REMARK   14  A    between atoms: C18_38  and  O6_39 
REMARK   15  A    between atoms: C19_42  and  C20_43 
REMARK   16  A    between atoms: C20_43  and  N5_44 
REMARK   17  A    between atoms: C21_48  and  O8_49 
ROOT
HETATM    1  C7  UNL     1     -22.312   1.210   5.194  1.00  0.00     0.189 C 
HETATM    2  C8  UNL     1     -23.395   0.326   4.669  1.00  0.00     0.180 C 
HETATM    3  C9  UNL     1     -24.011  -0.441   5.802  1.00  0.00     0.181 C 
HETATM    4  O3  UNL     1     -24.614   0.379   6.737  1.00  0.00    -0.349 OA
HETATM    5  C11 UNL     1     -23.853   1.415   7.190  1.00  0.00     0.292 C 
HETATM    6  C18 UNL     1     -23.001   2.129   6.214  1.00  0.00     0.205 C 
ENDROOT
BRANCH   1   7
HETATM    7  O1  UNL     1     -21.788   2.061   4.221  1.00  0.00    -0.348 OA
BRANCH   7   8
HETATM    8  C6  UNL     1     -21.031   1.420   3.280  1.00  0.00     0.294 C 
HETATM    9  C5  UNL     1     -19.878   2.303   2.774  1.00  0.00     0.271 C 
HETATM   10  C21 UNL     1     -19.496   1.491   1.548  1.00  0.00     0.184 C 
HETATM   11  C19 UNL     1     -20.870   1.071   1.070  1.00  0.00     0.181 C 
HETATM   12  O7  UNL     1     -21.757   1.268   2.093  1.00  0.00    -0.349 OA
BRANCH   9  13
HETATM   13  N2  UNL     1     -20.382   3.586   2.342  1.00  0.00    -0.062 N 
ATOM     14  H22 UNL     1     -20.833   4.091   3.105  1.00  0.00     0.277 HD
ATOM     15  H21 UNL     1     -21.189   3.487   1.725  1.00  0.00     0.277 HD
BRANCH  13  16
HETATM   16  C4  UNL     1     -19.345   4.360   1.737  1.00  0.00     0.260 C 
BRANCH  16  17
HETATM   17  C3  UNL     1     -19.341   5.800   2.198  1.00  0.00     0.259 C 
BRANCH  17  18
HETATM   18  N1  UNL     1     -20.535   6.177   2.887  1.00  0.00    -0.074 N 
ATOM     19  H12 UNL     1     -21.038   5.379   3.276  1.00  0.00     0.277 HD
ATOM     20  H11 UNL     1     -21.269   6.503   2.258  1.00  0.00     0.277 HD
BRANCH  18  21
HETATM   21  C2  UNL     1     -20.173   7.162   3.892  1.00  0.00     0.228 C 
HETATM   22  C1  UNL     1     -18.832   7.793   3.621  1.00  0.00     0.034 C 
ENDBRANCH  18  21
ENDBRANCH  17  18
ENDBRANCH  16  17
ENDBRANCH  13  16
ENDBRANCH   9  13
BRANCH  10  23
HETATM   23  O8  UNL     1     -18.845   0.340   2.015  1.00  0.00    -0.391 OA
ATOM     24  H8  UNL     1     -17.920   0.552   2.064  1.00  0.00     0.210 HD
ENDBRANCH  10  23
BRANCH  11  25
HETATM   25  C20 UNL     1     -20.878  -0.308   0.487  1.00  0.00     0.264 C 
BRANCH  25  26
HETATM   26  N5  UNL     1     -21.494  -1.220   1.424  1.00  0.00    -0.077 N 
ATOM     27  H53 UNL     1     -20.824  -1.882   1.815  1.00  0.00     0.274 HD
ATOM     28  H52 UNL     1     -21.765  -0.758   2.291  1.00  0.00     0.274 HD
ATOM     29  H51 UNL     1     -22.280  -1.687   0.972  1.00  0.00     0.274 HD
ENDBRANCH  25  26
ENDBRANCH  11  25
ENDBRANCH   7   8
ENDBRANCH   1   7
BRANCH   2  30
HETATM   30  O2  UNL     1     -23.010  -0.573   3.694  1.00  0.00    -0.390 OA
ATOM     31  H2  UNL     1     -22.983  -1.484   3.962  1.00  0.00     0.210 HD
ENDBRANCH   2  30
BRANCH   6  32
HETATM   32  O6  UNL     1     -23.833   2.966   5.445  1.00  0.00    -0.388 OA
ATOM     33  H6  UNL     1     -23.539   2.849   4.550  1.00  0.00     0.210 HD
ENDBRANCH   6  32
BRANCH   3  34
HETATM   34  C10 UNL     1     -22.981  -1.346   6.426  1.00  0.00     0.264 C 
BRANCH  34  35
HETATM   35  N3  UNL     1     -23.059  -2.722   6.042  1.00  0.00    -0.077 N 
ATOM     36  H33 UNL     1     -23.982  -3.095   6.263  1.00  0.00     0.274 HD
ATOM     37  H32 UNL     1     -23.071  -2.801   5.026  1.00  0.00     0.274 HD
ATOM     38  H31 UNL     1     -22.336  -3.327   6.431  1.00  0.00     0.274 HD
ENDBRANCH  34  35
ENDBRANCH   3  34
BRANCH   5  39
HETATM   39  O4  UNL     1     -24.691   2.346   7.803  1.00  0.00    -0.351 OA
BRANCH  39  40
HETATM   40  C12 UNL     1     -25.714   1.781   8.518  1.00  0.00     0.157 C 
HETATM   41  C13 UNL     1     -25.996   2.518   9.814  1.00  0.00     0.062 C 
HETATM   42  C14 UNL     1     -26.509   3.906   9.541  1.00  0.00     0.235 C 
HETATM   43  N4  UNL     1     -27.739   3.808   8.812  1.00  0.00    -0.069 N 
HETATM   44  C15 UNL     1     -27.581   3.145   7.545  1.00  0.00     0.212 C 
ATOM     45  H42 UNL     1     -28.463   3.359   9.373  1.00  0.00     0.277 HD
ATOM     46  H41 UNL     1     -28.168   4.726   8.693  1.00  0.00     0.277 HD
HETATM   47  C16 UNL     1     -28.951   3.009   6.913  1.00  0.00     0.043 C 
HETATM   48  C17 UNL     1     -26.984   1.779   7.657  1.00  0.00     0.177 C 
BRANCH  48  49
HETATM   49  O5  UNL     1     -27.907   0.948   8.287  1.00  0.00    -0.391 OA
ATOM     50  H5  UNL     1     -27.721   0.059   8.008  1.00  0.00     0.210 HD
ENDBRANCH  48  49
ENDBRANCH  39  40
ENDBRANCH   5  39
TORSDOF 17
ENDMDL
MODEL 3
REMARK VINA RESULT: -7.362190358      2.069      2.334
REMARK  17 active torsions:
REMARK  status: ('A' for Active; 'I' for Inactive)
REMARK    1  A    between atoms: C2_2  and  N1_3 
REMARK    2  A    between atoms: N1_3  and  C3_6 
REMARK    3  A    between atoms: C3_6  and  C4_7 
REMARK    4  A    between atoms: C4_7  and  N2_8 
REMARK    5  A    between atoms: N2_8  and  C5_11 
REMARK    6  A    between atoms: C6_12  and  O1_13 
REMARK    7  A    between atoms: O1_13  and  C7_14 
REMARK    8  A    between atoms: C8_15  and  O2_16 
REMARK    9  A    between atoms: C9_18  and  C10_19 
REMARK   10  A    between atoms: C10_19  and  N3_20 
REMARK   11  A    between atoms: C11_25  and  O4_26 
REMARK   12  A    between atoms: O4_26  and  C12_27 
REMARK   13  A    between atoms: C17_35  and  O5_36 
REMARK   14  A    between atoms: C18_38  and  O6_39 
REMARK   15  A    between atoms: C19_42  and  C20_43 
REMARK   16  A    between atoms: C20_43  and  N5_44 
REMARK   17  A    between atoms: C21_48  and  O8_49 
ROOT
HETATM    1  C7  UNL     1     -22.253   0.436   5.727  1.00  0.00     0.189 C 
HETATM    2  C8  UNL     1     -23.325  -0.273   4.965  1.00  0.00     0.180 C 
HETATM    3  C9  UNL     1     -24.304  -0.882   5.924  1.00  0.00     0.181 C 
HETATM    4  O3  UNL     1     -24.953   0.062   6.698  1.00  0.00    -0.349 OA
HETATM    5  C11 UNL     1     -24.147   0.972   7.316  1.00  0.00     0.292 C 
HETATM    6  C18 UNL     1     -22.986   1.496   6.563  1.00  0.00     0.205 C 
ENDROOT
BRANCH   1   7
HETATM    7  O1  UNL     1     -21.384   1.149   4.903  1.00  0.00    -0.348 OA
BRANCH   7   8
HETATM    8  C6  UNL     1     -21.504   0.838   3.576  1.00  0.00     0.294 C 
HETATM    9  C5  UNL     1     -20.138   0.566   2.925  1.00  0.00     0.271 C 
HETATM   10  C21 UNL     1     -20.567   0.627   1.469  1.00  0.00     0.184 C 
HETATM   11  C19 UNL     1     -21.563   1.766   1.535  1.00  0.00     0.181 C 
HETATM   12  O7  UNL     1     -21.898   1.965   2.846  1.00  0.00    -0.349 OA
BRANCH   9  13
HETATM   13  N2  UNL     1     -19.231   1.659   3.189  1.00  0.00    -0.062 N 
ATOM     14  H22 UNL     1     -19.027   1.750   4.184  1.00  0.00     0.277 HD
ATOM     15  H21 UNL     1     -19.678   2.564   3.040  1.00  0.00     0.277 HD
BRANCH  13  16
HETATM   16  C4  UNL     1     -18.038   1.525   2.414  1.00  0.00     0.260 C 
BRANCH  16  17
HETATM   17  C3  UNL     1     -17.439   2.857   2.022  1.00  0.00     0.259 C 
BRANCH  17  18
HETATM   18  N1  UNL     1     -18.419   3.836   1.668  1.00  0.00    -0.074 N 
ATOM     19  H12 UNL     1     -18.362   4.679   2.239  1.00  0.00     0.277 HD
ATOM     20  H11 UNL     1     -19.365   3.561   1.928  1.00  0.00     0.277 HD
BRANCH  18  21
HETATM   21  C2  UNL     1     -18.279   4.105   0.247  1.00  0.00     0.228 C 
HETATM   22  C1  UNL     1     -19.498   3.694  -0.539  1.00  0.00     0.034 C 
ENDBRANCH  18  21
ENDBRANCH  17  18
ENDBRANCH  16  17
ENDBRANCH  13  16
ENDBRANCH   9  13
BRANCH  10  23
HETATM   23  O8  UNL     1     -21.290  -0.547   1.214  1.00  0.00    -0.391 OA
ATOM     24  H8  UNL     1     -21.780  -0.396   0.414  1.00  0.00     0.210 HD
ENDBRANCH  10  23
BRANCH  11  25
HETATM   25  C20 UNL     1     -22.723   1.567   0.611  1.00  0.00     0.264 C 
BRANCH  25  26
HETATM   26  N5  UNL     1     -23.204   2.855   0.164  1.00  0.00    -0.077 N 
ATOM     27  H53 UNL     1     -23.501   3.446   0.940  1.00  0.00     0.274 HD
ATOM     28  H52 UNL     1     -22.453   3.447  -0.189  1.00  0.00     0.274 HD
ATOM     29  H51 UNL     1     -23.945   2.718  -0.523  1.00  0.00     0.274 HD
ENDBRANCH  25  26
ENDBRANCH  11  25
ENDBRANCH   7   8
ENDBRANCH   1   7
BRANCH   2  30
HETATM   30  O2  UNL     1     -22.890  -1.260   4.102  1.00  0.00    -0.390 OA
ATOM     31  H2  UNL     1     -22.927  -2.147   4.441  1.00  0.00     0.210 HD
ENDBRANCH   2  30
BRANCH   6  32
HETATM   32  O6  UNL     1     -23.465   2.431   5.626  1.00  0.00    -0.388 OA
ATOM     33  H6  UNL     1     -24.333   2.123   5.393  1.00  0.00     0.210 HD
ENDBRANCH   6  32
BRANCH   3  34
HETATM   34  C10 UNL     1     -23.615  -1.923   6.766  1.00  0.00     0.264 C 
BRANCH  34  35
HETATM   35  N3  UNL     1     -23.722  -3.268   6.290  1.00  0.00    -0.077 N 
ATOM     36  H33 UNL     1     -24.698  -3.562   6.291  1.00  0.00     0.274 HD
ATOM     37  H32 UNL     1     -23.523  -3.301   5.291  1.00  0.00     0.274 HD
ATOM     38  H31 UNL     1     -23.149  -3.954   6.783  1.00  0.00     0.274 HD
ENDBRANCH  34  35
ENDBRANCH   3  34
BRANCH   5  39
HETATM   39  O4  UNL     1     -24.929   2.053   7.722  1.00  0.00    -0.351 OA
BRANCH  39  40
HETATM   40  C12 UNL     1     -26.006   1.697   8.491  1.00  0.00     0.157 C 
HETATM   41  C13 UNL     1     -26.206   2.622   9.678  1.00  0.00     0.062 C 
HETATM   42  C14 UNL     1     -26.568   4.009   9.221  1.00  0.00     0.235 C 
HETATM   43  N4  UNL     1     -27.802   3.949   8.495  1.00  0.00    -0.069 N 
HETATM   44  C15 UNL     1     -27.717   3.114   7.327  1.00  0.00     0.212 C 
ATOM     45  H42 UNL     1     -28.570   3.655   9.100  1.00  0.00     0.277 HD
ATOM     46  H41 UNL     1     -28.131   4.884   8.253  1.00  0.00     0.277 HD
HETATM   47  C16 UNL     1     -29.095   3.043   6.700  1.00  0.00     0.043 C 
HETATM   48  C17 UNL     1     -27.269   1.719   7.622  1.00  0.00     0.177 C 
BRANCH  48  49
HETATM   49  O5  UNL     1     -28.276   1.079   8.342  1.00  0.00    -0.391 OA
ATOM     50  H5  UNL     1     -27.913   0.265   8.669  1.00  0.00     0.210 HD
ENDBRANCH  48  49
ENDBRANCH  39  40
ENDBRANCH   5  39
TORSDOF 17
ENDMDL
MODEL 4
REMARK VINA RESULT: -7.348555344      2.105      3.862
REMARK  17 active torsions:
REMARK  status: ('A' for Active; 'I' for Inactive)
REMARK    1  A    between atoms: C2_2  and  N1_3 
REMARK    2  A    between atoms: N1_3  and  C3_6 
REMARK    3  A    between atoms: C3_6  and  C4_7 
REMARK    4  A    between atoms: C4_7  and  N2_8 
REMARK    5  A    between atoms: N2_8  and  C5_11 
REMARK    6  A    between atoms: C6_12  and  O1_13 
REMARK    7  A    between atoms: O1_13  and  C7_14 
REMARK    8  A    between atoms: C8_15  and  O2_16 
REMARK    9  A    between atoms: C9_18  and  C10_19 
REMARK   10  A    between atoms: C10_19  and  N3_20 
REMARK   11  A    between atoms: C11_25  and  O4_26 
REMARK   12  A    between atoms: O4_26  and  C12_27 
REMARK   13  A    between atoms: C17_35  and  O5_36 
REMARK   14  A    between atoms: C18_38  and  O6_39 
REMARK   15  A    between atoms: C19_42  and  C20_43 
REMARK   16  A    between atoms: C20_43  and  N5_44 
REMARK   17  A    between atoms: C21_48  and  O8_49 
ROOT
HETATM    1  C7  UNL     1     -21.894   2.426   3.234  1.00  0.00     0.189 C 
HETATM    2  C8  UNL     1     -22.674   1.193   2.916  1.00  0.00     0.180 C 
HETATM    3  C9  UNL     1     -22.693   0.288   4.112  1.00  0.00     0.181 C 
HETATM    4  O3  UNL     1     -23.317   0.858   5.205  1.00  0.00    -0.349 OA
HETATM    5  C11 UNL     1     -22.899   2.113   5.534  1.00  0.00     0.292 C 
HETATM    6  C18 UNL     1     -22.612   3.060   4.435  1.00  0.00     0.205 C 
ENDROOT
BRANCH   1   7
HETATM    7  O1  UNL     1     -21.952   3.381   2.220  1.00  0.00    -0.348 OA
BRANCH   7   8
HETATM    8  C6  UNL     1     -20.735   3.672   1.668  1.00  0.00     0.294 C 
HETATM    9  C5  UNL     1     -20.734   3.470   0.143  1.00  0.00     0.271 C 
HETATM   10  C21 UNL     1     -19.232   3.504  -0.086  1.00  0.00     0.184 C 
HETATM   11  C19 UNL     1     -18.761   2.749   1.139  1.00  0.00     0.181 C 
HETATM   12  O7  UNL     1     -19.790   2.709   2.039  1.00  0.00    -0.349 OA
BRANCH   9  13
HETATM   13  N2  UNL     1     -21.224   2.152  -0.188  1.00  0.00    -0.062 N 
ATOM     14  H22 UNL     1     -22.219   2.057   0.016  1.00  0.00     0.277 HD
ATOM     15  H21 UNL     1     -20.867   1.444   0.454  1.00  0.00     0.277 HD
BRANCH  13  16
HETATM   16  C4  UNL     1     -20.930   1.830  -1.548  1.00  0.00     0.260 C 
BRANCH  16  17
HETATM   17  C3  UNL     1     -20.415   0.418  -1.719  1.00  0.00     0.259 C 
BRANCH  17  18
HETATM   18  N1  UNL     1     -20.436  -0.342  -0.509  1.00  0.00    -0.074 N 
ATOM     19  H12 UNL     1     -20.811   0.181   0.282  1.00  0.00     0.277 HD
ATOM     20  H11 UNL     1     -19.505  -0.510  -0.129  1.00  0.00     0.277 HD
BRANCH  18  21
HETATM   21  C2  UNL     1     -21.168  -1.570  -0.772  1.00  0.00     0.228 C 
HETATM   22  C1  UNL     1     -20.678  -2.277  -2.009  1.00  0.00     0.034 C 
ENDBRANCH  18  21
ENDBRANCH  17  18
ENDBRANCH  16  17
ENDBRANCH  13  16
ENDBRANCH   9  13
BRANCH  10  23
HETATM   23  O8  UNL     1     -18.833   4.840   0.067  1.00  0.00    -0.391 OA
ATOM     24  H8  UNL     1     -17.937   4.893  -0.245  1.00  0.00     0.210 HD
ENDBRANCH  10  23
BRANCH  11  25
HETATM   25  C20 UNL     1     -17.470   3.281   1.679  1.00  0.00     0.264 C 
BRANCH  25  26
HETATM   26  N5  UNL     1     -16.745   2.210   2.324  1.00  0.00    -0.077 N 
ATOM     27  H53 UNL     1     -17.072   2.040   3.275  1.00  0.00     0.274 HD
ATOM     28  H52 UNL     1     -16.970   1.298   1.928  1.00  0.00     0.274 HD
ATOM     29  H51 UNL     1     -15.745   2.412   2.289  1.00  0.00     0.274 HD
ENDBRANCH  25  26
ENDBRANCH  11  25
ENDBRANCH   7   8
ENDBRANCH   1   7
BRANCH   2  30
HETATM   30  O2  UNL     1     -22.227   0.468   1.829  1.00  0.00    -0.390 OA
ATOM     31  H2  UNL     1     -22.720  -0.320   1.631  1.00  0.00     0.210 HD
ENDBRANCH   2  30
BRANCH   6  32
HETATM   32  O6  UNL     1     -23.844   3.514   3.923  1.00  0.00    -0.388 OA
ATOM     33  H6  UNL     1     -24.407   3.603   4.683  1.00  0.00     0.210 HD
ENDBRANCH   6  32
BRANCH   3  34
HETATM   34  C10 UNL     1     -21.291  -0.161   4.435  1.00  0.00     0.264 C 
BRANCH  34  35
HETATM   35  N3  UNL     1     -20.749  -1.156   3.562  1.00  0.00    -0.077 N 
ATOM     36  H33 UNL     1     -19.730  -1.113   3.572  1.00  0.00     0.274 HD
ATOM     37  H32 UNL     1     -20.894  -2.085   3.957  1.00  0.00     0.274 HD
ATOM     38  H31 UNL     1     -21.090  -1.130   2.601  1.00  0.00     0.274 HD
ENDBRANCH  34  35
ENDBRANCH   3  34
BRANCH   5  39
HETATM   39  O4  UNL     1     -23.850   2.692   6.374  1.00  0.00    -0.351 OA
BRANCH  39  40
HETATM   40  C12 UNL     1     -24.574   1.782   7.098  1.00  0.00     0.157 C 
HETATM   41  C13 UNL     1     -24.240   1.817   8.579  1.00  0.00     0.062 C 
HETATM   42  C14 UNL     1     -24.651   3.130   9.190  1.00  0.00     0.235 C 
HETATM   43  N4  UNL     1     -26.069   3.279   9.053  1.00  0.00    -0.069 N 
HETATM   44  C15 UNL     1     -26.496   3.285   7.680  1.00  0.00     0.212 C 
ATOM     45  H42 UNL     1     -26.566   2.565   9.588  1.00  0.00     0.277 HD
ATOM     46  H41 UNL     1     -26.399   4.111   9.543  1.00  0.00     0.277 HD
HETATM   47  C16 UNL     1     -28.010   3.343   7.660  1.00  0.00     0.043 C 
HETATM   48  C17 UNL     1     -26.069   2.072   6.916  1.00  0.00     0.177 C 
BRANCH  48  49
HETATM   49  O5  UNL     1     -26.766   0.973   7.413  1.00  0.00    -0.391 OA
ATOM     50  H5  UNL     1     -27.689   1.197   7.399  1.00  0.00     0.210 HD
ENDBRANCH  48  49
ENDBRANCH  39  40
ENDBRANCH   5  39
TORSDOF 17
ENDMDL
MODEL 5
REMARK VINA RESULT: -7.309818200      2.402      3.463
REMARK  17 active torsions:
REMARK  status: ('A' for Active; 'I' for Inactive)
REMARK    1  A    between atoms: C2_2  and  N1_3 
REMARK    2  A    between atoms: N1_3  and  C3_6 
REMARK    3  A    between atoms: C3_6  and  C4_7 
REMARK    4  A    between atoms: C4_7  and  N2_8 
REMARK    5  A    between atoms: N2_8  and  C5_11 
REMARK    6  A    between atoms: C6_12  and  O1_13 
REMARK    7  A    between atoms: O1_13  and  C7_14 
REMARK    8  A    between atoms: C8_15  and  O2_16 
REMARK    9  A    between atoms: C9_18  and  C10_19 
REMARK   10  A    between atoms: C10_19  and  N3_20 
REMARK   11  A    between atoms: C11_25  and  O4_26 
REMARK   12  A    between atoms: O4_26  and  C12_27 
REMARK   13  A    between atoms: C17_35  and  O5_36 
REMARK   14  A    between atoms: C18_38  and  O6_39 
REMARK   15  A    between atoms: C19_42  and  C20_43 
REMARK   16  A    between atoms: C20_43  and  N5_44 
REMARK   17  A    between atoms: C21_48  and  O8_49 
ROOT
HETATM    1  C7  UNL     1     -21.806   2.570   3.119  1.00  0.00     0.189 C 
HETATM    2  C8  UNL     1     -22.505   1.341   2.637  1.00  0.00     0.180 C 
HETATM    3  C9  UNL     1     -22.684   0.384   3.778  1.00  0.00     0.181 C 
HETATM    4  O3  UNL     1     -23.477   0.898   4.787  1.00  0.00    -0.349 OA
HETATM    5  C11 UNL     1     -23.137   2.143   5.227  1.00  0.00     0.292 C 
HETATM    6  C18 UNL     1     -22.709   3.141   4.223  1.00  0.00     0.205 C 
ENDROOT
BRANCH   1   7
HETATM    7  O1  UNL     1     -21.731   3.567   2.147  1.00  0.00    -0.348 OA
BRANCH   7   8
HETATM    8  C6  UNL     1     -20.454   3.852   1.749  1.00  0.00     0.294 C 
HETATM    9  C5  UNL     1     -20.315   3.840   0.218  1.00  0.00     0.271 C 
HETATM   10  C21 UNL     1     -18.799   3.814   0.131  1.00  0.00     0.184 C 
HETATM   11  C19 UNL     1     -18.483   2.887   1.286  1.00  0.00     0.181 C 
HETATM   12  O7  UNL     1     -19.596   2.797   2.077  1.00  0.00    -0.349 OA
BRANCH   9  13
HETATM   13  N2  UNL     1     -20.832   2.604  -0.322  1.00  0.00    -0.062 N 
ATOM     14  H22 UNL     1     -21.551   2.200   0.279  1.00  0.00     0.277 HD
ATOM     15  H21 UNL     1     -20.146   1.851  -0.268  1.00  0.00     0.277 HD
BRANCH  13  16
HETATM   16  C4  UNL     1     -21.305   2.793  -1.657  1.00  0.00     0.260 C 
BRANCH  16  17
HETATM   17  C3  UNL     1     -22.806   2.648  -1.776  1.00  0.00     0.259 C 
BRANCH  17  18
HETATM   18  N1  UNL     1     -23.479   2.694  -0.516  1.00  0.00    -0.074 N 
ATOM     19  H12 UNL     1     -23.752   3.639  -0.246  1.00  0.00     0.277 HD
ATOM     20  H11 UNL     1     -22.860   2.504   0.272  1.00  0.00     0.277 HD
BRANCH  18  21
HETATM   21  C2  UNL     1     -24.606   1.778  -0.584  1.00  0.00     0.228 C 
HETATM   22  C1  UNL     1     -24.224   0.440  -1.163  1.00  0.00     0.034 C 
ENDBRANCH  18  21
ENDBRANCH  17  18
ENDBRANCH  16  17
ENDBRANCH  13  16
ENDBRANCH   9  13
BRANCH  10  23
HETATM   23  O8  UNL     1     -18.354   5.095   0.489  1.00  0.00    -0.391 OA
ATOM     24  H8  UNL     1     -19.124   5.650   0.523  1.00  0.00     0.210 HD
ENDBRANCH  10  23
BRANCH  11  25
HETATM   25  C20 UNL     1     -17.228   3.272   2.004  1.00  0.00     0.264 C 
BRANCH  25  26
HETATM   26  N5  UNL     1     -16.385   2.107   2.150  1.00  0.00    -0.077 N 
ATOM     27  H53 UNL     1     -16.518   1.437   1.393  1.00  0.00     0.274 HD
ATOM     28  H52 UNL     1     -15.401   2.318   1.986  1.00  0.00     0.274 HD
ATOM     29  H51 UNL     1     -16.543   1.689   3.067  1.00  0.00     0.274 HD
ENDBRANCH  25  26
ENDBRANCH  11  25
ENDBRANCH   7   8
ENDBRANCH   1   7
BRANCH   2  30
HETATM   30  O2  UNL     1     -21.887   0.671   1.600  1.00  0.00    -0.390 OA
ATOM     31  H2  UNL     1     -21.928  -0.277   1.641  1.00  0.00     0.210 HD
ENDBRANCH   2  30
BRANCH   6  32
HETATM   32  O6  UNL     1     -23.858   3.600   3.552  1.00  0.00    -0.388 OA
ATOM     33  H6  UNL     1     -24.557   3.538   4.192  1.00  0.00     0.210 HD
ENDBRANCH   6  32
BRANCH   3  34
HETATM   34  C10 UNL     1     -21.338  -0.060   4.288  1.00  0.00     0.264 C 
BRANCH  34  35
HETATM   35  N3  UNL     1     -20.655  -1.014   3.471  1.00  0.00    -0.077 N 
ATOM     36  H33 UNL     1     -21.114  -1.922   3.536  1.00  0.00     0.274 HD
ATOM     37  H32 UNL     1     -20.810  -0.803   2.485  1.00  0.00     0.274 HD
ATOM     38  H31 UNL     1     -19.656  -1.113   3.653  1.00  0.00     0.274 HD
ENDBRANCH  34  35
ENDBRANCH   3  34
BRANCH   5  39
HETATM   39  O4  UNL     1     -24.215   2.672   5.937  1.00  0.00    -0.351 OA
BRANCH  39  40
HETATM   40  C12 UNL     1     -24.744   1.809   6.861  1.00  0.00     0.157 C 
HETATM   41  C13 UNL     1     -23.927   1.750   8.139  1.00  0.00     0.062 C 
HETATM   42  C14 UNL     1     -23.964   3.070   8.859  1.00  0.00     0.235 C 
HETATM   43  N4  UNL     1     -25.320   3.365   9.215  1.00  0.00    -0.069 N 
HETATM   44  C15 UNL     1     -26.183   3.469   8.069  1.00  0.00     0.212 C 
ATOM     45  H42 UNL     1     -25.680   2.683   9.883  1.00  0.00     0.277 HD
ATOM     46  H41 UNL     1     -25.373   4.205   9.792  1.00  0.00     0.277 HD
HETATM   47  C16 UNL     1     -27.599   3.679   8.566  1.00  0.00     0.043 C 
HETATM   48  C17 UNL     1     -26.172   2.253   7.200  1.00  0.00     0.177 C 
BRANCH  48  49
HETATM   49  O5  UNL     1     -26.774   1.210   7.900  1.00  0.00    -0.391 OA
ATOM     50  H5  UNL     1     -26.738   1.433   8.822  1.00  0.00     0.210 HD
ENDBRANCH  48  49
ENDBRANCH  39  40
ENDBRANCH   5  39
TORSDOF 17
ENDMDL
