MODEL 1
REMARK VINA RESULT: -7.312431997      0.000      0.000
REMARK  16 active torsions:
REMARK  status: ('A' for Active; 'I' for Inactive)
REMARK    1  A    between atoms: O1_2  and  C2_3 
REMARK    2  A    between atoms: C4_6  and  S1_7 
REMARK    3  A    between atoms: C6_9  and  N1_10 
REMARK    4  A    between atoms: C7_14  and  O3_15 
REMARK    5  A    between atoms: C8_17  and  O4_18 
REMARK    6  A    between atoms: O4_18  and  C9_19 
REMARK    7  A    between atoms: C10_20  and  N2_21 
REMARK    8  A    between atoms: C11_25  and  N3_26 
REMARK    9  A    between atoms: C12_30  and  N4_31 
REMARK       I    between atoms: N4_31  and  C13_33 
REMARK       I    between atoms: C13_33  and  N5_34 
REMARK       I    between atoms: C13_33  and  N6_38 
REMARK   10  A    between atoms: N6_38  and  C14_41 
REMARK   11  A    between atoms: C14_41  and  C15_42 
REMARK   12  A    between atoms: C15_42  and  C16_43 
REMARK   13  A    between atoms: C16_43  and  C17_44 
REMARK   14  A    between atoms: C17_44  and  C18_45 
REMARK   15  A    between atoms: C18_45  and  N7_46 
REMARK   16  A    between atoms: C19_50  and  O5_51 
ROOT
HETATM    1  C9  UNL     1     -21.640   1.403   2.434  1.00  0.00     0.185 C 
HETATM    2  C10 UNL     1     -20.402   0.743   3.037  1.00  0.00     0.247 C 
HETATM    3  C11 UNL     1     -20.965  -0.439   3.791  1.00  0.00     0.241 C 
HETATM    4  C12 UNL     1     -22.400  -0.207   4.046  1.00  0.00     0.144 C 
HETATM    5  C19 UNL     1     -22.635   1.221   3.543  1.00  0.00     0.173 C 
ENDROOT
BRANCH   4   6
HETATM    6  N4  UNL     1     -22.920  -0.308   5.339  1.00  0.00    -0.365 N 
HETATM    7  C13 UNL     1     -23.818  -1.330   5.690  1.00  0.00     0.478 C 
HETATM    8  N5  UNL     1     -23.243  -2.629   5.616  1.00  0.00    -0.033 N 
HETATM    9  N6  UNL     1     -24.302  -1.181   7.079  1.00  0.00    -0.029 N 
ATOM     10  H53 UNL     1     -22.843  -2.797   4.692  1.00  0.00     0.278 HD
ATOM     11  H52 UNL     1     -22.393  -2.683   6.178  1.00  0.00     0.278 HD
ATOM     12  H51 UNL     1     -23.895  -3.371   5.870  1.00  0.00     0.278 HD
ATOM     13  H62 UNL     1     -24.887  -1.961   7.375  1.00  0.00     0.281 HD
ATOM     14  H61 UNL     1     -23.557  -1.296   7.766  1.00  0.00     0.281 HD
ATOM     15  H4  UNL     1     -22.641   0.375   6.044  1.00  0.00     0.157 HD
BRANCH   9  16
HETATM   16  C14 UNL     1     -24.971   0.086   7.198  1.00  0.00     0.237 C 
BRANCH  16  17
HETATM   17  C15 UNL     1     -24.640   0.722   8.515  1.00  0.00     0.028 C 
BRANCH  17  18
HETATM   18  C16 UNL     1     -25.807   1.386   9.165  1.00  0.00     0.003 C 
BRANCH  18  19
HETATM   19  C17 UNL     1     -25.585   2.870   9.372  1.00  0.00     0.027 C 
BRANCH  19  20
HETATM   20  C18 UNL     1     -26.884   3.592   9.021  1.00  0.00     0.229 C 
BRANCH  20  21
HETATM   21  N7  UNL     1     -27.481   4.089  10.250  1.00  0.00    -0.079 N 
ATOM     22  H73 UNL     1     -27.881   3.344  10.820  1.00  0.00     0.274 HD
ATOM     23  H72 UNL     1     -26.784   4.417  10.919  1.00  0.00     0.274 HD
ATOM     24  H71 UNL     1     -28.163   4.808  10.011  1.00  0.00     0.274 HD
ENDBRANCH  20  21
ENDBRANCH  19  20
ENDBRANCH  18  19
ENDBRANCH  17  18
ENDBRANCH  16  17
ENDBRANCH   9  16
ENDBRANCH   4   6
BRANCH   3  25
HETATM   25  N3  UNL     1     -20.863  -1.604   2.890  1.00  0.00    -0.071 N 
ATOM     26  H33 UNL     1     -20.485  -1.371   1.972  1.00  0.00     0.274 HD
ATOM     27  H32 UNL     1     -20.134  -2.263   3.165  1.00  0.00     0.274 HD
ATOM     28  H31 UNL     1     -21.791  -2.024   2.848  1.00  0.00     0.274 HD
ENDBRANCH   3  25
BRANCH   5  29
HETATM   29  O5  UNL     1     -22.298   2.111   4.561  1.00  0.00    -0.391 OA
ATOM     30  H5  UNL     1     -23.096   2.324   5.032  1.00  0.00     0.210 HD
ENDBRANCH   5  29
BRANCH   2  31
HETATM   31  N2  UNL     1     -19.734   1.598   3.983  1.00  0.00    -0.070 N 
ATOM     32  H23 UNL     1     -20.053   2.563   3.897  1.00  0.00     0.274 HD
ATOM     33  H22 UNL     1     -20.047   1.408   4.935  1.00  0.00     0.274 HD
ATOM     34  H21 UNL     1     -18.719   1.537   3.910  1.00  0.00     0.274 HD
ENDBRANCH   2  31
BRANCH   1  35
HETATM   35  O4  UNL     1     -21.450   2.733   2.220  1.00  0.00    -0.368 OA
BRANCH  35  36
HETATM   36  C8  UNL     1     -21.541   3.248   0.968  1.00  0.00     0.214 C 
HETATM   37  C2  UNL     1     -20.222   3.805   0.541  1.00  0.00     0.190 C 
HETATM   38  C3  UNL     1     -19.800   4.893   1.534  1.00  0.00     0.082 C 
HETATM   39  O2  UNL     1     -20.349   4.448  -0.666  1.00  0.00    -0.335 OA
HETATM   40  C4  UNL     1     -20.577   3.510  -1.660  1.00  0.00     0.219 C 
HETATM   41  C6  UNL     1     -21.951   2.918  -1.444  1.00  0.00     0.253 C 
HETATM   42  C7  UNL     1     -22.048   2.262  -0.063  1.00  0.00     0.186 C 
BRANCH  37  43
HETATM   43  O1  UNL     1     -19.221   2.833   0.457  1.00  0.00    -0.358 OA
HETATM   44  C1  UNL     1     -18.099   3.179   1.189  1.00  0.00     0.205 C 
ENDBRANCH  37  43
BRANCH  40  45
HETATM   45  S1  UNL     1     -20.687   4.457  -3.230  1.00  0.00    -0.140 SA
HETATM   46  C5  UNL     1     -19.563   3.794  -4.473  1.00  0.00     0.092 C 
ENDBRANCH  40  45
BRANCH  41  47
HETATM   47  N1  UNL     1     -22.287   2.018  -2.503  1.00  0.00    -0.069 N 
ATOM     48  H13 UNL     1     -21.556   1.323  -2.655  1.00  0.00     0.275 HD
ATOM     49  H12 UNL     1     -23.045   1.389  -2.238  1.00  0.00     0.275 HD
ATOM     50  H11 UNL     1     -22.503   2.532  -3.357  1.00  0.00     0.275 HD
ENDBRANCH  41  47
BRANCH  42  51
HETATM   51  O3  UNL     1     -23.411   1.997   0.088  1.00  0.00    -0.391 OA
ATOM     52  H3  UNL     1     -23.499   1.090  -0.180  1.00  0.00     0.210 HD
ENDBRANCH  42  51
ENDBRANCH  35  36
ENDBRANCH   1  35
TORSDOF 16
ENDMDL
MODEL 2
REMARK VINA RESULT: -7.208142235      1.167      1.350
REMARK  16 active torsions:
REMARK  status: ('A' for Active; 'I' for Inactive)
REMARK    1  A    between atoms: O1_2  and  C2_3 
REMARK    2  A    between atoms: C4_6  and  S1_7 
REMARK    3  A    between atoms: C6_9  and  N1_10 
REMARK    4  A    between atoms: C7_14  and  O3_15 
REMARK    5  A    between atoms: C8_17  and  O4_18 
REMARK    6  A    between atoms: O4_18  and  C9_19 
REMARK    7  A    between atoms: C10_20  and  N2_21 
REMARK    8  A    between atoms: C11_25  and  N3_26 
REMARK    9  A    between atoms: C12_30  and  N4_31 
REMARK       I    between atoms: N4_31  and  C13_33 
REMARK       I    between atoms: C13_33  and  N5_34 
REMARK       I    between atoms: C13_33  and  N6_38 
REMARK   10  A    between atoms: N6_38  and  C14_41 
REMARK   11  A    between atoms: C14_41  and  C15_42 
REMARK   12  A    between atoms: C15_42  and  C16_43 
REMARK   13  A    between atoms: C16_43  and  C17_44 
REMARK   14  A    between atoms: C17_44  and  C18_45 
REMARK   15  A    between atoms: C18_45  and  N7_46 
REMARK   16  A    between atoms: C19_50  and  O5_51 
ROOT
HETATM    1  C9  UNL     1     -22.120   1.169   3.009  1.00  0.00     0.185 C 
HETATM    2  C10 UNL     1     -21.010   0.248   3.509  1.00  0.00     0.247 C 
HETATM    3  C11 UNL     1     -21.733  -0.704   4.433  1.00  0.00     0.241 C 
HETATM    4  C12 UNL     1     -23.013  -0.096   4.844  1.00  0.00     0.144 C 
HETATM    5  C19 UNL     1     -22.958   1.312   4.245  1.00  0.00     0.173 C 
ENDROOT
BRANCH   4   6
HETATM    6  N4  UNL     1     -23.349   0.013   6.196  1.00  0.00    -0.365 N 
HETATM    7  C13 UNL     1     -24.588  -0.436   6.682  1.00  0.00     0.478 C 
HETATM    8  N5  UNL     1     -24.760  -1.843   6.558  1.00  0.00    -0.033 N 
HETATM    9  N6  UNL     1     -24.755  -0.133   8.119  1.00  0.00    -0.029 N 
ATOM     10  H53 UNL     1     -24.618  -2.143   5.593  1.00  0.00     0.278 HD
ATOM     11  H52 UNL     1     -23.992  -2.343   7.004  1.00  0.00     0.278 HD
ATOM     12  H51 UNL     1     -25.660  -2.168   6.910  1.00  0.00     0.278 HD
ATOM     13  H62 UNL     1     -25.612  -0.528   8.504  1.00  0.00     0.281 HD
ATOM     14  H61 UNL     1     -24.091  -0.640   8.704  1.00  0.00     0.281 HD
ATOM     15  H4  UNL     1     -22.679   0.428   6.844  1.00  0.00     0.157 HD
BRANCH   9  16
HETATM   16  C14 UNL     1     -24.674   1.291   8.300  1.00  0.00     0.237 C 
BRANCH  16  17
HETATM   17  C15 UNL     1     -25.754   1.754   9.230  1.00  0.00     0.028 C 
BRANCH  17  18
HETATM   18  C16 UNL     1     -25.707   3.219   9.514  1.00  0.00     0.003 C 
BRANCH  18  19
HETATM   19  C17 UNL     1     -27.047   3.891   9.300  1.00  0.00     0.027 C 
BRANCH  19  20
HETATM   20  C18 UNL     1     -27.255   4.053   7.795  1.00  0.00     0.229 C 
BRANCH  20  21
HETATM   21  N7  UNL     1     -28.482   3.369   7.424  1.00  0.00    -0.079 N 
ATOM     22  H73 UNL     1     -28.918   2.891   8.213  1.00  0.00     0.274 HD
ATOM     23  H72 UNL     1     -29.243   4.015   7.214  1.00  0.00     0.274 HD
ATOM     24  H71 UNL     1     -28.279   2.738   6.648  1.00  0.00     0.274 HD
ENDBRANCH  20  21
ENDBRANCH  19  20
ENDBRANCH  18  19
ENDBRANCH  17  18
ENDBRANCH  16  17
ENDBRANCH   9  16
ENDBRANCH   4   6
BRANCH   3  25
HETATM   25  N3  UNL     1     -22.053  -1.905   3.637  1.00  0.00    -0.071 N 
ATOM     26  H33 UNL     1     -21.699  -1.862   2.681  1.00  0.00     0.274 HD
ATOM     27  H32 UNL     1     -21.532  -2.733   3.928  1.00  0.00     0.274 HD
ATOM     28  H31 UNL     1     -23.065  -2.028   3.686  1.00  0.00     0.274 HD
ENDBRANCH   3  25
BRANCH   5  29
HETATM   29  O5  UNL     1     -22.267   2.142   5.127  1.00  0.00    -0.391 OA
ATOM     30  H5  UNL     1     -21.594   1.618   5.546  1.00  0.00     0.210 HD
ENDBRANCH   5  29
BRANCH   2  31
HETATM   31  N2  UNL     1     -20.022   0.954   4.282  1.00  0.00    -0.070 N 
ATOM     32  H23 UNL     1     -20.154   1.963   4.216  1.00  0.00     0.274 HD
ATOM     33  H22 UNL     1     -20.182   0.834   5.282  1.00  0.00     0.274 HD
ATOM     34  H21 UNL     1     -19.070   0.689   4.027  1.00  0.00     0.274 HD
ENDBRANCH   2  31
BRANCH   1  35
HETATM   35  O4  UNL     1     -21.640   2.390   2.651  1.00  0.00    -0.368 OA
BRANCH  35  36
HETATM   36  C8  UNL     1     -21.472   2.708   1.342  1.00  0.00     0.214 C 
HETATM   37  C2  UNL     1     -20.065   3.145   1.093  1.00  0.00     0.190 C 
HETATM   38  C3  UNL     1     -19.761   4.359   1.977  1.00  0.00     0.082 C 
HETATM   39  O2  UNL     1     -19.932   3.597  -0.197  1.00  0.00    -0.335 OA
HETATM   40  C4  UNL     1     -20.038   2.524  -1.069  1.00  0.00     0.219 C 
HETATM   41  C6  UNL     1     -21.463   2.022  -1.029  1.00  0.00     0.253 C 
HETATM   42  C7  UNL     1     -21.847   1.593   0.390  1.00  0.00     0.186 C 
BRANCH  37  43
HETATM   43  O1  UNL     1     -19.129   2.137   1.341  1.00  0.00    -0.358 OA
HETATM   44  C1  UNL     1     -17.996   2.624   1.968  1.00  0.00     0.205 C 
ENDBRANCH  37  43
BRANCH  40  45
HETATM   45  S1  UNL     1     -19.803   3.219  -2.753  1.00  0.00    -0.140 SA
HETATM   46  C5  UNL     1     -21.149   4.333  -3.193  1.00  0.00     0.092 C 
ENDBRANCH  40  45
BRANCH  41  47
HETATM   47  N1  UNL     1     -21.659   0.981  -1.990  1.00  0.00    -0.069 N 
ATOM     48  H13 UNL     1     -22.347   1.244  -2.696  1.00  0.00     0.275 HD
ATOM     49  H12 UNL     1     -20.848   0.871  -2.599  1.00  0.00     0.275 HD
ATOM     50  H11 UNL     1     -21.907   0.107  -1.528  1.00  0.00     0.275 HD
ENDBRANCH  41  47
BRANCH  42  51
HETATM   51  O3  UNL     1     -23.230   1.402   0.321  1.00  0.00    -0.391 OA
ATOM     52  H3  UNL     1     -23.342   0.477   0.505  1.00  0.00     0.210 HD
ENDBRANCH  42  51
ENDBRANCH  35  36
ENDBRANCH   1  35
TORSDOF 16
ENDMDL
MODEL 3
REMARK VINA RESULT: -7.020195714      1.605      2.017
REMARK  16 active torsions:
REMARK  status: ('A' for Active; 'I' for Inactive)
REMARK    1  A    between atoms: O1_2  and  C2_3 
REMARK    2  A    between atoms: C4_6  and  S1_7 
REMARK    3  A    between atoms: C6_9  and  N1_10 
REMARK    4  A    between atoms: C7_14  and  O3_15 
REMARK    5  A    between atoms: C8_17  and  O4_18 
REMARK    6  A    between atoms: O4_18  and  C9_19 
REMARK    7  A    between atoms: C10_20  and  N2_21 
REMARK    8  A    between atoms: C11_25  and  N3_26 
REMARK    9  A    between atoms: C12_30  and  N4_31 
REMARK       I    between atoms: N4_31  and  C13_33 
REMARK       I    between atoms: C13_33  and  N5_34 
REMARK       I    between atoms: C13_33  and  N6_38 
REMARK   10  A    between atoms: N6_38  and  C14_41 
REMARK   11  A    between atoms: C14_41  and  C15_42 
REMARK   12  A    between atoms: C15_42  and  C16_43 
REMARK   13  A    between atoms: C16_43  and  C17_44 
REMARK   14  A    between atoms: C17_44  and  C18_45 
REMARK   15  A    between atoms: C18_45  and  N7_46 
REMARK   16  A    between atoms: C19_50  and  O5_51 
ROOT
HETATM    1  C9  UNL     1     -21.922   0.304   2.917  1.00  0.00     0.185 C 
HETATM    2  C10 UNL     1     -21.066  -0.739   3.630  1.00  0.00     0.247 C 
HETATM    3  C11 UNL     1     -21.989  -1.285   4.693  1.00  0.00     0.241 C 
HETATM    4  C12 UNL     1     -23.078  -0.317   4.928  1.00  0.00     0.144 C 
HETATM    5  C19 UNL     1     -22.687   0.889   4.069  1.00  0.00     0.173 C 
ENDROOT
BRANCH   4   6
HETATM    6  N4  UNL     1     -23.363   0.136   6.219  1.00  0.00    -0.365 N 
HETATM    7  C13 UNL     1     -24.685   0.237   6.685  1.00  0.00     0.478 C 
HETATM    8  N5  UNL     1     -25.342  -1.022   6.778  1.00  0.00    -0.033 N 
HETATM    9  N6  UNL     1     -24.744   0.825   8.039  1.00  0.00    -0.029 N 
ATOM     10  H53 UNL     1     -25.307  -1.516   5.886  1.00  0.00     0.278 HD
ATOM     11  H52 UNL     1     -24.803  -1.672   7.351  1.00  0.00     0.278 HD
ATOM     12  H51 UNL     1     -26.301  -0.949   7.116  1.00  0.00     0.278 HD
ATOM     13  H62 UNL     1     -25.688   0.826   8.424  1.00  0.00     0.281 HD
ATOM     14  H61 UNL     1     -24.307   0.230   8.743  1.00  0.00     0.281 HD
ATOM     15  H4  UNL     1     -22.595   0.400   6.835  1.00  0.00     0.157 HD
BRANCH   9  16
HETATM   16  C14 UNL     1     -24.167   2.141   7.994  1.00  0.00     0.237 C 
BRANCH  16  17
HETATM   17  C15 UNL     1     -24.819   3.025   9.015  1.00  0.00     0.028 C 
BRANCH  17  18
HETATM   18  C16 UNL     1     -26.146   2.523   9.476  1.00  0.00     0.003 C 
BRANCH  18  19
HETATM   19  C17 UNL     1     -27.271   3.484   9.154  1.00  0.00     0.027 C 
BRANCH  19  20
HETATM   20  C18 UNL     1     -27.934   3.014   7.861  1.00  0.00     0.229 C 
BRANCH  20  21
HETATM   21  N7  UNL     1     -28.233   1.597   7.986  1.00  0.00    -0.079 N 
ATOM     22  H73 UNL     1     -29.174   1.424   8.339  1.00  0.00     0.274 HD
ATOM     23  H72 UNL     1     -28.337   1.137   7.082  1.00  0.00     0.274 HD
ATOM     24  H71 UNL     1     -27.512   1.165   8.564  1.00  0.00     0.274 HD
ENDBRANCH  20  21
ENDBRANCH  19  20
ENDBRANCH  18  19
ENDBRANCH  17  18
ENDBRANCH  16  17
ENDBRANCH   9  16
ENDBRANCH   4   6
BRANCH   3  25
HETATM   25  N3  UNL     1     -22.602  -2.507   4.135  1.00  0.00    -0.071 N 
ATOM     26  H33 UNL     1     -23.438  -2.322   3.581  1.00  0.00     0.274 HD
ATOM     27  H32 UNL     1     -22.047  -2.932   3.392  1.00  0.00     0.274 HD
ATOM     28  H31 UNL     1     -22.771  -3.135   4.921  1.00  0.00     0.274 HD
ENDBRANCH   3  25
BRANCH   5  29
HETATM   29  O5  UNL     1     -21.806   1.686   4.798  1.00  0.00    -0.391 OA
ATOM     30  H5  UNL     1     -22.023   1.586   5.718  1.00  0.00     0.210 HD
ENDBRANCH   5  29
BRANCH   2  31
HETATM   31  N2  UNL     1     -19.927  -0.153   4.289  1.00  0.00    -0.070 N 
ATOM     32  H23 UNL     1     -19.075  -0.674   4.083  1.00  0.00     0.274 HD
ATOM     33  H22 UNL     1     -19.676   0.741   3.866  1.00  0.00     0.274 HD
ATOM     34  H21 UNL     1     -20.068  -0.058   5.294  1.00  0.00     0.274 HD
ENDBRANCH   2  31
BRANCH   1  35
HETATM   35  O4  UNL     1     -21.162   1.278   2.347  1.00  0.00    -0.368 OA
BRANCH  35  36
HETATM   36  C8  UNL     1     -21.370   1.648   1.058  1.00  0.00     0.214 C 
HETATM   37  C2  UNL     1     -21.163   3.120   0.904  1.00  0.00     0.190 C 
HETATM   38  C3  UNL     1     -22.135   3.856   1.831  1.00  0.00     0.082 C 
HETATM   39  O2  UNL     1     -21.506   3.515  -0.365  1.00  0.00    -0.335 OA
HETATM   40  C4  UNL     1     -20.576   3.018  -1.265  1.00  0.00     0.219 C 
HETATM   41  C6  UNL     1     -20.731   1.515  -1.323  1.00  0.00     0.253 C 
HETATM   42  C7  UNL     1     -20.515   0.895   0.061  1.00  0.00     0.186 C 
BRANCH  37  43
HETATM   43  O1  UNL     1     -19.852   3.519   1.186  1.00  0.00    -0.358 OA
HETATM   44  C1  UNL     1     -19.815   4.672   1.948  1.00  0.00     0.205 C 
ENDBRANCH  37  43
BRANCH  40  45
HETATM   45  S1  UNL     1     -21.094   3.633  -2.916  1.00  0.00    -0.140 SA
HETATM   46  C5  UNL     1     -22.837   3.292  -3.224  1.00  0.00     0.092 C 
ENDBRANCH  40  45
BRANCH  41  47
HETATM   47  N1  UNL     1     -19.868   0.955  -2.315  1.00  0.00    -0.069 N 
ATOM     48  H13 UNL     1     -19.012   0.581  -1.905  1.00  0.00     0.275 HD
ATOM     49  H12 UNL     1     -20.246   0.089  -2.699  1.00  0.00     0.275 HD
ATOM     50  H11 UNL     1     -19.669   1.637  -3.047  1.00  0.00     0.275 HD
ENDBRANCH  41  47
BRANCH  42  51
HETATM   51  O3  UNL     1     -20.933  -0.430  -0.095  1.00  0.00    -0.391 OA
ATOM     52  H3  UNL     1     -20.452  -0.901   0.574  1.00  0.00     0.210 HD
ENDBRANCH  42  51
ENDBRANCH  35  36
ENDBRANCH   1  35
TORSDOF 16
ENDMDL
MODEL 4
REMARK VINA RESULT: -6.786981628      2.441      2.805
REMARK  16 active torsions:
REMARK  status: ('A' for Active; 'I' for Inactive)
REMARK    1  A    between atoms: O1_2  and  C2_3 
REMARK    2  A    between atoms: C4_6  and  S1_7 
REMARK    3  A    between atoms: C6_9  and  N1_10 
REMARK    4  A    between atoms: C7_14  and  O3_15 
REMARK    5  A    between atoms: C8_17  and  O4_18 
REMARK    6  A    between atoms: O4_18  and  C9_19 
REMARK    7  A    between atoms: C10_20  and  N2_21 
REMARK    8  A    between atoms: C11_25  and  N3_26 
REMARK    9  A    between atoms: C12_30  and  N4_31 
REMARK       I    between atoms: N4_31  and  C13_33 
REMARK       I    between atoms: C13_33  and  N5_34 
REMARK       I    between atoms: C13_33  and  N6_38 
REMARK   10  A    between atoms: N6_38  and  C14_41 
REMARK   11  A    between atoms: C14_41  and  C15_42 
REMARK   12  A    between atoms: C15_42  and  C16_43 
REMARK   13  A    between atoms: C16_43  and  C17_44 
REMARK   14  A    between atoms: C17_44  and  C18_45 
REMARK   15  A    between atoms: C18_45  and  N7_46 
REMARK   16  A    between atoms: C19_50  and  O5_51 
ROOT
HETATM    1  C9  UNL     1     -20.952   0.169   1.331  1.00  0.00     0.185 C 
HETATM    2  C10 UNL     1     -19.996   1.038   2.143  1.00  0.00     0.247 C 
HETATM    3  C11 UNL     1     -19.976   0.368   3.497  1.00  0.00     0.241 C 
HETATM    4  C12 UNL     1     -21.177  -0.478   3.632  1.00  0.00     0.144 C 
HETATM    5  C19 UNL     1     -21.983  -0.175   2.365  1.00  0.00     0.173 C 
ENDROOT
BRANCH   4   6
HETATM    6  N4  UNL     1     -22.024  -0.344   4.735  1.00  0.00    -0.365 N 
HETATM    7  C13 UNL     1     -23.171  -1.143   4.879  1.00  0.00     0.478 C 
HETATM    8  N5  UNL     1     -22.873  -2.525   5.037  1.00  0.00    -0.033 N 
HETATM    9  N6  UNL     1     -23.959  -0.760   6.070  1.00  0.00    -0.029 N 
ATOM     10  H53 UNL     1     -22.290  -2.861   4.270  1.00  0.00     0.278 HD
ATOM     11  H52 UNL     1     -22.228  -2.671   5.814  1.00  0.00     0.278 HD
ATOM     12  H51 UNL     1     -23.706  -3.105   5.141  1.00  0.00     0.278 HD
ATOM     13  H62 UNL     1     -24.747  -1.385   6.235  1.00  0.00     0.281 HD
ATOM     14  H61 UNL     1     -23.457  -0.934   6.941  1.00  0.00     0.281 HD
ATOM     15  H4  UNL     1     -21.805   0.349   5.450  1.00  0.00     0.157 HD
BRANCH   9  16
HETATM   16  C14 UNL     1     -24.364   0.612   5.931  1.00  0.00     0.237 C 
BRANCH  16  17
HETATM   17  C15 UNL     1     -23.973   1.391   7.151  1.00  0.00     0.028 C 
BRANCH  17  18
HETATM   18  C16 UNL     1     -24.227   0.662   8.429  1.00  0.00     0.003 C 
BRANCH  18  19
HETATM   19  C17 UNL     1     -25.622   0.905   8.964  1.00  0.00     0.027 C 
BRANCH  19  20
HETATM   20  C18 UNL     1     -25.754   2.396   9.271  1.00  0.00     0.229 C 
BRANCH  20  21
HETATM   21  N7  UNL     1     -27.166   2.718   9.391  1.00  0.00    -0.079 N 
ATOM     22  H73 UNL     1     -27.767   1.907   9.243  1.00  0.00     0.274 HD
ATOM     23  H72 UNL     1     -27.441   2.921  10.352  1.00  0.00     0.274 HD
ATOM     24  H71 UNL     1     -27.378   3.485   8.753  1.00  0.00     0.274 HD
ENDBRANCH  20  21
ENDBRANCH  19  20
ENDBRANCH  18  19
ENDBRANCH  17  18
ENDBRANCH  16  17
ENDBRANCH   9  16
ENDBRANCH   4   6
BRANCH   3  25
HETATM   25  N3  UNL     1     -18.804  -0.528   3.510  1.00  0.00    -0.071 N 
ATOM     26  H33 UNL     1     -18.433  -0.720   2.579  1.00  0.00     0.274 HD
ATOM     27  H32 UNL     1     -17.966  -0.090   3.893  1.00  0.00     0.274 HD
ATOM     28  H31 UNL     1     -19.084  -1.370   4.013  1.00  0.00     0.274 HD
ENDBRANCH   3  25
BRANCH   5  29
HETATM   29  O5  UNL     1     -22.749   0.968   2.590  1.00  0.00    -0.391 OA
ATOM     30  H5  UNL     1     -23.542   0.698   3.040  1.00  0.00     0.210 HD
ENDBRANCH   5  29
BRANCH   2  31
HETATM   31  N2  UNL     1     -20.490   2.379   2.317  1.00  0.00    -0.070 N 
ATOM     32  H23 UNL     1     -19.853   3.062   1.908  1.00  0.00     0.274 HD
ATOM     33  H22 UNL     1     -21.307   2.549   1.731  1.00  0.00     0.274 HD
ATOM     34  H21 UNL     1     -20.686   2.595   3.294  1.00  0.00     0.274 HD
ENDBRANCH   2  31
BRANCH   1  35
HETATM   35  O4  UNL     1     -21.543   0.871   0.327  1.00  0.00    -0.368 OA
BRANCH  35  36
HETATM   36  C8  UNL     1     -21.342   0.524  -0.969  1.00  0.00     0.214 C 
HETATM   37  C2  UNL     1     -21.050   1.737  -1.790  1.00  0.00     0.190 C 
HETATM   38  C3  UNL     1     -22.232   2.706  -1.678  1.00  0.00     0.082 C 
HETATM   39  O2  UNL     1     -20.983   1.403  -3.120  1.00  0.00    -0.335 OA
HETATM   40  C4  UNL     1     -19.841   0.648  -3.344  1.00  0.00     0.219 C 
HETATM   41  C6  UNL     1     -20.020  -0.691  -2.665  1.00  0.00     0.253 C 
HETATM   42  C7  UNL     1     -20.252  -0.509  -1.162  1.00  0.00     0.186 C 
BRANCH  37  43
HETATM   43  O1  UNL     1     -19.873   2.387  -1.405  1.00  0.00    -0.358 OA
HETATM   44  C1  UNL     1     -20.103   3.700  -1.036  1.00  0.00     0.205 C 
ENDBRANCH  37  43
BRANCH  40  45
HETATM   45  S1  UNL     1     -19.818   0.292  -5.145  1.00  0.00    -0.140 SA
HETATM   46  C5  UNL     1     -18.198   0.629  -5.858  1.00  0.00     0.092 C 
ENDBRANCH  40  45
BRANCH  41  47
HETATM   47  N1  UNL     1     -18.917  -1.554  -2.951  1.00  0.00    -0.069 N 
ATOM     48  H13 UNL     1     -18.026  -1.062  -2.887  1.00  0.00     0.275 HD
ATOM     49  H12 UNL     1     -18.769  -2.236  -2.207  1.00  0.00     0.275 HD
ATOM     50  H11 UNL     1     -19.037  -2.003  -3.858  1.00  0.00     0.275 HD
ENDBRANCH  41  47
BRANCH  42  51
HETATM   51  O3  UNL     1     -20.646  -1.777  -0.727  1.00  0.00    -0.391 OA
ATOM     52  H3  UNL     1     -21.201  -1.600   0.023  1.00  0.00     0.210 HD
ENDBRANCH  42  51
ENDBRANCH  35  36
ENDBRANCH   1  35
TORSDOF 16
ENDMDL
MODEL 5
REMARK VINA RESULT: -6.697679585      2.900      4.793
REMARK  16 active torsions:
REMARK  status: ('A' for Active; 'I' for Inactive)
REMARK    1  A    between atoms: O1_2  and  C2_3 
REMARK    2  A    between atoms: C4_6  and  S1_7 
REMARK    3  A    between atoms: C6_9  and  N1_10 
REMARK    4  A    between atoms: C7_14  and  O3_15 
REMARK    5  A    between atoms: C8_17  and  O4_18 
REMARK    6  A    between atoms: O4_18  and  C9_19 
REMARK    7  A    between atoms: C10_20  and  N2_21 
REMARK    8  A    between atoms: C11_25  and  N3_26 
REMARK    9  A    between atoms: C12_30  and  N4_31 
REMARK       I    between atoms: N4_31  and  C13_33 
REMARK       I    between atoms: C13_33  and  N5_34 
REMARK       I    between atoms: C13_33  and  N6_38 
REMARK   10  A    between atoms: N6_38  and  C14_41 
REMARK   11  A    between atoms: C14_41  and  C15_42 
REMARK   12  A    between atoms: C15_42  and  C16_43 
REMARK   13  A    between atoms: C16_43  and  C17_44 
REMARK   14  A    between atoms: C17_44  and  C18_45 
REMARK   15  A    between atoms: C18_45  and  N7_46 
REMARK   16  A    between atoms: C19_50  and  O5_51 
ROOT
HETATM    1  C9  UNL     1     -20.043   2.335  -0.321  1.00  0.00     0.185 C 
HETATM    2  C10 UNL     1     -19.802   3.707   0.303  1.00  0.00     0.247 C 
HETATM    3  C11 UNL     1     -19.091   3.385   1.597  1.00  0.00     0.241 C 
HETATM    4  C12 UNL     1     -19.351   1.976   1.950  1.00  0.00     0.144 C 
HETATM    5  C19 UNL     1     -20.360   1.514   0.894  1.00  0.00     0.173 C 
ENDROOT
BRANCH   4   6
HETATM    6  N4  UNL     1     -19.847   1.637   3.211  1.00  0.00    -0.365 N 
HETATM    7  C13 UNL     1     -20.103   0.300   3.563  1.00  0.00     0.478 C 
HETATM    8  N5  UNL     1     -18.930  -0.502   3.600  1.00  0.00    -0.033 N 
HETATM    9  N6  UNL     1     -20.708   0.195   4.907  1.00  0.00    -0.029 N 
ATOM     10  H53 UNL     1     -18.425  -0.450   2.714  1.00  0.00     0.278 HD
ATOM     11  H52 UNL     1     -18.228  -0.092   4.217  1.00  0.00     0.278 HD
ATOM     12  H51 UNL     1     -19.116  -1.472   3.854  1.00  0.00     0.278 HD
ATOM     13  H62 UNL     1     -20.821  -0.772   5.210  1.00  0.00     0.281 HD
ATOM     14  H61 UNL     1     -20.074   0.500   5.646  1.00  0.00     0.281 HD
ATOM     15  H4  UNL     1     -20.027   2.375   3.891  1.00  0.00     0.157 HD
BRANCH   9  16
HETATM   16  C14 UNL     1     -21.949   0.922   4.911  1.00  0.00     0.237 C 
BRANCH  16  17
HETATM   17  C15 UNL     1     -23.104  -0.031   4.828  1.00  0.00     0.028 C 
BRANCH  17  18
HETATM   18  C16 UNL     1     -24.132   0.189   5.888  1.00  0.00     0.003 C 
BRANCH  18  19
HETATM   19  C17 UNL     1     -24.613  -1.109   6.502  1.00  0.00     0.027 C 
BRANCH  19  20
HETATM   20  C18 UNL     1     -23.548  -2.173   6.245  1.00  0.00     0.229 C 
BRANCH  20  21
HETATM   21  N7  UNL     1     -24.183  -3.480   6.288  1.00  0.00    -0.079 N 
ATOM     22  H73 UNL     1     -25.199  -3.424   6.227  1.00  0.00     0.274 HD
ATOM     23  H72 UNL     1     -24.021  -4.022   5.439  1.00  0.00     0.274 HD
ATOM     24  H71 UNL     1     -23.867  -3.965   7.128  1.00  0.00     0.274 HD
ENDBRANCH  20  21
ENDBRANCH  19  20
ENDBRANCH  18  19
ENDBRANCH  17  18
ENDBRANCH  16  17
ENDBRANCH   9  16
ENDBRANCH   4   6
BRANCH   3  25
HETATM   25  N3  UNL     1     -17.645   3.510   1.328  1.00  0.00    -0.071 N 
ATOM     26  H33 UNL     1     -17.388   3.248   0.376  1.00  0.00     0.274 HD
ATOM     27  H32 UNL     1     -17.325   4.478   1.284  1.00  0.00     0.274 HD
ATOM     28  H31 UNL     1     -17.166   2.959   2.040  1.00  0.00     0.274 HD
ENDBRANCH   3  25
BRANCH   5  29
HETATM   29  O5  UNL     1     -21.639   1.868   1.319  1.00  0.00    -0.391 OA
ATOM     30  H5  UNL     1     -21.899   1.252   1.994  1.00  0.00     0.210 HD
ENDBRANCH   5  29
BRANCH   2  31
HETATM   31  N2  UNL     1     -21.031   4.383   0.628  1.00  0.00    -0.070 N 
ATOM     32  H23 UNL     1     -21.829   3.753   0.551  1.00  0.00     0.274 HD
ATOM     33  H22 UNL     1     -21.085   4.592   1.625  1.00  0.00     0.274 HD
ATOM     34  H21 UNL     1     -21.170   5.224   0.068  1.00  0.00     0.274 HD
ENDBRANCH   2  31
BRANCH   1  35
HETATM   35  O4  UNL     1     -21.122   2.340  -1.150  1.00  0.00    -0.368 OA
BRANCH  35  36
HETATM   36  C8  UNL     1     -20.967   2.546  -2.482  1.00  0.00     0.214 C 
HETATM   37  C2  UNL     1     -21.391   1.334  -3.245  1.00  0.00     0.190 C 
HETATM   38  C3  UNL     1     -20.544   0.141  -2.789  1.00  0.00     0.082 C 
HETATM   39  O2  UNL     1     -21.105   1.490  -4.578  1.00  0.00    -0.335 OA
HETATM   40  C4  UNL     1     -21.947   2.453  -5.115  1.00  0.00     0.219 C 
HETATM   41  C6  UNL     1     -21.569   3.793  -4.526  1.00  0.00     0.253 C 
HETATM   42  C7  UNL     1     -21.694   3.768  -3.000  1.00  0.00     0.186 C 
BRANCH  37  43
HETATM   43  O1  UNL     1     -22.748   1.035  -3.083  1.00  0.00    -0.358 OA
HETATM   44  C1  UNL     1     -22.952  -0.299  -2.779  1.00  0.00     0.205 C 
ENDBRANCH  37  43
BRANCH  40  45
HETATM   45  S1  UNL     1     -21.520   2.557  -6.899  1.00  0.00    -0.140 SA
HETATM   46  C5  UNL     1     -19.810   3.074  -7.133  1.00  0.00     0.092 C 
ENDBRANCH  40  45
BRANCH  41  47
HETATM   47  N1  UNL     1     -22.333   4.842  -5.123  1.00  0.00    -0.069 N 
ATOM     48  H13 UNL     1     -23.225   4.502  -5.484  1.00  0.00     0.275 HD
ATOM     49  H12 UNL     1     -22.689   5.495  -4.425  1.00  0.00     0.275 HD
ATOM     50  H11 UNL     1     -21.791   5.318  -5.844  1.00  0.00     0.275 HD
ENDBRANCH  41  47
BRANCH  42  51
HETATM   51  O3  UNL     1     -21.082   4.957  -2.593  1.00  0.00    -0.391 OA
ATOM     52  H3  UNL     1     -20.571   4.703  -1.833  1.00  0.00     0.210 HD
ENDBRANCH  42  51
ENDBRANCH  35  36
ENDBRANCH   1  35
TORSDOF 16
ENDMDL
