MODEL 1
REMARK VINA RESULT: -7.734093996      0.000      0.000
REMARK  6 active torsions:
REMARK  status: ('A' for Active; 'I' for Inactive)
REMARK    1  A    between atoms: N1_2  and  C2_4 
REMARK    2  A    between atoms: C5_13  and  N5_14 
REMARK    3  A    between atoms: N5_14  and  C6_16 
REMARK    4  A    between atoms: C7_19  and  N7_20 
REMARK    5  A    between atoms: C11_24  and  N8_25 
REMARK    6  A    between atoms: N8_25  and  C12_27 
ROOT
HETATM    1  C6  UNL     1      30.544  41.252  18.242  1.00  0.00     0.687 A 
HETATM    2  N6  UNL     1      29.370  41.074  17.638  1.00  0.00    -0.176 N 
ATOM      3  H6  UNL     1      28.571  41.604  17.985  1.00  0.00     0.186 HD
HETATM    4  C7  UNL     1      29.167  40.237  16.595  1.00  0.00     0.121 A 
HETATM    5  C10 UNL     1      30.257  39.534  16.143  1.00  0.00     0.097 A 
HETATM    6  C11 UNL     1      31.497  39.707  16.762  1.00  0.00     0.120 A 
HETATM    7  N10 UNL     1      31.624  40.551  17.788  1.00  0.00    -0.177 N 
ATOM      8  H10 UNL     1      32.532  40.672  18.236  1.00  0.00     0.186 HD
ENDROOT
BRANCH   1   9
HETATM    9  N5  UNL     1      30.653  42.062  19.223  1.00  0.00    -0.174 N 
ATOM     10  H5  UNL     1      30.702  43.067  19.057  1.00  0.00     0.186 HD
BRANCH   9  11
HETATM   11  C5  UNL     1      30.705  41.550  20.544  1.00  0.00     0.153 A 
HETATM   12  N4  UNL     1      29.623  41.112  21.219  1.00  0.00    -0.336 N 
HETATM   13  C4  UNL     1      29.690  40.633  22.466  1.00  0.00     0.183 A 
ATOM     14  H4  UNL     1      28.713  41.148  20.759  1.00  0.00     0.168 HD
HETATM   15  N3  UNL     1      30.872  40.575  23.091  1.00  0.00    -0.336 N 
HETATM   16  C3  UNL     1      31.993  40.986  22.503  1.00  0.00     0.153 A 
ATOM     17  H3  UNL     1      30.914  40.208  24.041  1.00  0.00     0.168 HD
HETATM   18  N2  UNL     1      33.290  41.059  22.841  1.00  0.00    -0.174 N 
HETATM   19  C15 UNL     1      31.916  41.486  21.198  1.00  0.00     0.138 A 
HETATM   20  C2  UNL     1      33.973  41.575  21.805  1.00  0.00     0.680 A 
ATOM     21  H2  UNL     1      33.689  40.772  23.734  1.00  0.00     0.186 HD
HETATM   22  N11 UNL     1      33.132  41.843  20.784  1.00  0.00    -0.184 N 
ATOM     23  H11 UNL     1      33.378  42.240  19.876  1.00  0.00     0.184 HD
BRANCH  20  24
HETATM   24  N1  UNL     1      35.235  41.805  21.733  1.00  0.00    -0.230 N 
HETATM   25  C1  UNL     1      36.133  41.022  22.535  1.00  0.00     0.165 C 
ATOM     26  H1  UNL     1      35.594  42.533  21.115  1.00  0.00     0.177 HD
ENDBRANCH  20  24
ENDBRANCH   9  11
ENDBRANCH   1   9
BRANCH   4  27
HETATM   27  N7  UNL     1      27.878  40.121  16.024  1.00  0.00    -0.376 N 
HETATM   28  C8  UNL     1      27.672  39.299  14.864  1.00  0.00     0.150 C 
HETATM   29  C9  UNL     1      26.772  40.833  16.611  1.00  0.00     0.150 C 
ENDBRANCH   4  27
BRANCH   6  30
HETATM   30  N8  UNL     1      32.606  38.986  16.282  1.00  0.00    -0.368 N 
ATOM     31  H8  UNL     1      33.047  38.295  16.889  1.00  0.00     0.161 HD
BRANCH  30  32
HETATM   32  C12 UNL     1      33.136  39.194  14.966  1.00  0.00     0.134 C 
HETATM   33  C13 UNL     1      33.486  40.582  14.558  1.00  0.00     0.259 C 
HETATM   34  N9  UNL     1      34.880  40.274  14.814  1.00  0.00    -0.071 N 
HETATM   35  C14 UNL     1      34.598  38.841  14.801  1.00  0.00     0.259 C 
ATOM     36  H92 UNL     1      35.598  40.650  14.195  1.00  0.00     0.277 HD
ATOM     37  H91 UNL     1      35.345  40.687  15.623  1.00  0.00     0.277 HD
ENDBRANCH  30  32
ENDBRANCH   6  30
TORSDOF 6
ENDMDL
MODEL 2
REMARK VINA RESULT: -7.560872126      0.894      1.227
REMARK  6 active torsions:
REMARK  status: ('A' for Active; 'I' for Inactive)
REMARK    1  A    between atoms: N1_2  and  C2_4 
REMARK    2  A    between atoms: C5_13  and  N5_14 
REMARK    3  A    between atoms: N5_14  and  C6_16 
REMARK    4  A    between atoms: C7_19  and  N7_20 
REMARK    5  A    between atoms: C11_24  and  N8_25 
REMARK    6  A    between atoms: N8_25  and  C12_27 
ROOT
HETATM    1  C6  UNL     1      30.780  40.973  18.114  1.00  0.00     0.687 A 
HETATM    2  N6  UNL     1      29.668  40.749  17.416  1.00  0.00    -0.176 N 
ATOM      3  H6  UNL     1      28.840  41.296  17.651  1.00  0.00     0.186 HD
HETATM    4  C7  UNL     1      29.563  39.844  16.417  1.00  0.00     0.121 A 
HETATM    5  C10 UNL     1      30.691  39.119  16.115  1.00  0.00     0.097 A 
HETATM    6  C11 UNL     1      31.867  39.340  16.834  1.00  0.00     0.120 A 
HETATM    7  N10 UNL     1      31.898  40.250  17.810  1.00  0.00    -0.177 N 
ATOM      8  H10 UNL     1      32.760  40.405  18.332  1.00  0.00     0.186 HD
ENDROOT
BRANCH   1   9
HETATM    9  N5  UNL     1      30.798  41.846  19.045  1.00  0.00    -0.174 N 
ATOM     10  H5  UNL     1      30.799  42.841  18.818  1.00  0.00     0.186 HD
BRANCH   9  11
HETATM   11  C5  UNL     1      30.815  41.419  20.397  1.00  0.00     0.153 A 
HETATM   12  N4  UNL     1      29.717  41.020  21.070  1.00  0.00    -0.336 N 
HETATM   13  C4  UNL     1      29.752  40.622  22.346  1.00  0.00     0.183 A 
ATOM     14  H4  UNL     1      28.820  41.023  20.584  1.00  0.00     0.168 HD
HETATM   15  N3  UNL     1      30.916  40.610  23.004  1.00  0.00    -0.336 N 
HETATM   16  C3  UNL     1      32.052  40.988  22.422  1.00  0.00     0.153 A 
ATOM     17  H3  UNL     1      30.934  40.304  23.977  1.00  0.00     0.168 HD
HETATM   18  N2  UNL     1      33.338  41.088  22.790  1.00  0.00    -0.174 N 
HETATM   19  C15 UNL     1      32.009  41.403  21.086  1.00  0.00     0.138 A 
HETATM   20  C2  UNL     1      34.048  41.541  21.741  1.00  0.00     0.680 A 
ATOM     21  H2  UNL     1      33.715  40.860  23.709  1.00  0.00     0.186 HD
HETATM   22  N11 UNL     1      33.235  41.739  20.683  1.00  0.00    -0.184 N 
ATOM     23  H11 UNL     1      33.503  42.078  19.759  1.00  0.00     0.184 HD
BRANCH  20  24
HETATM   24  N1  UNL     1      35.311  41.772  21.688  1.00  0.00    -0.230 N 
HETATM   25  C1  UNL     1      36.193  41.014  22.531  1.00  0.00     0.165 C 
ATOM     26  H1  UNL     1      35.681  42.483  21.058  1.00  0.00     0.177 HD
ENDBRANCH  20  24
ENDBRANCH   9  11
ENDBRANCH   1   9
BRANCH   4  27
HETATM   27  N7  UNL     1      28.333  39.683  15.737  1.00  0.00    -0.376 N 
HETATM   28  C8  UNL     1      27.203  40.500  16.083  1.00  0.00     0.150 C 
HETATM   29  C9  UNL     1      28.217  38.694  14.696  1.00  0.00     0.150 C 
ENDBRANCH   4  27
BRANCH   6  30
HETATM   30  N8  UNL     1      33.016  38.595  16.508  1.00  0.00    -0.368 N 
ATOM     31  H8  UNL     1      33.604  38.238  17.262  1.00  0.00     0.161 HD
BRANCH  30  32
HETATM   32  C12 UNL     1      33.386  38.323  15.150  1.00  0.00     0.134 C 
HETATM   33  C13 UNL     1      34.818  38.461  14.768  1.00  0.00     0.259 C 
HETATM   34  N9  UNL     1      34.945  37.018  14.842  1.00  0.00    -0.071 N 
HETATM   35  C14 UNL     1      33.494  36.857  14.796  1.00  0.00     0.259 C 
ATOM     36  H92 UNL     1      35.526  36.530  14.161  1.00  0.00     0.277 HD
ATOM     37  H91 UNL     1      35.473  36.599  15.609  1.00  0.00     0.277 HD
ENDBRANCH  30  32
ENDBRANCH   6  30
TORSDOF 6
ENDMDL
MODEL 3
REMARK VINA RESULT: -7.439370173      2.733      3.790
REMARK  6 active torsions:
REMARK  status: ('A' for Active; 'I' for Inactive)
REMARK    1  A    between atoms: N1_2  and  C2_4 
REMARK    2  A    between atoms: C5_13  and  N5_14 
REMARK    3  A    between atoms: N5_14  and  C6_16 
REMARK    4  A    between atoms: C7_19  and  N7_20 
REMARK    5  A    between atoms: C11_24  and  N8_25 
REMARK    6  A    between atoms: N8_25  and  C12_27 
ROOT
HETATM    1  C6  UNL     1      29.866  41.261  18.581  1.00  0.00     0.687 A 
HETATM    2  N6  UNL     1      28.607  40.978  18.251  1.00  0.00    -0.176 N 
ATOM      3  H6  UNL     1      28.220  40.089  18.569  1.00  0.00     0.186 HD
HETATM    4  C7  UNL     1      27.807  41.790  17.523  1.00  0.00     0.121 A 
HETATM    5  C10 UNL     1      28.348  42.983  17.107  1.00  0.00     0.097 A 
HETATM    6  C11 UNL     1      29.666  43.299  17.443  1.00  0.00     0.120 A 
HETATM    7  N10 UNL     1      30.398  42.448  18.165  1.00  0.00    -0.177 N 
ATOM      8  H10 UNL     1      31.360  42.685  18.407  1.00  0.00     0.186 HD
ENDROOT
BRANCH   1   9
HETATM    9  N5  UNL     1      30.557  40.440  19.272  1.00  0.00    -0.174 N 
ATOM     10  H5  UNL     1      31.046  39.669  18.817  1.00  0.00     0.186 HD
BRANCH   9  11
HETATM   11  C5  UNL     1      30.636  40.610  20.677  1.00  0.00     0.153 A 
HETATM   12  N4  UNL     1      29.593  40.433  21.512  1.00  0.00    -0.336 N 
HETATM   13  C4  UNL     1      29.686  40.599  22.836  1.00  0.00     0.183 A 
ATOM     14  H4  UNL     1      28.692  40.162  21.117  1.00  0.00     0.168 HD
HETATM   15  N3  UNL     1      30.856  40.954  23.378  1.00  0.00    -0.336 N 
HETATM   16  C3  UNL     1      31.940  41.152  22.632  1.00  0.00     0.153 A 
ATOM     17  H3  UNL     1      30.918  41.078  24.389  1.00  0.00     0.168 HD
HETATM   18  N2  UNL     1      33.217  41.500  22.857  1.00  0.00    -0.174 N 
HETATM   19  C15 UNL     1      31.836  40.977  21.247  1.00  0.00     0.138 A 
HETATM   20  C2  UNL     1      33.862  41.539  21.678  1.00  0.00     0.680 A 
ATOM     21  H2  UNL     1      33.627  41.702  23.768  1.00  0.00     0.186 HD
HETATM   22  N11 UNL     1      33.017  41.217  20.676  1.00  0.00    -0.184 N 
ATOM     23  H11 UNL     1      33.237  41.167  19.682  1.00  0.00     0.184 HD
BRANCH  20  24
HETATM   24  N1  UNL     1      35.096  41.831  21.467  1.00  0.00    -0.230 N 
HETATM   25  C1  UNL     1      36.099  41.284  22.337  1.00  0.00     0.165 C 
ATOM     26  H1  UNL     1      35.358  42.442  20.694  1.00  0.00     0.177 HD
ENDBRANCH  20  24
ENDBRANCH   9  11
ENDBRANCH   1   9
BRANCH   4  27
HETATM   27  N7  UNL     1      26.482  41.394  17.226  1.00  0.00    -0.376 N 
HETATM   28  C8  UNL     1      25.392  41.845  18.046  1.00  0.00     0.150 C 
HETATM   29  C9  UNL     1      26.231  40.534  16.099  1.00  0.00     0.150 C 
ENDBRANCH   4  27
BRANCH   6  30
HETATM   30  N8  UNL     1      30.203  44.528  17.017  1.00  0.00    -0.368 N 
ATOM     31  H8  UNL     1      31.057  44.873  17.456  1.00  0.00     0.161 HD
BRANCH  30  32
HETATM   32  C12 UNL     1      29.587  45.310  15.985  1.00  0.00     0.134 C 
HETATM   33  C13 UNL     1      28.819  46.522  16.382  1.00  0.00     0.259 C 
HETATM   34  N9  UNL     1      29.955  47.333  15.991  1.00  0.00    -0.071 N 
HETATM   35  C14 UNL     1      30.524  46.225  15.229  1.00  0.00     0.259 C 
ATOM     36  H92 UNL     1      29.797  48.229  15.530  1.00  0.00     0.277 HD
ATOM     37  H91 UNL     1      30.518  47.789  16.710  1.00  0.00     0.277 HD
ENDBRANCH  30  32
ENDBRANCH   6  30
TORSDOF 6
ENDMDL
MODEL 4
REMARK VINA RESULT: -7.297253926      2.230      4.792
REMARK  6 active torsions:
REMARK  status: ('A' for Active; 'I' for Inactive)
REMARK    1  A    between atoms: N1_2  and  C2_4 
REMARK    2  A    between atoms: C5_13  and  N5_14 
REMARK    3  A    between atoms: N5_14  and  C6_16 
REMARK    4  A    between atoms: C7_19  and  N7_20 
REMARK    5  A    between atoms: C11_24  and  N8_25 
REMARK    6  A    between atoms: N8_25  and  C12_27 
ROOT
HETATM    1  C6  UNL     1      29.792  41.771  18.389  1.00  0.00     0.687 A 
HETATM    2  N6  UNL     1      29.684  40.789  17.495  1.00  0.00    -0.176 N 
ATOM      3  H6  UNL     1      30.477  40.157  17.384  1.00  0.00     0.186 HD
HETATM    4  C7  UNL     1      28.593  40.573  16.725  1.00  0.00     0.121 A 
HETATM    5  C10 UNL     1      27.536  41.435  16.892  1.00  0.00     0.097 A 
HETATM    6  C11 UNL     1      27.629  42.470  17.824  1.00  0.00     0.120 A 
HETATM    7  N10 UNL     1      28.738  42.624  18.551  1.00  0.00    -0.177 N 
ATOM      8  H10 UNL     1      28.799  43.382  19.229  1.00  0.00     0.186 HD
ENDROOT
BRANCH   1   9
HETATM    9  N5  UNL     1      30.858  41.907  19.077  1.00  0.00    -0.174 N 
ATOM     10  H5  UNL     1      31.687  42.332  18.663  1.00  0.00     0.186 HD
BRANCH   9  11
HETATM   11  C5  UNL     1      30.876  41.463  20.424  1.00  0.00     0.153 A 
HETATM   12  N4  UNL     1      29.776  41.069  21.097  1.00  0.00    -0.336 N 
HETATM   13  C4  UNL     1      29.812  40.654  22.368  1.00  0.00     0.183 A 
ATOM     14  H4  UNL     1      28.877  41.089  20.615  1.00  0.00     0.168 HD
HETATM   15  N3  UNL     1      30.979  40.619  23.020  1.00  0.00    -0.336 N 
HETATM   16  C3  UNL     1      32.116  40.990  22.437  1.00  0.00     0.153 A 
ATOM     17  H3  UNL     1      30.998  40.300  23.989  1.00  0.00     0.168 HD
HETATM   18  N2  UNL     1      33.406  41.070  22.800  1.00  0.00    -0.174 N 
HETATM   19  C15 UNL     1      32.072  41.423  21.107  1.00  0.00     0.138 A 
HETATM   20  C2  UNL     1      34.116  41.527  21.753  1.00  0.00     0.680 A 
ATOM     21  H2  UNL     1      33.784  40.825  23.715  1.00  0.00     0.186 HD
HETATM   22  N11 UNL     1      33.301  41.749  20.702  1.00  0.00    -0.184 N 
ATOM     23  H11 UNL     1      33.569  42.097  19.781  1.00  0.00     0.184 HD
BRANCH  20  24
HETATM   24  N1  UNL     1      35.382  41.743  21.698  1.00  0.00    -0.230 N 
HETATM   25  C1  UNL     1      36.255  40.989  22.552  1.00  0.00     0.165 C 
ATOM     26  H1  UNL     1      35.760  42.440  21.056  1.00  0.00     0.177 HD
ENDBRANCH  20  24
ENDBRANCH   9  11
ENDBRANCH   1   9
BRANCH   4  27
HETATM   27  N7  UNL     1      28.581  39.500  15.804  1.00  0.00    -0.376 N 
HETATM   28  C8  UNL     1      29.601  38.490  15.856  1.00  0.00     0.150 C 
HETATM   29  C9  UNL     1      27.540  39.424  14.812  1.00  0.00     0.150 C 
ENDBRANCH   4  27
BRANCH   6  30
HETATM   30  N8  UNL     1      26.534  43.340  17.990  1.00  0.00    -0.368 N 
ATOM     31  H8  UNL     1      25.828  43.390  17.256  1.00  0.00     0.161 HD
BRANCH  30  32
HETATM   32  C12 UNL     1      26.383  44.157  19.158  1.00  0.00     0.134 C 
HETATM   33  C13 UNL     1      25.183  45.033  19.255  1.00  0.00     0.259 C 
HETATM   34  N9  UNL     1      24.581  44.061  20.146  1.00  0.00    -0.071 N 
HETATM   35  C14 UNL     1      25.877  43.432  20.386  1.00  0.00     0.259 C 
ATOM     36  H92 UNL     1      24.026  44.383  20.938  1.00  0.00     0.277 HD
ATOM     37  H91 UNL     1      23.801  43.492  19.816  1.00  0.00     0.277 HD
ENDBRANCH  30  32
ENDBRANCH   6  30
TORSDOF 6
ENDMDL
MODEL 5
REMARK VINA RESULT: -7.159640165      1.455      4.488
REMARK  6 active torsions:
REMARK  status: ('A' for Active; 'I' for Inactive)
REMARK    1  A    between atoms: N1_2  and  C2_4 
REMARK    2  A    between atoms: C5_13  and  N5_14 
REMARK    3  A    between atoms: N5_14  and  C6_16 
REMARK    4  A    between atoms: C7_19  and  N7_20 
REMARK    5  A    between atoms: C11_24  and  N8_25 
REMARK    6  A    between atoms: N8_25  and  C12_27 
ROOT
HETATM    1  C6  UNL     1      30.090  41.580  18.563  1.00  0.00     0.687 A 
HETATM    2  N6  UNL     1      30.792  40.663  17.900  1.00  0.00    -0.176 N 
ATOM      3  H6  UNL     1      31.777  40.552  18.140  1.00  0.00     0.186 HD
HETATM    4  C7  UNL     1      30.286  39.869  16.929  1.00  0.00     0.121 A 
HETATM    5  C10 UNL     1      28.957  40.034  16.622  1.00  0.00     0.097 A 
HETATM    6  C11 UNL     1      28.203  40.989  17.306  1.00  0.00     0.120 A 
HETATM    7  N10 UNL     1      28.769  41.739  18.254  1.00  0.00    -0.177 N 
ATOM      8  H10 UNL     1      28.213  42.436  18.750  1.00  0.00     0.186 HD
ENDROOT
BRANCH   1   9
HETATM    9  N5  UNL     1      30.642  42.291  19.467  1.00  0.00    -0.174 N 
ATOM     10  H5  UNL     1      31.001  43.220  19.244  1.00  0.00     0.186 HD
BRANCH   9  11
HETATM   11  C5  UNL     1      30.750  41.779  20.785  1.00  0.00     0.153 A 
HETATM   12  N4  UNL     1      29.691  41.409  21.533  1.00  0.00    -0.336 N 
HETATM   13  C4  UNL     1      29.811  40.928  22.775  1.00  0.00     0.183 A 
ATOM     14  H4  UNL     1      28.756  41.500  21.134  1.00  0.00     0.168 HD
HETATM   15  N3  UNL     1      31.025  40.799  23.320  1.00  0.00    -0.336 N 
HETATM   16  C3  UNL     1      32.128  41.139  22.657  1.00  0.00     0.153 A 
ATOM     17  H3  UNL     1      31.108  40.430  24.268  1.00  0.00     0.168 HD
HETATM   18  N2  UNL     1      33.447  41.133  22.909  1.00  0.00    -0.174 N 
HETATM   19  C15 UNL     1      31.996  41.642  21.358  1.00  0.00     0.138 A 
HETATM   20  C2  UNL     1      34.090  41.606  21.826  1.00  0.00     0.680 A 
ATOM     21  H2  UNL     1      33.886  40.823  23.774  1.00  0.00     0.186 HD
HETATM   22  N11 UNL     1      33.201  41.923  20.862  1.00  0.00    -0.184 N 
ATOM     23  H11 UNL     1      33.410  42.303  19.938  1.00  0.00     0.184 HD
BRANCH  20  24
HETATM   24  N1  UNL     1      35.356  41.758  21.669  1.00  0.00    -0.230 N 
HETATM   25  C1  UNL     1      36.256  41.022  22.514  1.00  0.00     0.165 C 
ATOM     26  H1  UNL     1      35.717  42.391  20.957  1.00  0.00     0.177 HD
ENDBRANCH  20  24
ENDBRANCH   9  11
ENDBRANCH   1   9
BRANCH   4  27
HETATM   27  N7  UNL     1      31.119  38.924  16.284  1.00  0.00    -0.376 N 
HETATM   28  C8  UNL     1      30.810  37.523  16.350  1.00  0.00     0.150 C 
HETATM   29  C9  UNL     1      32.282  39.374  15.563  1.00  0.00     0.150 C 
ENDBRANCH   4  27
BRANCH   6  30
HETATM   30  N8  UNL     1      26.841  41.141  16.987  1.00  0.00    -0.368 N 
ATOM     31  H8  UNL     1      26.560  41.135  16.006  1.00  0.00     0.161 HD
BRANCH  30  32
HETATM   32  C12 UNL     1      25.836  41.303  17.997  1.00  0.00     0.134 C 
HETATM   33  C13 UNL     1      25.200  42.641  18.150  1.00  0.00     0.259 C 
HETATM   34  N9  UNL     1      24.049  42.143  17.420  1.00  0.00    -0.071 N 
HETATM   35  C14 UNL     1      24.471  40.762  17.636  1.00  0.00     0.259 C 
ATOM     36  H92 UNL     1      23.114  42.432  17.703  1.00  0.00     0.277 HD
ATOM     37  H91 UNL     1      23.876  42.473  16.470  1.00  0.00     0.277 HD
ENDBRANCH  30  32
ENDBRANCH   6  30
TORSDOF 6
ENDMDL
