MODEL 1
REMARK VINA RESULT: -6.116504882      0.000      0.000
REMARK  4 active torsions:
REMARK  status: ('A' for Active; 'I' for Inactive)
REMARK    1  A    between atoms: N1_1  and  C1_4 
REMARK    2  A    between atoms: C2_9  and  S1_10 
REMARK    3  A    between atoms: S1_10  and  N4_11 
REMARK    4  A    between atoms: S1_10  and  N5_14 
ROOT
HETATM    1  C1  UNL     1      -1.884   8.826  11.929  1.00  0.00     0.693 A 
HETATM    2  N2  UNL     1      -0.559   9.002  11.663  1.00  0.00    -0.131 N 
ATOM      3  H2  UNL     1       0.143   8.592  12.279  1.00  0.00     0.205 HD
HETATM    4  N3  UNL     1      -0.179   9.704  10.605  1.00  0.00    -0.271 N 
ATOM      5  H3  UNL     1       0.802   9.857  10.371  1.00  0.00     0.188 HD
HETATM    6  C2  UNL     1      -1.166  10.190   9.878  1.00  0.00     0.211 A 
HETATM    7  C3  UNL     1      -2.512  10.072  10.049  1.00  0.00     0.299 A 
HETATM    8  O2  UNL     1      -3.291  10.615   9.210  1.00  0.00    -0.264 OA
HETATM    9  N6  UNL     1      -2.871   9.353  11.133  1.00  0.00    -0.153 N 
ATOM     10  H6  UNL     1      -3.855   9.205  11.356  1.00  0.00     0.187 HD
ENDROOT
BRANCH   6  11
HETATM   11  S1  UNL     1      -0.714  11.050   8.605  1.00  0.00     0.153 S 
HETATM   12  O1  UNL     1       0.726  10.597   8.788  1.00  0.00    -0.222 OA
BRANCH  11  13
HETATM   13  N4  UNL     1      -0.792  12.708   8.917  1.00  0.00    -0.340 N 
ATOM     14  H42 UNL     1      -1.654  13.250   8.863  1.00  0.00     0.167 HD
ATOM     15  H41 UNL     1       0.124  13.086   9.163  1.00  0.00     0.167 HD
ENDBRANCH  11  13
BRANCH  11  16
HETATM   16  N5  UNL     1      -1.391  10.544   7.151  1.00  0.00    -0.340 N 
ATOM     17  H52 UNL     1      -0.867   9.986   6.477  1.00  0.00     0.167 HD
ATOM     18  H51 UNL     1      -2.357  10.843   7.010  1.00  0.00     0.167 HD
ENDBRANCH  11  16
ENDBRANCH   6  11
BRANCH   1  19
HETATM   19  N1  UNL     1      -2.259   8.145  12.957  1.00  0.00    -0.233 N 
ATOM     20  H12 UNL     1      -1.531   7.675  13.494  1.00  0.00     0.174 HD
ATOM     21  H11 UNL     1      -3.246   8.090  13.210  1.00  0.00     0.174 HD
ENDBRANCH   1  19
TORSDOF 4
ENDMDL
MODEL 2
REMARK VINA RESULT: -5.833498869      2.286      2.465
REMARK  4 active torsions:
REMARK  status: ('A' for Active; 'I' for Inactive)
REMARK    1  A    between atoms: N1_1  and  C1_4 
REMARK    2  A    between atoms: C2_9  and  S1_10 
REMARK    3  A    between atoms: S1_10  and  N4_11 
REMARK    4  A    between atoms: S1_10  and  N5_14 
ROOT
HETATM    1  C1  UNL     1      -0.737   6.660  10.266  1.00  0.00     0.693 A 
HETATM    2  N2  UNL     1      -0.276   7.167   9.087  1.00  0.00    -0.131 N 
ATOM      3  H2  UNL     1       0.147   6.546   8.398  1.00  0.00     0.205 HD
HETATM    4  N3  UNL     1      -0.377   8.464   8.834  1.00  0.00    -0.271 N 
ATOM      5  H3  UNL     1      -0.047   8.880   7.964  1.00  0.00     0.188 HD
HETATM    6  C2  UNL     1      -0.938   9.174   9.793  1.00  0.00     0.211 A 
HETATM    7  C3  UNL     1      -1.433   8.773  10.997  1.00  0.00     0.299 A 
HETATM    8  O2  UNL     1      -1.949   9.634  11.770  1.00  0.00    -0.264 OA
HETATM    9  N6  UNL     1      -1.317   7.449  11.229  1.00  0.00    -0.153 N 
ATOM     10  H6  UNL     1      -1.654   7.042  12.102  1.00  0.00     0.187 HD
ENDROOT
BRANCH   6  11
HETATM   11  S1  UNL     1      -1.052  10.744   9.499  1.00  0.00     0.153 S 
HETATM   12  O1  UNL     1      -0.245  10.581   8.220  1.00  0.00    -0.222 OA
BRANCH  11  13
HETATM   13  N4  UNL     1      -0.135  11.648  10.592  1.00  0.00    -0.340 N 
ATOM     14  H42 UNL     1      -0.180  11.520  11.603  1.00  0.00     0.167 HD
ATOM     15  H41 UNL     1       0.457  12.326  10.112  1.00  0.00     0.167 HD
ENDBRANCH  11  13
BRANCH  11  16
HETATM   16  N5  UNL     1      -2.621  11.287   9.232  1.00  0.00    -0.340 N 
ATOM     17  H52 UNL     1      -3.409  10.958   9.790  1.00  0.00     0.167 HD
ATOM     18  H51 UNL     1      -2.709  11.963   8.473  1.00  0.00     0.167 HD
ENDBRANCH  11  16
ENDBRANCH   6  11
BRANCH   1  19
HETATM   19  N1  UNL     1      -0.640   5.400  10.518  1.00  0.00    -0.233 N 
ATOM     20  H12 UNL     1      -0.310   4.799   9.764  1.00  0.00     0.174 HD
ATOM     21  H11 UNL     1      -0.888   5.036  11.438  1.00  0.00     0.174 HD
ENDBRANCH   1  19
TORSDOF 4
ENDMDL
MODEL 3
REMARK VINA RESULT: -5.800953740      0.982      2.467
REMARK  4 active torsions:
REMARK  status: ('A' for Active; 'I' for Inactive)
REMARK    1  A    between atoms: N1_1  and  C1_4 
REMARK    2  A    between atoms: C2_9  and  S1_10 
REMARK    3  A    between atoms: S1_10  and  N4_11 
REMARK    4  A    between atoms: S1_10  and  N5_14 
ROOT
HETATM    1  C1  UNL     1      -0.908   8.713  12.091  1.00  0.00     0.693 A 
HETATM    2  N2  UNL     1      -1.991   9.539  12.041  1.00  0.00    -0.131 N 
ATOM      3  H2  UNL     1      -2.654   9.556  12.817  1.00  0.00     0.205 HD
HETATM    4  N3  UNL     1      -2.187  10.320  10.988  1.00  0.00    -0.271 N 
ATOM      5  H3  UNL     1      -2.984  10.952  10.915  1.00  0.00     0.188 HD
HETATM    6  C2  UNL     1      -1.273  10.216  10.043  1.00  0.00     0.211 A 
HETATM    7  C3  UNL     1      -0.159   9.434   9.992  1.00  0.00     0.299 A 
HETATM    8  O2  UNL     1       0.599   9.506   8.980  1.00  0.00    -0.264 OA
HETATM    9  N6  UNL     1       0.016   8.650  11.076  1.00  0.00    -0.153 N 
ATOM     10  H6  UNL     1       0.818   8.023  11.141  1.00  0.00     0.187 HD
ENDROOT
BRANCH   6  11
HETATM   11  S1  UNL     1      -1.510  11.148   8.763  1.00  0.00     0.153 S 
HETATM   12  O1  UNL     1      -2.978  11.305   9.127  1.00  0.00    -0.222 OA
BRANCH  11  13
HETATM   13  N4  UNL     1      -1.413  10.264   7.327  1.00  0.00    -0.340 N 
ATOM     14  H42 UNL     1      -1.259  10.693   6.414  1.00  0.00     0.167 HD
ATOM     15  H41 UNL     1      -1.527   9.265   7.494  1.00  0.00     0.167 HD
ENDBRANCH  11  13
BRANCH  11  16
HETATM   16  N5  UNL     1      -0.658  12.597   8.793  1.00  0.00    -0.340 N 
ATOM     17  H52 UNL     1      -0.805  13.324   8.093  1.00  0.00     0.167 HD
ATOM     18  H51 UNL     1       0.008  12.677   9.561  1.00  0.00     0.167 HD
ENDBRANCH  11  16
ENDBRANCH   6  11
BRANCH   1  19
HETATM   19  N1  UNL     1      -0.714   7.951  13.111  1.00  0.00    -0.233 N 
ATOM     20  H12 UNL     1      -0.210   7.079  12.951  1.00  0.00     0.174 HD
ATOM     21  H11 UNL     1      -1.056   8.222  14.033  1.00  0.00     0.174 HD
ENDBRANCH   1  19
TORSDOF 4
ENDMDL
MODEL 4
REMARK VINA RESULT: -5.523183477      2.621      4.283
REMARK  4 active torsions:
REMARK  status: ('A' for Active; 'I' for Inactive)
REMARK    1  A    between atoms: N1_1  and  C1_4 
REMARK    2  A    between atoms: C2_9  and  S1_10 
REMARK    3  A    between atoms: S1_10  and  N4_11 
REMARK    4  A    between atoms: S1_10  and  N5_14 
ROOT
HETATM    1  C1  UNL     1      -0.748  11.160   9.469  1.00  0.00     0.693 A 
HETATM    2  N2  UNL     1      -1.106  11.074  10.781  1.00  0.00    -0.131 N 
ATOM      3  H2  UNL     1      -1.477  11.894  11.262  1.00  0.00     0.205 HD
HETATM    4  N3  UNL     1      -0.975   9.929  11.434  1.00  0.00    -0.271 N 
ATOM      5  H3  UNL     1      -1.233   9.824  12.415  1.00  0.00     0.188 HD
HETATM    6  C2  UNL     1      -0.485   8.935  10.718  1.00  0.00     0.211 A 
HETATM    7  C3  UNL     1      -0.102   8.911   9.412  1.00  0.00     0.299 A 
HETATM    8  O2  UNL     1       0.333   7.829   8.917  1.00  0.00    -0.264 OA
HETATM    9  N6  UNL     1      -0.246  10.089   8.771  1.00  0.00    -0.153 N 
ATOM     10  H6  UNL     1       0.013  10.182   7.789  1.00  0.00     0.187 HD
ENDROOT
BRANCH   6  11
HETATM   11  S1  UNL     1      -0.312   7.551  11.505  1.00  0.00     0.153 S 
HETATM   12  O1  UNL     1      -0.954   8.155  12.745  1.00  0.00    -0.222 OA
BRANCH  11  13
HETATM   13  N4  UNL     1       1.309   7.233  11.851  1.00  0.00    -0.340 N 
ATOM     14  H42 UNL     1       2.066   7.886  11.647  1.00  0.00     0.167 HD
ATOM     15  H41 UNL     1       1.427   6.316  12.283  1.00  0.00     0.167 HD
ENDBRANCH  11  13
BRANCH  11  16
HETATM   16  N5  UNL     1      -1.190   6.272  10.857  1.00  0.00    -0.340 N 
ATOM     17  H52 UNL     1      -0.749   5.545  10.294  1.00  0.00     0.167 HD
ATOM     18  H51 UNL     1      -2.186   6.291  11.077  1.00  0.00     0.167 HD
ENDBRANCH  11  16
ENDBRANCH   6  11
BRANCH   1  19
HETATM   19  N1  UNL     1      -0.873  12.272   8.829  1.00  0.00    -0.233 N 
ATOM     20  H12 UNL     1      -0.081  12.914   8.855  1.00  0.00     0.174 HD
ATOM     21  H11 UNL     1      -1.733  12.485   8.323  1.00  0.00     0.174 HD
ENDBRANCH   1  19
TORSDOF 4
ENDMDL
MODEL 5
REMARK VINA RESULT: -5.411373112      2.506      3.322
REMARK  4 active torsions:
REMARK  status: ('A' for Active; 'I' for Inactive)
REMARK    1  A    between atoms: N1_1  and  C1_4 
REMARK    2  A    between atoms: C2_9  and  S1_10 
REMARK    3  A    between atoms: S1_10  and  N4_11 
REMARK    4  A    between atoms: S1_10  and  N5_14 
ROOT
HETATM    1  C1  UNL     1      -0.153   6.537   9.811  1.00  0.00     0.693 A 
HETATM    2  N2  UNL     1      -0.808   6.797  10.978  1.00  0.00    -0.131 N 
ATOM      3  H2  UNL     1      -0.964   6.047  11.652  1.00  0.00     0.205 HD
HETATM    4  N3  UNL     1      -1.242   8.021  11.241  1.00  0.00    -0.271 N 
ATOM      5  H3  UNL     1      -1.733   8.256  12.103  1.00  0.00     0.188 HD
HETATM    6  C2  UNL     1      -0.989   8.912  10.302  1.00  0.00     0.211 A 
HETATM    7  C3  UNL     1      -0.345   8.763   9.111  1.00  0.00     0.299 A 
HETATM    8  O2  UNL     1      -0.198   9.771   8.359  1.00  0.00    -0.264 OA
HETATM    9  N6  UNL     1       0.086   7.508   8.870  1.00  0.00    -0.153 N 
ATOM     10  H6  UNL     1       0.580   7.285   8.005  1.00  0.00     0.187 HD
ENDROOT
BRANCH   6  11
HETATM   11  S1  UNL     1      -1.522  10.391  10.608  1.00  0.00     0.153 S 
HETATM   12  O1  UNL     1      -2.073   9.935  11.950  1.00  0.00    -0.222 OA
BRANCH  11  13
HETATM   13  N4  UNL     1      -2.823  10.800   9.612  1.00  0.00    -0.340 N 
ATOM     14  H42 UNL     1      -3.163  10.201   8.858  1.00  0.00     0.167 HD
ATOM     15  H41 UNL     1      -3.215  11.708   9.862  1.00  0.00     0.167 HD
ENDBRANCH  11  13
BRANCH  11  16
HETATM   16  N5  UNL     1      -0.311  11.550  10.745  1.00  0.00    -0.340 N 
ATOM     17  H52 UNL     1       0.676  11.295  10.804  1.00  0.00     0.167 HD
ATOM     18  H51 UNL     1      -0.649  12.512  10.764  1.00  0.00     0.167 HD
ENDBRANCH  11  16
ENDBRANCH   6  11
BRANCH   1  19
HETATM   19  N1  UNL     1       0.270   5.348   9.550  1.00  0.00    -0.233 N 
ATOM     20  H12 UNL     1       1.217   5.262   9.182  1.00  0.00     0.174 HD
ATOM     21  H11 UNL     1      -0.330   4.538   9.710  1.00  0.00     0.174 HD
ENDBRANCH   1  19
TORSDOF 4
ENDMDL
