MODEL 1
REMARK VINA RESULT: -4.454744360      0.000      0.000
REMARK  2 active torsions:
REMARK  status: ('A' for Active; 'I' for Inactive)
REMARK    1  A    between atoms: C8_8  and  O1_9 
REMARK    2  A    between atoms: C13_16  and  O3_17 
ROOT
HETATM    1  C1  UNL     1      -0.537  15.606  -9.571  1.00  0.00     0.019 C 
HETATM    2  C2  UNL     1       0.544  16.695  -9.460  1.00  0.00    -0.003 A 
HETATM    3  C3  UNL     1       0.234  17.895  -8.687  1.00  0.00     0.134 C 
HETATM    4  C4  UNL     1       1.314  18.538  -7.897  1.00  0.00     0.033 C 
HETATM    5  C5  UNL     1       2.513  17.736  -7.604  1.00  0.00     0.008 C 
HETATM    6  C6  UNL     1       2.870  16.641  -8.529  1.00  0.00     0.002 C 
HETATM    7  C7  UNL     1       4.227  16.854  -9.224  1.00  0.00     0.066 C 
HETATM    8  C8  UNL     1       4.238  15.752 -10.293  1.00  0.00     0.257 C 
HETATM    9  O2  UNL     1       3.569  14.621  -9.876  1.00  0.00    -0.361 OA
HETATM   10  C9  UNL     1       2.196  14.741  -9.839  1.00  0.00     0.182 C 
HETATM   11  C10 UNL     1       1.908  16.228  -9.551  1.00  0.00    -0.000 A 
HETATM   12  C11 UNL     1       1.410  16.951 -10.690  1.00  0.00     0.013 A 
HETATM   13  C12 UNL     1       1.523  18.408 -10.969  1.00  0.00     0.067 C 
HETATM   14  C13 UNL     1       0.198  19.047 -10.716  1.00  0.00     0.257 C 
HETATM   15  O4  UNL     1      -0.326  18.934  -9.474  1.00  0.00    -0.355 OA
ENDROOT
BRANCH   8  16
HETATM   16  O1  UNL     1       5.599  15.387 -10.414  1.00  0.00    -0.371 OA
ATOM     17  H1  UNL     1       5.699  14.644  -9.830  1.00  0.00     0.212 HD
ENDBRANCH   8  16
BRANCH  14  18
HETATM   18  O3  UNL     1       0.202  20.415 -11.059  1.00  0.00    -0.371 OA
ATOM     19  H3  UNL     1      -0.558  20.652 -11.577  1.00  0.00     0.212 HD
ENDBRANCH  14  18
TORSDOF 2
ENDMDL
MODEL 2
REMARK VINA RESULT: -4.194629483      2.144      4.689
REMARK  2 active torsions:
REMARK  status: ('A' for Active; 'I' for Inactive)
REMARK    1  A    between atoms: C8_8  and  O1_9 
REMARK    2  A    between atoms: C13_16  and  O3_17 
ROOT
HETATM    1  C1  UNL     1       0.481  14.834  -8.758  1.00  0.00     0.019 C 
HETATM    2  C2  UNL     1       0.931  16.304  -8.698  1.00  0.00    -0.003 A 
HETATM    3  C3  UNL     1       1.474  16.908  -9.912  1.00  0.00     0.134 C 
HETATM    4  C4  UNL     1       1.187  18.337 -10.193  1.00  0.00     0.033 C 
HETATM    5  C5  UNL     1       0.064  18.961  -9.472  1.00  0.00     0.008 C 
HETATM    6  C6  UNL     1      -0.323  18.406  -8.159  1.00  0.00     0.002 C 
HETATM    7  C7  UNL     1      -0.141  19.406  -7.002  1.00  0.00     0.066 C 
HETATM    8  C8  UNL     1      -0.349  18.530  -5.759  1.00  0.00     0.257 C 
HETATM    9  O2  UNL     1      -1.259  17.519  -5.986  1.00  0.00    -0.361 OA
HETATM   10  C9  UNL     1      -0.798  16.492  -6.783  1.00  0.00     0.182 C 
HETATM   11  C10 UNL     1       0.241  17.125  -7.731  1.00  0.00    -0.000 A 
HETATM   12  C11 UNL     1       1.600  16.780  -7.411  1.00  0.00     0.013 A 
HETATM   13  C12 UNL     1       2.834  17.555  -7.708  1.00  0.00     0.067 C 
HETATM   14  C13 UNL     1       3.548  16.902  -8.844  1.00  0.00     0.257 C 
HETATM   15  O4  UNL     1       2.883  16.779 -10.015  1.00  0.00    -0.355 OA
ENDROOT
BRANCH   8  16
HETATM   16  O1  UNL     1      -0.944  19.393  -4.810  1.00  0.00    -0.371 OA
ATOM     17  H1  UNL     1      -1.143  18.833  -4.069  1.00  0.00     0.212 HD
ENDBRANCH   8  16
BRANCH  14  18
HETATM   18  O3  UNL     1       4.784  17.527  -9.114  1.00  0.00    -0.371 OA
ATOM     19  H3  UNL     1       4.876  17.743 -10.035  1.00  0.00     0.212 HD
ENDBRANCH  14  18
TORSDOF 2
ENDMDL
MODEL 3
REMARK VINA RESULT: -3.794856349      2.621      3.797
REMARK  2 active torsions:
REMARK  status: ('A' for Active; 'I' for Inactive)
REMARK    1  A    between atoms: C8_8  and  O1_9 
REMARK    2  A    between atoms: C13_16  and  O3_17 
ROOT
HETATM    1  C1  UNL     1      -0.274  19.534  -6.559  1.00  0.00     0.019 C 
HETATM    2  C2  UNL     1       0.110  18.410  -7.536  1.00  0.00    -0.003 A 
HETATM    3  C3  UNL     1       0.641  18.786  -8.844  1.00  0.00     0.134 C 
HETATM    4  C4  UNL     1       1.696  17.942  -9.460  1.00  0.00     0.033 C 
HETATM    5  C5  UNL     1       2.434  17.023  -8.577  1.00  0.00     0.008 C 
HETATM    6  C6  UNL     1       1.768  16.540  -7.351  1.00  0.00     0.002 C 
HETATM    7  C7  UNL     1       1.553  15.015  -7.340  1.00  0.00     0.066 C 
HETATM    8  C8  UNL     1       0.636  14.809  -6.126  1.00  0.00     0.257 C 
HETATM    9  O2  UNL     1       0.889  15.724  -5.127  1.00  0.00    -0.361 OA
HETATM   10  C9  UNL     1       0.456  17.006  -5.391  1.00  0.00     0.182 C 
HETATM   11  C10 UNL     1       0.517  17.167  -6.924  1.00  0.00    -0.000 A 
HETATM   12  C11 UNL     1      -0.775  17.166  -7.556  1.00  0.00     0.013 A 
HETATM   13  C12 UNL     1      -1.109  16.773  -8.951  1.00  0.00     0.067 C 
HETATM   14  C13 UNL     1      -1.364  18.008  -9.748  1.00  0.00     0.257 C 
HETATM   15  O4  UNL     1      -0.365  18.915  -9.836  1.00  0.00    -0.355 OA
ENDROOT
BRANCH   8  16
HETATM   16  O1  UNL     1       1.006  13.546  -5.610  1.00  0.00    -0.371 OA
ATOM     17  H1  UNL     1       1.887  13.672  -5.277  1.00  0.00     0.212 HD
ENDBRANCH   8  16
BRANCH  14  18
HETATM   18  O3  UNL     1      -1.788  17.707 -11.060  1.00  0.00    -0.371 OA
ATOM     19  H3  UNL     1      -2.663  18.035 -11.231  1.00  0.00     0.212 HD
ENDBRANCH  14  18
TORSDOF 2
ENDMDL
MODEL 4
REMARK VINA RESULT: -3.772706947      2.570      4.312
REMARK  2 active torsions:
REMARK  status: ('A' for Active; 'I' for Inactive)
REMARK    1  A    between atoms: C8_8  and  O1_9 
REMARK    2  A    between atoms: C13_16  and  O3_17 
ROOT
HETATM    1  C1  UNL     1      -1.822  15.032  -8.026  1.00  0.00     0.019 C 
HETATM    2  C2  UNL     1      -0.361  15.485  -7.863  1.00  0.00    -0.003 A 
HETATM    3  C3  UNL     1       0.568  14.583  -7.186  1.00  0.00     0.134 C 
HETATM    4  C4  UNL     1       1.977  14.523  -7.651  1.00  0.00     0.033 C 
HETATM    5  C5  UNL     1       2.274  15.051  -8.993  1.00  0.00     0.008 C 
HETATM    6  C6  UNL     1       1.389  16.094  -9.550  1.00  0.00     0.002 C 
HETATM    7  C7  UNL     1       2.112  17.431  -9.798  1.00  0.00     0.066 C 
HETATM    8  C8  UNL     1       0.955  18.391 -10.112  1.00  0.00     0.257 C 
HETATM    9  O2  UNL     1      -0.082  17.754 -10.761  1.00  0.00    -0.361 OA
HETATM   10  C9  UNL     1      -0.833  16.913  -9.968  1.00  0.00     0.182 C 
HETATM   11  C10 UNL     1       0.125  16.392  -8.877  1.00  0.00    -0.000 A 
HETATM   12  C11 UNL     1      -0.113  16.964  -7.579  1.00  0.00     0.013 A 
HETATM   13  C12 UNL     1       0.857  17.138  -6.465  1.00  0.00     0.067 C 
HETATM   14  C13 UNL     1       0.575  16.109  -5.421  1.00  0.00     0.257 C 
HETATM   15  O4  UNL     1       0.643  14.809  -5.788  1.00  0.00    -0.355 OA
ENDROOT
BRANCH   8  16
HETATM   16  O1  UNL     1       1.497  19.311 -11.038  1.00  0.00    -0.371 OA
ATOM     17  H1  UNL     1       2.395  19.435 -10.754  1.00  0.00     0.212 HD
ENDBRANCH   8  16
BRANCH  14  18
HETATM   18  O3  UNL     1       1.394  16.278  -4.284  1.00  0.00    -0.371 OA
ATOM     19  H3  UNL     1       1.016  15.869  -3.514  1.00  0.00     0.212 HD
ENDBRANCH  14  18
TORSDOF 2
ENDMDL
MODEL 5
REMARK VINA RESULT: -3.763927092      2.480      4.047
REMARK  2 active torsions:
REMARK  status: ('A' for Active; 'I' for Inactive)
REMARK    1  A    between atoms: C8_8  and  O1_9 
REMARK    2  A    between atoms: C13_16  and  O3_17 
ROOT
HETATM    1  C1  UNL     1       0.044  14.617 -10.133  1.00  0.00     0.019 C 
HETATM    2  C2  UNL     1       0.922  15.689  -9.465  1.00  0.00    -0.003 A 
HETATM    3  C3  UNL     1       1.359  16.824 -10.275  1.00  0.00     0.134 C 
HETATM    4  C4  UNL     1       1.468  18.160  -9.638  1.00  0.00     0.033 C 
HETATM    5  C5  UNL     1       0.763  18.366  -8.361  1.00  0.00     0.008 C 
HETATM    6  C6  UNL     1       0.507  17.192  -7.503  1.00  0.00     0.002 C 
HETATM    7  C7  UNL     1       1.219  17.271  -6.140  1.00  0.00     0.066 C 
HETATM    8  C8  UNL     1       1.017  15.861  -5.567  1.00  0.00     0.257 C 
HETATM    9  O2  UNL     1      -0.183  15.311  -5.964  1.00  0.00    -0.361 OA
HETATM   10  C9  UNL     1      -0.232  14.914  -7.283  1.00  0.00     0.182 C 
HETATM   11  C10 UNL     1       0.730  15.850  -8.043  1.00  0.00    -0.000 A 
HETATM   12  C11 UNL     1       1.955  15.215  -8.447  1.00  0.00     0.013 A 
HETATM   13  C12 UNL     1       3.277  15.850  -8.693  1.00  0.00     0.067 C 
HETATM   14  C13 UNL     1       3.507  15.920 -10.166  1.00  0.00     0.257 C 
HETATM   15  O4  UNL     1       2.609  16.606 -10.909  1.00  0.00    -0.355 OA
ENDROOT
BRANCH   8  16
HETATM   16  O1  UNL     1       0.922  16.055  -4.170  1.00  0.00    -0.371 OA
ATOM     17  H1  UNL     1       0.389  16.835  -4.072  1.00  0.00     0.212 HD
ENDBRANCH   8  16
BRANCH  14  18
HETATM   18  O3  UNL     1       4.790  16.421 -10.473  1.00  0.00    -0.371 OA
ATOM     19  H3  UNL     1       4.854  16.696 -11.380  1.00  0.00     0.212 HD
ENDBRANCH  14  18
TORSDOF 2
ENDMDL
