MODEL 1
REMARK VINA RESULT: -6.204343170      0.000      0.000
REMARK  9 active torsions:
REMARK  status: ('A' for Active; 'I' for Inactive)
REMARK    1  A    between atoms: O1_2  and  C2_3 
REMARK    2  A    between atoms: C9_10  and  O2_11 
REMARK    3  A    between atoms: O2_11  and  C10_12 
REMARK    4  A    between atoms: C11_14  and  C12_15 
REMARK    5  A    between atoms: C12_15  and  O4_16 
REMARK    6  A    between atoms: C13_18  and  O5_19 
REMARK    7  A    between atoms: C14_21  and  O6_22 
REMARK    8  A    between atoms: C15_24  and  O7_25 
REMARK    9  A    between atoms: O7_25  and  C16_26 
ROOT
HETATM    1  C10 UNL     1       0.960  18.194   3.490  1.00  0.00     0.295 C 
HETATM    2  O3  UNL     1      -0.099  17.830   4.321  1.00  0.00    -0.348 OA
HETATM    3  C11 UNL     1      -0.321  16.459   4.320  1.00  0.00     0.179 C 
HETATM    4  C13 UNL     1       0.880  15.803   4.974  1.00  0.00     0.180 C 
HETATM    5  C14 UNL     1       2.068  16.076   4.056  1.00  0.00     0.183 C 
HETATM    6  C15 UNL     1       2.263  17.567   3.937  1.00  0.00     0.218 C 
ENDROOT
BRANCH   1   7
HETATM    7  O2  UNL     1       1.043  19.574   3.510  1.00  0.00    -0.329 OA
BRANCH   7   8
HETATM    8  C9  UNL     1       0.654  20.117   2.289  1.00  0.00     0.267 C 
HETATM    9  C8  UNL     1       1.525  21.281   1.888  1.00  0.00     0.071 C 
HETATM   10  C7  UNL     1       2.115  20.849   0.550  1.00  0.00     0.053 C 
HETATM   11  C2  UNL     1       1.356  19.652   0.189  1.00  0.00     0.170 C 
HETATM   12  C6  UNL     1       2.069  22.021  -0.345  1.00  0.00     0.010 C 
HETATM   13  C3  UNL     1       0.469  19.713  -1.002  1.00  0.00     0.069 C 
HETATM   14  O8  UNL     1       0.612  19.208   1.276  1.00  0.00    -0.325 OA
HETATM   15  C4  UNL     1       0.499  20.943  -1.821  1.00  0.00     0.005 C 
HETATM   16  C5  UNL     1       0.764  22.212  -1.059  1.00  0.00     0.001 C 
BRANCH  11  17
HETATM   17  O1  UNL     1       2.283  18.609  -0.049  1.00  0.00    -0.359 OA
HETATM   18  C1  UNL     1       1.684  17.366  -0.106  1.00  0.00     0.205 C 
ENDBRANCH  11  17
ENDBRANCH   7   8
ENDBRANCH   1   7
BRANCH   6  19
HETATM   19  O7  UNL     1       3.208  17.806   2.922  1.00  0.00    -0.312 OA
BRANCH  19  20
HETATM   20  C16 UNL     1       4.141  18.803   2.977  1.00  0.00     0.225 C 
HETATM   21  N1  UNL     1       4.873  19.035   1.942  1.00  0.00    -0.368 N 
ATOM     22  H12 UNL     1       4.708  18.447   1.126  1.00  0.00     0.159 HD
ATOM     23  H11 UNL     1       5.569  19.779   1.983  1.00  0.00     0.159 HD
HETATM   24  N2  UNL     1       4.371  19.623   4.114  1.00  0.00    -0.057 NA
ENDBRANCH  19  20
ENDBRANCH   6  19
BRANCH   3  25
HETATM   25  C12 UNL     1      -1.579  16.156   5.062  1.00  0.00     0.198 C 
BRANCH  25  26
HETATM   26  O4  UNL     1      -1.740  17.140   6.048  1.00  0.00    -0.398 OA
ATOM     27  H4  UNL     1      -2.473  17.688   5.792  1.00  0.00     0.209 HD
ENDBRANCH  25  26
ENDBRANCH   3  25
BRANCH   5  28
HETATM   28  O6  UNL     1       1.795  15.494   2.807  1.00  0.00    -0.390 OA
ATOM     29  H6  UNL     1       2.625  15.315   2.379  1.00  0.00     0.210 HD
ENDBRANCH   5  28
BRANCH   4  30
HETATM   30  O5  UNL     1       1.140  16.436   6.184  1.00  0.00    -0.390 OA
ATOM     31  H5  UNL     1       1.575  15.825   6.767  1.00  0.00     0.210 HD
ENDBRANCH   4  30
TORSDOF 9
ENDMDL
MODEL 2
REMARK VINA RESULT: -5.754479891      1.394      1.721
REMARK  9 active torsions:
REMARK  status: ('A' for Active; 'I' for Inactive)
REMARK    1  A    between atoms: O1_2  and  C2_3 
REMARK    2  A    between atoms: C9_10  and  O2_11 
REMARK    3  A    between atoms: O2_11  and  C10_12 
REMARK    4  A    between atoms: C11_14  and  C12_15 
REMARK    5  A    between atoms: C12_15  and  O4_16 
REMARK    6  A    between atoms: C13_18  and  O5_19 
REMARK    7  A    between atoms: C14_21  and  O6_22 
REMARK    8  A    between atoms: C15_24  and  O7_25 
REMARK    9  A    between atoms: O7_25  and  C16_26 
ROOT
HETATM    1  C10 UNL     1       0.020  17.971   3.520  1.00  0.00     0.295 C 
HETATM    2  O3  UNL     1      -0.896  18.281   4.524  1.00  0.00    -0.348 OA
HETATM    3  C11 UNL     1      -1.875  17.306   4.663  1.00  0.00     0.179 C 
HETATM    4  C13 UNL     1      -1.197  16.052   5.181  1.00  0.00     0.180 C 
HETATM    5  C14 UNL     1      -0.247  15.594   4.078  1.00  0.00     0.183 C 
HETATM    6  C15 UNL     1       0.761  16.685   3.816  1.00  0.00     0.218 C 
ENDROOT
BRANCH   1   7
HETATM    7  O2  UNL     1       0.896  19.035   3.419  1.00  0.00    -0.329 OA
BRANCH   7   8
HETATM    8  C9  UNL     1       0.607  19.820   2.307  1.00  0.00     0.267 C 
HETATM    9  C8  UNL     1       1.643  20.893   2.090  1.00  0.00     0.071 C 
HETATM   10  C7  UNL     1       2.181  20.603   0.693  1.00  0.00     0.053 C 
HETATM   11  C2  UNL     1       1.260  19.605   0.151  1.00  0.00     0.170 C 
HETATM   12  C6  UNL     1       2.319  21.899   0.001  1.00  0.00     0.010 C 
HETATM   13  C3  UNL     1       0.407  19.987  -1.004  1.00  0.00     0.069 C 
HETATM   14  O8  UNL     1       0.445  19.103   1.160  1.00  0.00    -0.325 OA
HETATM   15  C4  UNL     1       0.627  21.316  -1.613  1.00  0.00     0.005 C 
HETATM   16  C5  UNL     1       1.065  22.392  -0.658  1.00  0.00     0.001 C 
BRANCH  11  17
HETATM   17  O1  UNL     1       2.027  18.490  -0.263  1.00  0.00    -0.359 OA
HETATM   18  C1  UNL     1       1.247  17.426  -0.670  1.00  0.00     0.205 C 
ENDBRANCH  11  17
ENDBRANCH   7   8
ENDBRANCH   1   7
BRANCH   6  19
HETATM   19  O7  UNL     1       1.481  16.346   2.656  1.00  0.00    -0.312 OA
BRANCH  19  20
HETATM   20  C16 UNL     1       2.846  16.363   2.582  1.00  0.00     0.225 C 
HETATM   21  N1  UNL     1       3.445  17.467   2.293  1.00  0.00    -0.368 N 
ATOM     22  H12 UNL     1       2.851  18.280   2.133  1.00  0.00     0.159 HD
ATOM     23  H11 UNL     1       4.463  17.479   2.237  1.00  0.00     0.159 HD
HETATM   24  N2  UNL     1       3.674  15.230   2.804  1.00  0.00    -0.057 NA
ENDBRANCH  19  20
ENDBRANCH   6  19
BRANCH   3  25
HETATM   25  C12 UNL     1      -2.928  17.785   5.605  1.00  0.00     0.198 C 
BRANCH  25  26
HETATM   26  O4  UNL     1      -3.187  16.750   6.516  1.00  0.00    -0.398 OA
ATOM     27  H4  UNL     1      -2.354  16.352   6.744  1.00  0.00     0.209 HD
ENDBRANCH  25  26
ENDBRANCH   3  25
BRANCH   5  28
HETATM   28  O6  UNL     1      -1.012  15.316   2.933  1.00  0.00    -0.390 OA
ATOM     29  H6  UNL     1      -1.472  14.498   3.079  1.00  0.00     0.210 HD
ENDBRANCH   5  28
BRANCH   4  30
HETATM   30  O5  UNL     1      -0.420  16.379   6.286  1.00  0.00    -0.390 OA
ATOM     31  H5  UNL     1      -0.266  15.596   6.800  1.00  0.00     0.210 HD
ENDBRANCH   4  30
TORSDOF 9
ENDMDL
MODEL 3
REMARK VINA RESULT: -5.491396370      1.532      2.036
REMARK  9 active torsions:
REMARK  status: ('A' for Active; 'I' for Inactive)
REMARK    1  A    between atoms: O1_2  and  C2_3 
REMARK    2  A    between atoms: C9_10  and  O2_11 
REMARK    3  A    between atoms: O2_11  and  C10_12 
REMARK    4  A    between atoms: C11_14  and  C12_15 
REMARK    5  A    between atoms: C12_15  and  O4_16 
REMARK    6  A    between atoms: C13_18  and  O5_19 
REMARK    7  A    between atoms: C14_21  and  O6_22 
REMARK    8  A    between atoms: C15_24  and  O7_25 
REMARK    9  A    between atoms: O7_25  and  C16_26 
ROOT
HETATM    1  C10 UNL     1      -0.263  17.731   3.564  1.00  0.00     0.295 C 
HETATM    2  O3  UNL     1      -1.636  17.926   3.708  1.00  0.00    -0.348 OA
HETATM    3  C11 UNL     1      -2.350  16.741   3.601  1.00  0.00     0.179 C 
HETATM    4  C13 UNL     1      -1.990  15.882   4.799  1.00  0.00     0.180 C 
HETATM    5  C14 UNL     1      -0.510  15.542   4.650  1.00  0.00     0.183 C 
HETATM    6  C15 UNL     1       0.289  16.821   4.641  1.00  0.00     0.218 C 
ENDROOT
BRANCH   1   7
HETATM    7  O2  UNL     1       0.338  18.975   3.613  1.00  0.00    -0.329 OA
BRANCH   7   8
HETATM    8  C9  UNL     1       0.240  19.627   2.388  1.00  0.00     0.267 C 
HETATM    9  C8  UNL     1       1.193  20.792   2.293  1.00  0.00     0.071 C 
HETATM   10  C7  UNL     1       2.065  20.452   1.089  1.00  0.00     0.053 C 
HETATM   11  C2  UNL     1       1.393  19.313   0.466  1.00  0.00     0.170 C 
HETATM   12  C6  UNL     1       2.237  21.695   0.311  1.00  0.00     0.010 C 
HETATM   13  C3  UNL     1       0.799  19.497  -0.883  1.00  0.00     0.069 C 
HETATM   14  O8  UNL     1       0.418  18.805   1.316  1.00  0.00    -0.325 OA
HETATM   15  C4  UNL     1       1.028  20.789  -1.566  1.00  0.00     0.005 C 
HETATM   16  C5  UNL     1       1.129  21.983  -0.658  1.00  0.00     0.001 C 
BRANCH  11  17
HETATM   17  O1  UNL     1       2.338  18.265   0.353  1.00  0.00    -0.359 OA
HETATM   18  C1  UNL     1       1.799  17.027   0.645  1.00  0.00     0.205 C 
ENDBRANCH  11  17
ENDBRANCH   7   8
ENDBRANCH   1   7
BRANCH   6  19
HETATM   19  O7  UNL     1       1.612  16.509   4.280  1.00  0.00    -0.312 OA
BRANCH  19  20
HETATM   20  C16 UNL     1       2.710  17.028   4.908  1.00  0.00     0.225 C 
HETATM   21  N1  UNL     1       3.283  18.070   4.411  1.00  0.00    -0.368 N 
ATOM     22  H12 UNL     1       2.873  18.453   3.559  1.00  0.00     0.159 HD
ATOM     23  H11 UNL     1       4.101  18.457   4.880  1.00  0.00     0.159 HD
HETATM   24  N2  UNL     1       3.280  16.495   6.095  1.00  0.00    -0.057 NA
ENDBRANCH  19  20
ENDBRANCH   6  19
BRANCH   3  25
HETATM   25  C12 UNL     1      -3.811  17.038   3.564  1.00  0.00     0.198 C 
BRANCH  25  26
HETATM   26  O4  UNL     1      -4.027  18.206   4.311  1.00  0.00    -0.398 OA
ATOM     27  H4  UNL     1      -4.877  18.127   4.729  1.00  0.00     0.209 HD
ENDBRANCH  25  26
ENDBRANCH   3  25
BRANCH   5  28
HETATM   28  O6  UNL     1      -0.347  14.826   3.452  1.00  0.00    -0.390 OA
ATOM     29  H6  UNL     1      -0.616  15.389   2.735  1.00  0.00     0.210 HD
ENDBRANCH   5  28
BRANCH   4  30
HETATM   30  O5  UNL     1      -2.125  16.640   5.957  1.00  0.00    -0.390 OA
ATOM     31  H5  UNL     1      -1.262  16.859   6.286  1.00  0.00     0.210 HD
ENDBRANCH   4  30
TORSDOF 9
ENDMDL
MODEL 4
REMARK VINA RESULT: -5.456962452      2.572      4.241
REMARK  9 active torsions:
REMARK  status: ('A' for Active; 'I' for Inactive)
REMARK    1  A    between atoms: O1_2  and  C2_3 
REMARK    2  A    between atoms: C9_10  and  O2_11 
REMARK    3  A    between atoms: O2_11  and  C10_12 
REMARK    4  A    between atoms: C11_14  and  C12_15 
REMARK    5  A    between atoms: C12_15  and  O4_16 
REMARK    6  A    between atoms: C13_18  and  O5_19 
REMARK    7  A    between atoms: C14_21  and  O6_22 
REMARK    8  A    between atoms: C15_24  and  O7_25 
REMARK    9  A    between atoms: O7_25  and  C16_26 
ROOT
HETATM    1  C10 UNL     1       2.382  18.203   1.331  1.00  0.00     0.295 C 
HETATM    2  O3  UNL     1       2.837  19.517   1.230  1.00  0.00    -0.348 OA
HETATM    3  C11 UNL     1       2.830  20.171   2.454  1.00  0.00     0.179 C 
HETATM    4  C13 UNL     1       3.872  19.506   3.333  1.00  0.00     0.180 C 
HETATM    5  C14 UNL     1       3.380  18.081   3.572  1.00  0.00     0.183 C 
HETATM    6  C15 UNL     1       3.261  17.375   2.245  1.00  0.00     0.218 C 
ENDROOT
BRANCH   1   7
HETATM    7  O2  UNL     1       2.361  17.674   0.054  1.00  0.00    -0.329 OA
BRANCH   7   8
HETATM    8  C9  UNL     1       1.099  17.797  -0.519  1.00  0.00     0.267 C 
HETATM    9  C8  UNL     1       0.105  18.409   0.435  1.00  0.00     0.071 C 
HETATM   10  C7  UNL     1      -0.370  19.664  -0.289  1.00  0.00     0.053 C 
HETATM   11  C2  UNL     1       0.163  19.524  -1.644  1.00  0.00     0.170 C 
HETATM   12  C6  UNL     1      -1.831  19.749  -0.101  1.00  0.00     0.010 C 
HETATM   13  C3  UNL     1      -0.797  19.346  -2.764  1.00  0.00     0.069 C 
HETATM   14  O8  UNL     1       1.097  18.495  -1.689  1.00  0.00    -0.325 OA
HETATM   15  C4  UNL     1      -2.240  19.441  -2.456  1.00  0.00     0.005 C 
HETATM   16  C5  UNL     1      -2.636  18.956  -1.089  1.00  0.00     0.001 C 
BRANCH  11  17
HETATM   17  O1  UNL     1       0.913  20.689  -1.934  1.00  0.00    -0.359 OA
HETATM   18  C1  UNL     1       0.977  21.563  -0.867  1.00  0.00     0.205 C 
ENDBRANCH  11  17
ENDBRANCH   7   8
ENDBRANCH   1   7
BRANCH   6  19
HETATM   19  O7  UNL     1       2.599  16.151   2.457  1.00  0.00    -0.312 OA
BRANCH  19  20
HETATM   20  C16 UNL     1       3.063  15.177   3.297  1.00  0.00     0.225 C 
HETATM   21  N1  UNL     1       3.741  14.197   2.808  1.00  0.00    -0.368 N 
ATOM     22  H12 UNL     1       3.895  14.208   1.800  1.00  0.00     0.159 HD
ATOM     23  H11 UNL     1       4.087  13.471   3.434  1.00  0.00     0.159 HD
HETATM   24  N2  UNL     1       2.849  15.163   4.701  1.00  0.00    -0.057 NA
ENDBRANCH  19  20
ENDBRANCH   6  19
BRANCH   3  25
HETATM   25  C12 UNL     1       3.134  21.618   2.249  1.00  0.00     0.198 C 
BRANCH  25  26
HETATM   26  O4  UNL     1       2.778  22.298   3.424  1.00  0.00    -0.398 OA
ATOM     27  H4  UNL     1       2.506  23.174   3.178  1.00  0.00     0.209 HD
ENDBRANCH  25  26
ENDBRANCH   3  25
BRANCH   5  28
HETATM   28  O6  UNL     1       2.141  18.153   4.228  1.00  0.00    -0.390 OA
ATOM     29  H6  UNL     1       2.182  17.593   4.995  1.00  0.00     0.210 HD
ENDBRANCH   5  28
BRANCH   4  30
HETATM   30  O5  UNL     1       5.069  19.417   2.630  1.00  0.00    -0.390 OA
ATOM     31  H5  UNL     1       4.946  18.851   1.878  1.00  0.00     0.210 HD
ENDBRANCH   4  30
TORSDOF 9
ENDMDL
MODEL 5
REMARK VINA RESULT: -5.445558785      2.850      4.656
REMARK  9 active torsions:
REMARK  status: ('A' for Active; 'I' for Inactive)
REMARK    1  A    between atoms: O1_2  and  C2_3 
REMARK    2  A    between atoms: C9_10  and  O2_11 
REMARK    3  A    between atoms: O2_11  and  C10_12 
REMARK    4  A    between atoms: C11_14  and  C12_15 
REMARK    5  A    between atoms: C12_15  and  O4_16 
REMARK    6  A    between atoms: C13_18  and  O5_19 
REMARK    7  A    between atoms: C14_21  and  O6_22 
REMARK    8  A    between atoms: C15_24  and  O7_25 
REMARK    9  A    between atoms: O7_25  and  C16_26 
ROOT
HETATM    1  C10 UNL     1       2.379  18.341   1.436  1.00  0.00     0.295 C 
HETATM    2  O3  UNL     1       2.868  19.645   1.376  1.00  0.00    -0.348 OA
HETATM    3  C11 UNL     1       2.980  20.223   2.634  1.00  0.00     0.179 C 
HETATM    4  C13 UNL     1       4.065  19.475   3.384  1.00  0.00     0.180 C 
HETATM    5  C14 UNL     1       3.547  18.052   3.577  1.00  0.00     0.183 C 
HETATM    6  C15 UNL     1       3.299  17.434   2.225  1.00  0.00     0.218 C 
ENDROOT
BRANCH   1   7
HETATM    7  O2  UNL     1       2.239  17.894   0.135  1.00  0.00    -0.329 OA
BRANCH   7   8
HETATM    8  C9  UNL     1       0.908  17.933  -0.268  1.00  0.00     0.267 C 
HETATM    9  C8  UNL     1       0.775  18.222  -1.742  1.00  0.00     0.071 C 
HETATM   10  C7  UNL     1       0.026  17.009  -2.284  1.00  0.00     0.053 C 
HETATM   11  C2  UNL     1      -0.422  16.297  -1.089  1.00  0.00     0.170 C 
HETATM   12  C6  UNL     1      -0.982  17.511  -3.238  1.00  0.00     0.010 C 
HETATM   13  C3  UNL     1      -1.882  16.219  -0.821  1.00  0.00     0.069 C 
HETATM   14  O8  UNL     1       0.211  16.805   0.040  1.00  0.00    -0.325 OA
HETATM   15  C4  UNL     1      -2.800  16.763  -1.844  1.00  0.00     0.005 C 
HETATM   16  C5  UNL     1      -2.274  17.945  -2.611  1.00  0.00     0.001 C 
BRANCH  11  17
HETATM   17  O1  UNL     1       0.044  14.964  -1.180  1.00  0.00    -0.359 OA
HETATM   18  C1  UNL     1       0.085  14.327   0.045  1.00  0.00     0.205 C 
ENDBRANCH  11  17
ENDBRANCH   7   8
ENDBRANCH   1   7
BRANCH   6  19
HETATM   19  O7  UNL     1       2.616  16.218   2.417  1.00  0.00    -0.312 OA
BRANCH  19  20
HETATM   20  C16 UNL     1       3.060  15.224   3.242  1.00  0.00     0.225 C 
HETATM   21  N1  UNL     1       3.747  14.254   2.743  1.00  0.00    -0.368 N 
ATOM     22  H12 UNL     1       3.921  14.288   1.739  1.00  0.00     0.159 HD
ATOM     23  H11 UNL     1       4.078  13.512   3.358  1.00  0.00     0.159 HD
HETATM   24  N2  UNL     1       2.819  15.176   4.641  1.00  0.00    -0.057 NA
ENDBRANCH  19  20
ENDBRANCH   6  19
BRANCH   3  25
HETATM   25  C12 UNL     1       3.315  21.670   2.492  1.00  0.00     0.198 C 
BRANCH  25  26
HETATM   26  O4  UNL     1       2.616  22.368   3.488  1.00  0.00    -0.398 OA
ATOM     27  H4  UNL     1       1.779  21.935   3.609  1.00  0.00     0.209 HD
ENDBRANCH  25  26
ENDBRANCH   3  25
BRANCH   5  28
HETATM   28  O6  UNL     1       2.366  18.119   4.335  1.00  0.00    -0.390 OA
ATOM     29  H6  UNL     1       2.511  17.647   5.147  1.00  0.00     0.210 HD
ENDBRANCH   5  28
BRANCH   4  30
HETATM   30  O5  UNL     1       5.199  19.396   2.583  1.00  0.00    -0.390 OA
ATOM     31  H5  UNL     1       5.194  20.118   1.967  1.00  0.00     0.210 HD
ENDBRANCH   4  30
TORSDOF 9
ENDMDL
