MODEL 1
REMARK VINA RESULT: -7.427659614      0.000      0.000
REMARK  11 active torsions:
REMARK  status: ('A' for Active; 'I' for Inactive)
REMARK    1  A    between atoms: C2_2  and  C3_3 
REMARK    2  A    between atoms: C3_3  and  C5_5 
REMARK    3  A    between atoms: C5_5  and  N1_6 
REMARK    4  A    between atoms: C5_5  and  C28_46 
REMARK       I    between atoms: N1_6  and  C6_8 
REMARK       I    between atoms: C6_8  and  N2_10 
REMARK    5  A    between atoms: N2_10  and  C7_12 
REMARK    6  A    between atoms: C10_15  and  C11_16 
REMARK    7  A    between atoms: C13_22  and  C14_23 
REMARK    8  A    between atoms: C14_23  and  C15_24 
REMARK    9  A    between atoms: C22_37  and  C23_38 
REMARK   10  A    between atoms: C23_38  and  C24_39 
REMARK   11  A    between atoms: C28_46  and  C29_48 
ROOT
HETATM    1  C7  UNL     1       7.678  26.636   5.454  1.00  0.00     0.178 C 
HETATM    2  C8  UNL     1       8.867  26.486   6.362  1.00  0.00     0.037 C 
HETATM    3  C9  UNL     1       8.461  25.851   7.685  1.00  0.00     0.028 C 
HETATM    4  C10 UNL     1       9.614  26.220   8.636  1.00  0.00     0.094 C 
HETATM    5  N3  UNL     1      10.851  26.282   7.931  1.00  0.00    -0.354 N 
ATOM      6  H3  UNL     1      11.109  27.226   7.642  1.00  0.00     0.162 HD
HETATM    7  C12 UNL     1      11.774  25.318   7.560  1.00  0.00     0.240 C 
HETATM    8  O2  UNL     1      12.896  25.783   7.102  1.00  0.00    -0.271 OA
HETATM    9  C13 UNL     1      11.707  23.852   7.592  1.00  0.00     0.177 C 
HETATM   10  N4  UNL     1      10.763  23.205   6.758  1.00  0.00    -0.346 N 
ATOM     11  H4  UNL     1       9.865  23.023   7.205  1.00  0.00     0.163 HD
HETATM   12  C18 UNL     1      10.841  22.769   5.425  1.00  0.00     0.240 C 
HETATM   13  O3  UNL     1      10.675  21.512   5.163  1.00  0.00    -0.271 OA
HETATM   14  C19 UNL     1      11.096  23.560   4.198  1.00  0.00     0.172 C 
HETATM   15  C20 UNL     1      12.515  23.280   3.743  1.00  0.00     0.042 C 
HETATM   16  N5  UNL     1      10.245  23.079   3.092  1.00  0.00    -0.346 N 
ATOM     17  H5  UNL     1      10.532  22.224   2.617  1.00  0.00     0.163 HD
HETATM   18  C21 UNL     1       9.080  23.701   2.645  1.00  0.00     0.241 C 
HETATM   19  O4  UNL     1       8.816  23.681   1.389  1.00  0.00    -0.271 OA
HETATM   20  C22 UNL     1       8.078  24.405   3.476  1.00  0.00     0.177 C 
HETATM   21  N6  UNL     1       8.061  25.834   3.122  1.00  0.00    -0.346 N 
ATOM     22  H6  UNL     1       7.958  26.102   2.143  1.00  0.00     0.163 HD
HETATM   23  C27 UNL     1       8.184  26.844   4.101  1.00  0.00     0.241 C 
HETATM   24  O5  UNL     1       8.731  27.917   3.792  1.00  0.00    -0.271 OA
ENDROOT
BRANCH   1  25
HETATM   25  N2  UNL     1       6.889  27.757   5.942  1.00  0.00    -0.330 N 
HETATM   26  C6  UNL     1       5.478  27.755   5.936  1.00  0.00     0.317 C 
HETATM   27  N1  UNL     1       4.741  28.849   6.416  1.00  0.00    -0.331 N 
HETATM   28  O1  UNL     1       4.874  26.760   5.492  1.00  0.00    -0.247 OA
ATOM     29  H1  UNL     1       5.237  29.658   6.790  1.00  0.00     0.165 HD
ATOM     30  H2  UNL     1       7.375  28.578   6.301  1.00  0.00     0.165 HD
BRANCH  27  31
HETATM   31  C5  UNL     1       3.255  28.855   6.393  1.00  0.00     0.160 C 
BRANCH  31  32
HETATM   32  C3  UNL     1       2.800  30.260   6.227  1.00  0.00     0.011 C 
HETATM   33  C4  UNL     1       2.334  30.612   4.830  1.00  0.00     0.012 C 
BRANCH  32  34
HETATM   34  C2  UNL     1       3.824  31.293   6.600  1.00  0.00     0.002 C 
HETATM   35  C1  UNL     1       3.691  32.527   5.707  1.00  0.00     0.005 C 
ENDBRANCH  32  34
ENDBRANCH  31  32
BRANCH  31  36
HETATM   36  C28 UNL     1       2.843  28.227   7.662  1.00  0.00     0.153 C 
HETATM   37  O6  UNL     1       3.498  28.580   8.660  1.00  0.00    -0.295 OA
BRANCH  36  38
HETATM   38  C29 UNL     1       1.786  27.250   7.858  1.00  0.00     0.049 C 
HETATM   39  C30 UNL     1       1.644  26.340   6.611  1.00  0.00     0.017 C 
HETATM   40  C31 UNL     1       0.414  27.705   8.182  1.00  0.00     0.017 C 
ENDBRANCH  36  38
ENDBRANCH  31  36
ENDBRANCH  27  31
ENDBRANCH   1  25
BRANCH   4  41
HETATM   41  C11 UNL     1       9.560  25.423   9.885  1.00  0.00     0.110 C 
HETATM   42 BR1  UNL     1       8.138  24.117   9.761  1.00  0.00    -0.094 Br
ENDBRANCH   4  41
BRANCH  20  43
HETATM   43  C23 UNL     1       6.677  23.911   3.183  1.00  0.00     0.038 C 
BRANCH  43  44
HETATM   44  C24 UNL     1       5.801  24.989   2.576  1.00  0.00    -0.020 C 
HETATM   45  C25 UNL     1       4.374  24.798   3.036  1.00  0.00     0.009 C 
HETATM   46  C26 UNL     1       5.782  24.846   1.060  1.00  0.00     0.009 C 
ENDBRANCH  43  44
ENDBRANCH  20  43
BRANCH   9  47
HETATM   47  C14 UNL     1      13.092  23.236   7.537  1.00  0.00     0.038 C 
BRANCH  47  48
HETATM   48  C15 UNL     1      13.145  21.768   7.786  1.00  0.00    -0.020 C 
HETATM   49  C16 UNL     1      14.052  21.518   9.020  1.00  0.00     0.009 C 
HETATM   50  C17 UNL     1      13.872  20.999   6.677  1.00  0.00     0.009 C 
ENDBRANCH  47  48
ENDBRANCH   9  47
TORSDOF 11
ENDMDL
MODEL 2
REMARK VINA RESULT: -6.980145638      0.661      2.065
REMARK  11 active torsions:
REMARK  status: ('A' for Active; 'I' for Inactive)
REMARK    1  A    between atoms: C2_2  and  C3_3 
REMARK    2  A    between atoms: C3_3  and  C5_5 
REMARK    3  A    between atoms: C5_5  and  N1_6 
REMARK    4  A    between atoms: C5_5  and  C28_46 
REMARK       I    between atoms: N1_6  and  C6_8 
REMARK       I    between atoms: C6_8  and  N2_10 
REMARK    5  A    between atoms: N2_10  and  C7_12 
REMARK    6  A    between atoms: C10_15  and  C11_16 
REMARK    7  A    between atoms: C13_22  and  C14_23 
REMARK    8  A    between atoms: C14_23  and  C15_24 
REMARK    9  A    between atoms: C22_37  and  C23_38 
REMARK   10  A    between atoms: C23_38  and  C24_39 
REMARK   11  A    between atoms: C28_46  and  C29_48 
ROOT
HETATM    1  C7  UNL     1       7.759  26.667   5.407  1.00  0.00     0.178 C 
HETATM    2  C8  UNL     1       8.941  26.515   6.324  1.00  0.00     0.037 C 
HETATM    3  C9  UNL     1       8.518  25.906   7.654  1.00  0.00     0.028 C 
HETATM    4  C10 UNL     1       9.670  26.273   8.606  1.00  0.00     0.094 C 
HETATM    5  N3  UNL     1      10.913  26.307   7.908  1.00  0.00    -0.354 N 
ATOM      6  H3  UNL     1      11.185  27.242   7.606  1.00  0.00     0.162 HD
HETATM    7  C12 UNL     1      11.824  25.324   7.557  1.00  0.00     0.240 C 
HETATM    8  O2  UNL     1      12.955  25.766   7.099  1.00  0.00    -0.271 OA
HETATM    9  C13 UNL     1      11.735  23.859   7.612  1.00  0.00     0.177 C 
HETATM   10  N4  UNL     1      10.787  23.213   6.782  1.00  0.00    -0.346 N 
ATOM     11  H4  UNL     1       9.884  23.051   7.227  1.00  0.00     0.163 HD
HETATM   12  C18 UNL     1      10.866  22.755   5.457  1.00  0.00     0.240 C 
HETATM   13  O3  UNL     1      10.684  21.497   5.213  1.00  0.00    -0.271 OA
HETATM   14  C19 UNL     1      11.140  23.523   4.219  1.00  0.00     0.172 C 
HETATM   15  C20 UNL     1      12.558  23.217   3.777  1.00  0.00     0.042 C 
HETATM   16  N5  UNL     1      10.288  23.037   3.115  1.00  0.00    -0.346 N 
ATOM     17  H5  UNL     1      10.566  22.171   2.655  1.00  0.00     0.163 HD
HETATM   18  C21 UNL     1       9.135  23.669   2.652  1.00  0.00     0.241 C 
HETATM   19  O4  UNL     1       8.878  23.633   1.395  1.00  0.00    -0.271 OA
HETATM   20  C22 UNL     1       8.138  24.400   3.466  1.00  0.00     0.177 C 
HETATM   21  N6  UNL     1       8.144  25.824   3.090  1.00  0.00    -0.346 N 
ATOM     22  H6  UNL     1       8.051  26.078   2.107  1.00  0.00     0.163 HD
HETATM   23  C27 UNL     1       8.276  26.846   4.053  1.00  0.00     0.241 C 
HETATM   24  O5  UNL     1       8.840  27.906   3.732  1.00  0.00    -0.271 OA
ENDROOT
BRANCH   1  25
HETATM   25  N2  UNL     1       6.983  27.807   5.872  1.00  0.00    -0.330 N 
HETATM   26  C6  UNL     1       5.706  27.671   6.457  1.00  0.00     0.317 C 
HETATM   27  N1  UNL     1       4.981  28.788   6.901  1.00  0.00    -0.331 N 
HETATM   28  O1  UNL     1       5.212  26.534   6.579  1.00  0.00    -0.247 OA
ATOM     29  H1  UNL     1       5.393  29.717   6.811  1.00  0.00     0.165 HD
ATOM     30  H2  UNL     1       7.378  28.742   5.771  1.00  0.00     0.165 HD
BRANCH  27  31
HETATM   31  C5  UNL     1       3.628  28.648   7.500  1.00  0.00     0.160 C 
BRANCH  31  32
HETATM   32  C3  UNL     1       2.928  27.534   6.810  1.00  0.00     0.011 C 
HETATM   33  C4  UNL     1       2.085  27.956   5.625  1.00  0.00     0.012 C 
BRANCH  32  34
HETATM   34  C2  UNL     1       2.030  26.720   7.696  1.00  0.00     0.002 C 
HETATM   35  C1  UNL     1       0.640  26.587   7.074  1.00  0.00     0.005 C 
ENDBRANCH  32  34
ENDBRANCH  31  32
BRANCH  31  36
HETATM   36  C28 UNL     1       2.990  29.967   7.333  1.00  0.00     0.153 C 
HETATM   37  O6  UNL     1       1.923  30.117   7.957  1.00  0.00    -0.295 OA
BRANCH  36  38
HETATM   38  C29 UNL     1       3.460  31.075   6.521  1.00  0.00     0.049 C 
HETATM   39  C30 UNL     1       3.501  32.384   7.352  1.00  0.00     0.017 C 
HETATM   40  C31 UNL     1       2.755  31.419   5.265  1.00  0.00     0.017 C 
ENDBRANCH  36  38
ENDBRANCH  31  36
ENDBRANCH  27  31
ENDBRANCH   1  25
BRANCH   4  41
HETATM   41  C11 UNL     1       9.598  25.497   9.867  1.00  0.00     0.110 C 
HETATM   42 BR1  UNL     1       8.152  24.216   9.758  1.00  0.00    -0.094 Br
ENDBRANCH   4  41
BRANCH  20  43
HETATM   43  C23 UNL     1       6.732  23.922   3.173  1.00  0.00     0.038 C 
BRANCH  43  44
HETATM   44  C24 UNL     1       5.846  25.030   2.640  1.00  0.00    -0.020 C 
HETATM   45  C25 UNL     1       4.615  25.154   3.509  1.00  0.00     0.009 C 
HETATM   46  C26 UNL     1       5.348  24.669   1.247  1.00  0.00     0.009 C 
ENDBRANCH  43  44
ENDBRANCH  20  43
BRANCH   9  47
HETATM   47  C14 UNL     1      13.111  23.223   7.575  1.00  0.00     0.038 C 
BRANCH  47  48
HETATM   48  C15 UNL     1      13.142  21.757   7.843  1.00  0.00    -0.020 C 
HETATM   49  C16 UNL     1      14.067  21.508   9.063  1.00  0.00     0.009 C 
HETATM   50  C17 UNL     1      13.833  20.960   6.732  1.00  0.00     0.009 C 
ENDBRANCH  47  48
ENDBRANCH   9  47
TORSDOF 11
ENDMDL
MODEL 3
REMARK VINA RESULT: -6.395535097      3.592      7.106
REMARK  11 active torsions:
REMARK  status: ('A' for Active; 'I' for Inactive)
REMARK    1  A    between atoms: C2_2  and  C3_3 
REMARK    2  A    between atoms: C3_3  and  C5_5 
REMARK    3  A    between atoms: C5_5  and  N1_6 
REMARK    4  A    between atoms: C5_5  and  C28_46 
REMARK       I    between atoms: N1_6  and  C6_8 
REMARK       I    between atoms: C6_8  and  N2_10 
REMARK    5  A    between atoms: N2_10  and  C7_12 
REMARK    6  A    between atoms: C10_15  and  C11_16 
REMARK    7  A    between atoms: C13_22  and  C14_23 
REMARK    8  A    between atoms: C14_23  and  C15_24 
REMARK    9  A    between atoms: C22_37  and  C23_38 
REMARK   10  A    between atoms: C23_38  and  C24_39 
REMARK   11  A    between atoms: C28_46  and  C29_48 
ROOT
HETATM    1  C7  UNL     1       4.507  25.514   3.735  1.00  0.00     0.178 C 
HETATM    2  C8  UNL     1       5.920  25.002   3.778  1.00  0.00     0.037 C 
HETATM    3  C9  UNL     1       6.786  25.719   2.752  1.00  0.00     0.028 C 
HETATM    4  C10 UNL     1       7.993  24.781   2.574  1.00  0.00     0.094 C 
HETATM    5  N3  UNL     1       8.294  24.107   3.794  1.00  0.00    -0.354 N 
ATOM      6  H3  UNL     1       7.886  23.175   3.856  1.00  0.00     0.162 HD
HETATM    7  C12 UNL     1       9.031  24.466   4.912  1.00  0.00     0.240 C 
HETATM    8  O2  UNL     1       9.257  23.500   5.749  1.00  0.00    -0.271 OA
HETATM    9  C13 UNL     1       9.604  25.754   5.320  1.00  0.00     0.177 C 
HETATM   10  N4  UNL     1       8.719  26.818   5.618  1.00  0.00    -0.346 N 
ATOM     11  H4  UNL     1       8.514  27.426   4.825  1.00  0.00     0.163 HD
HETATM   12  C18 UNL     1       8.072  27.188   6.808  1.00  0.00     0.240 C 
HETATM   13  O3  UNL     1       8.305  28.356   7.315  1.00  0.00    -0.271 OA
HETATM   14  C19 UNL     1       7.109  26.413   7.627  1.00  0.00     0.172 C 
HETATM   15  C20 UNL     1       7.829  25.931   8.871  1.00  0.00     0.042 C 
HETATM   16  N5  UNL     1       6.038  27.295   8.129  1.00  0.00    -0.346 N 
ATOM     17  H5  UNL     1       6.257  27.891   8.927  1.00  0.00     0.163 HD
HETATM   18  C21 UNL     1       4.751  27.377   7.601  1.00  0.00     0.241 C 
HETATM   19  O4  UNL     1       3.767  27.565   8.404  1.00  0.00    -0.271 OA
HETATM   20  C22 UNL     1       4.370  27.270   6.174  1.00  0.00     0.177 C 
HETATM   21  N6  UNL     1       3.548  26.065   5.972  1.00  0.00    -0.346 N 
ATOM     22  H6  UNL     1       2.732  25.916   6.566  1.00  0.00     0.163 HD
HETATM   23  C27 UNL     1       3.858  25.111   4.980  1.00  0.00     0.241 C 
HETATM   24  O5  UNL     1       3.568  23.919   5.181  1.00  0.00    -0.271 OA
ENDROOT
BRANCH   1  25
HETATM   25  N2  UNL     1       3.868  24.949   2.556  1.00  0.00    -0.330 N 
HETATM   26  C6  UNL     1       3.199  25.741   1.599  1.00  0.00     0.317 C 
HETATM   27  N1  UNL     1       2.595  25.170   0.468  1.00  0.00    -0.331 N 
HETATM   28  O1  UNL     1       3.142  26.974   1.765  1.00  0.00    -0.247 OA
ATOM     29  H1  UNL     1       2.652  24.161   0.328  1.00  0.00     0.165 HD
ATOM     30  H2  UNL     1       3.905  23.939   2.415  1.00  0.00     0.165 HD
BRANCH  27  31
HETATM   31  C5  UNL     1       1.873  26.002  -0.531  1.00  0.00     0.160 C 
BRANCH  31  32
HETATM   32  C3  UNL     1       0.478  25.499  -0.631  1.00  0.00     0.011 C 
HETATM   33  C4  UNL     1      -0.542  26.311   0.137  1.00  0.00     0.012 C 
BRANCH  32  34
HETATM   34  C2  UNL     1       0.298  24.074  -0.192  1.00  0.00     0.002 C 
HETATM   35  C1  UNL     1      -0.492  23.288  -1.238  1.00  0.00     0.005 C 
ENDBRANCH  32  34
ENDBRANCH  31  32
BRANCH  31  36
HETATM   36  C28 UNL     1       2.656  25.882  -1.775  1.00  0.00     0.153 C 
HETATM   37  O6  UNL     1       3.841  26.253  -1.688  1.00  0.00    -0.295 OA
BRANCH  36  38
HETATM   38  C29 UNL     1       2.191  25.402  -3.064  1.00  0.00     0.049 C 
HETATM   39  C30 UNL     1       2.501  23.892  -3.229  1.00  0.00     0.017 C 
HETATM   40  C31 UNL     1       2.669  26.049  -4.307  1.00  0.00     0.017 C 
ENDBRANCH  36  38
ENDBRANCH  31  36
ENDBRANCH  27  31
ENDBRANCH   1  25
BRANCH   4  41
HETATM   41  C11 UNL     1       9.102  25.456   1.857  1.00  0.00     0.110 C 
HETATM   42 BR1  UNL     1      10.551  24.205   1.580  1.00  0.00    -0.094 Br
ENDBRANCH   4  41
BRANCH  20  43
HETATM   43  C23 UNL     1       3.487  28.425   5.752  1.00  0.00     0.038 C 
BRANCH  43  44
HETATM   44  C24 UNL     1       2.049  28.000   5.536  1.00  0.00    -0.020 C 
HETATM   45  C25 UNL     1       1.561  28.528   4.206  1.00  0.00     0.009 C 
HETATM   46  C26 UNL     1       1.157  28.633   6.597  1.00  0.00     0.009 C 
ENDBRANCH  43  44
ENDBRANCH  20  43
BRANCH   9  47
HETATM   47  C14 UNL     1      10.701  25.566   6.351  1.00  0.00     0.038 C 
BRANCH  47  48
HETATM   48  C15 UNL     1      11.513  24.326   6.197  1.00  0.00    -0.020 C 
HETATM   49  C16 UNL     1      12.282  24.084   7.523  1.00  0.00     0.009 C 
HETATM   50  C17 UNL     1      12.647  24.477   5.177  1.00  0.00     0.009 C 
ENDBRANCH  47  48
ENDBRANCH   9  47
TORSDOF 11
ENDMDL
MODEL 4
REMARK VINA RESULT: -6.327188303      6.915     11.555
REMARK  11 active torsions:
REMARK  status: ('A' for Active; 'I' for Inactive)
REMARK    1  A    between atoms: C2_2  and  C3_3 
REMARK    2  A    between atoms: C3_3  and  C5_5 
REMARK    3  A    between atoms: C5_5  and  N1_6 
REMARK    4  A    between atoms: C5_5  and  C28_46 
REMARK       I    between atoms: N1_6  and  C6_8 
REMARK       I    between atoms: C6_8  and  N2_10 
REMARK    5  A    between atoms: N2_10  and  C7_12 
REMARK    6  A    between atoms: C10_15  and  C11_16 
REMARK    7  A    between atoms: C13_22  and  C14_23 
REMARK    8  A    between atoms: C14_23  and  C15_24 
REMARK    9  A    between atoms: C22_37  and  C23_38 
REMARK   10  A    between atoms: C23_38  and  C24_39 
REMARK   11  A    between atoms: C28_46  and  C29_48 
ROOT
HETATM    1  C7  UNL     1      16.709  19.474   7.219  1.00  0.00     0.178 C 
HETATM    2  C8  UNL     1      17.496  18.976   8.399  1.00  0.00     0.037 C 
HETATM    3  C9  UNL     1      16.582  18.302   9.413  1.00  0.00     0.028 C 
HETATM    4  C10 UNL     1      17.408  18.311  10.711  1.00  0.00     0.094 C 
HETATM    5  N3  UNL     1      18.799  18.183  10.427  1.00  0.00    -0.354 N 
ATOM      6  H3  UNL     1      19.292  19.075  10.393  1.00  0.00     0.162 HD
HETATM    7  C12 UNL     1      19.616  17.089  10.187  1.00  0.00     0.240 C 
HETATM    8  O2  UNL     1      20.887  17.351  10.170  1.00  0.00    -0.271 OA
HETATM    9  C13 UNL     1      19.295  15.677   9.947  1.00  0.00     0.177 C 
HETATM   10  N4  UNL     1      18.579  15.342   8.773  1.00  0.00    -0.346 N 
ATOM     11  H4  UNL     1      17.566  15.308   8.896  1.00  0.00     0.163 HD
HETATM   12  C18 UNL     1      19.009  15.047   7.470  1.00  0.00     0.240 C 
HETATM   13  O3  UNL     1      18.728  13.891   6.959  1.00  0.00    -0.271 OA
HETATM   14  C19 UNL     1      19.779  15.894   6.527  1.00  0.00     0.172 C 
HETATM   15  C20 UNL     1      21.200  15.368   6.473  1.00  0.00     0.042 C 
HETATM   16  N5  UNL     1      19.265  15.729   5.153  1.00  0.00    -0.346 N 
ATOM     17  H5  UNL     1      19.542  14.889   4.646  1.00  0.00     0.163 HD
HETATM   18  C21 UNL     1      18.431  16.631   4.494  1.00  0.00     0.241 C 
HETATM   19  O4  UNL     1      18.589  16.805   3.232  1.00  0.00    -0.271 OA
HETATM   20  C22 UNL     1      17.347  17.439   5.097  1.00  0.00     0.177 C 
HETATM   21  N6  UNL     1      17.687  18.868   5.005  1.00  0.00    -0.346 N 
ATOM     22  H6  UNL     1      17.954  19.257   4.100  1.00  0.00     0.163 HD
HETATM   23  C27 UNL     1      17.654  19.715   6.132  1.00  0.00     0.241 C 
HETATM   24  O5  UNL     1      18.445  20.673   6.188  1.00  0.00    -0.271 OA
ENDROOT
BRANCH   1  25
HETATM   25  N2  UNL     1      16.006  20.679   7.634  1.00  0.00    -0.330 N 
HETATM   26  C6  UNL     1      14.684  20.965   7.233  1.00  0.00     0.317 C 
HETATM   27  N1  UNL     1      14.028  22.133   7.651  1.00  0.00    -0.331 N 
HETATM   28  O1  UNL     1      14.088  20.164   6.488  1.00  0.00    -0.247 OA
ATOM     29  H1  UNL     1      14.512  22.783   8.271  1.00  0.00     0.165 HD
ATOM     30  H2  UNL     1      16.488  21.343   8.239  1.00  0.00     0.165 HD
BRANCH  27  31
HETATM   31  C5  UNL     1      12.641  22.445   7.214  1.00  0.00     0.160 C 
BRANCH  31  32
HETATM   32  C3  UNL     1      12.535  22.147   5.762  1.00  0.00     0.011 C 
HETATM   33  C4  UNL     1      13.073  23.233   4.854  1.00  0.00     0.012 C 
BRANCH  32  34
HETATM   34  C2  UNL     1      11.141  21.855   5.287  1.00  0.00     0.002 C 
HETATM   35  C1  UNL     1      10.857  22.585   3.975  1.00  0.00     0.005 C 
ENDBRANCH  32  34
ENDBRANCH  31  32
BRANCH  31  36
HETATM   36  C28 UNL     1      12.432  23.862   7.563  1.00  0.00     0.153 C 
HETATM   37  O6  UNL     1      13.472  24.542   7.644  1.00  0.00    -0.295 OA
BRANCH  36  38
HETATM   38  C29 UNL     1      11.168  24.525   7.831  1.00  0.00     0.049 C 
HETATM   39  C30 UNL     1      10.708  25.344   6.598  1.00  0.00     0.017 C 
HETATM   40  C31 UNL     1      11.049  25.440   8.990  1.00  0.00     0.017 C 
ENDBRANCH  36  38
ENDBRANCH  31  36
ENDBRANCH  27  31
ENDBRANCH   1  25
BRANCH   4  41
HETATM   41  C11 UNL     1      16.818  17.412  11.733  1.00  0.00     0.110 C 
HETATM   42 BR1  UNL     1      15.522  16.243  10.898  1.00  0.00    -0.094 Br
ENDBRANCH   4  41
BRANCH  20  43
HETATM   43  C23 UNL     1      16.055  17.291   4.323  1.00  0.00     0.038 C 
BRANCH  43  44
HETATM   44  C24 UNL     1      15.781  18.482   3.427  1.00  0.00    -0.020 C 
HETATM   45  C25 UNL     1      14.344  18.922   3.597  1.00  0.00     0.009 C 
HETATM   46  C26 UNL     1      15.930  18.076   1.967  1.00  0.00     0.009 C 
ENDBRANCH  43  44
ENDBRANCH  20  43
BRANCH   9  47
HETATM   47  C14 UNL     1      20.498  14.789  10.201  1.00  0.00     0.038 C 
BRANCH  47  48
HETATM   48  C15 UNL     1      20.187  13.352  10.448  1.00  0.00    -0.020 C 
HETATM   49  C16 UNL     1      20.822  12.945  11.803  1.00  0.00     0.009 C 
HETATM   50  C17 UNL     1      20.882  12.412   9.458  1.00  0.00     0.009 C 
ENDBRANCH  47  48
ENDBRANCH   9  47
TORSDOF 11
ENDMDL
MODEL 5
REMARK VINA RESULT: -6.304872591      3.660      6.996
REMARK  11 active torsions:
REMARK  status: ('A' for Active; 'I' for Inactive)
REMARK    1  A    between atoms: C2_2  and  C3_3 
REMARK    2  A    between atoms: C3_3  and  C5_5 
REMARK    3  A    between atoms: C5_5  and  N1_6 
REMARK    4  A    between atoms: C5_5  and  C28_46 
REMARK       I    between atoms: N1_6  and  C6_8 
REMARK       I    between atoms: C6_8  and  N2_10 
REMARK    5  A    between atoms: N2_10  and  C7_12 
REMARK    6  A    between atoms: C10_15  and  C11_16 
REMARK    7  A    between atoms: C13_22  and  C14_23 
REMARK    8  A    between atoms: C14_23  and  C15_24 
REMARK    9  A    between atoms: C22_37  and  C23_38 
REMARK   10  A    between atoms: C23_38  and  C24_39 
REMARK   11  A    between atoms: C28_46  and  C29_48 
ROOT
HETATM    1  C7  UNL     1       4.420  25.456   3.777  1.00  0.00     0.178 C 
HETATM    2  C8  UNL     1       5.832  24.940   3.835  1.00  0.00     0.037 C 
HETATM    3  C9  UNL     1       6.699  25.618   2.785  1.00  0.00     0.028 C 
HETATM    4  C10 UNL     1       7.902  24.670   2.637  1.00  0.00     0.094 C 
HETATM    5  N3  UNL     1       8.202  24.037   3.879  1.00  0.00    -0.354 N 
ATOM      6  H3  UNL     1       7.790  23.108   3.972  1.00  0.00     0.162 HD
HETATM    7  C12 UNL     1       8.942  24.429   4.983  1.00  0.00     0.240 C 
HETATM    8  O2  UNL     1       9.165  23.491   5.852  1.00  0.00    -0.271 OA
HETATM    9  C13 UNL     1       9.521  25.728   5.347  1.00  0.00     0.177 C 
HETATM   10  N4  UNL     1       8.640  26.805   5.610  1.00  0.00    -0.346 N 
ATOM     11  H4  UNL     1       8.437  27.387   4.798  1.00  0.00     0.163 HD
HETATM   12  C18 UNL     1       7.997  27.217   6.788  1.00  0.00     0.240 C 
HETATM   13  O3  UNL     1       8.235  28.401   7.255  1.00  0.00    -0.271 OA
HETATM   14  C19 UNL     1       7.031  26.474   7.633  1.00  0.00     0.172 C 
HETATM   15  C20 UNL     1       7.751  26.031   8.892  1.00  0.00     0.042 C 
HETATM   16  N5  UNL     1       5.964  27.376   8.107  1.00  0.00    -0.346 N 
ATOM     17  H5  UNL     1       6.186  27.998   8.884  1.00  0.00     0.163 HD
HETATM   18  C21 UNL     1       4.677  27.446   7.578  1.00  0.00     0.241 C 
HETATM   19  O4  UNL     1       3.695  27.666   8.376  1.00  0.00    -0.271 OA
HETATM   20  C22 UNL     1       4.294  27.293   6.156  1.00  0.00     0.177 C 
HETATM   21  N6  UNL     1       3.467  26.086   5.995  1.00  0.00    -0.346 N 
ATOM     22  H6  UNL     1       2.651  25.961   6.595  1.00  0.00     0.163 HD
HETATM   23  C27 UNL     1       3.771  25.098   5.035  1.00  0.00     0.241 C 
HETATM   24  O5  UNL     1       3.477  23.915   5.276  1.00  0.00    -0.271 OA
ENDROOT
BRANCH   1  25
HETATM   25  N2  UNL     1       3.778  24.854   2.618  1.00  0.00    -0.330 N 
HETATM   26  C6  UNL     1       3.213  25.622   1.577  1.00  0.00     0.317 C 
HETATM   27  N1  UNL     1       2.603  25.015   0.468  1.00  0.00    -0.331 N 
HETATM   28  O1  UNL     1       3.256  26.865   1.647  1.00  0.00    -0.247 OA
ATOM     29  H1  UNL     1       2.579  23.997   0.407  1.00  0.00     0.165 HD
ATOM     30  H2  UNL     1       3.733  23.838   2.555  1.00  0.00     0.165 HD
BRANCH  27  31
HETATM   31  C5  UNL     1       1.991  25.822  -0.620  1.00  0.00     0.160 C 
BRANCH  31  32
HETATM   32  C3  UNL     1       0.535  25.941  -0.346  1.00  0.00     0.011 C 
HETATM   33  C4  UNL     1      -0.312  24.835  -0.939  1.00  0.00     0.012 C 
BRANCH  32  34
HETATM   34  C2  UNL     1      -0.080  27.233  -0.805  1.00  0.00     0.002 C 
HETATM   35  C1  UNL     1       0.902  28.389  -0.618  1.00  0.00     0.005 C 
ENDBRANCH  32  34
ENDBRANCH  31  32
BRANCH  31  36
HETATM   36  C28 UNL     1       2.321  25.108  -1.867  1.00  0.00     0.153 C 
HETATM   37  O6  UNL     1       2.469  23.878  -1.745  1.00  0.00    -0.295 OA
BRANCH  36  38
HETATM   38  C29 UNL     1       2.501  25.683  -3.189  1.00  0.00     0.049 C 
HETATM   39  C30 UNL     1       3.347  26.980  -3.111  1.00  0.00     0.017 C 
HETATM   40  C31 UNL     1       1.317  26.024  -4.011  1.00  0.00     0.017 C 
ENDBRANCH  36  38
ENDBRANCH  31  36
ENDBRANCH  27  31
ENDBRANCH   1  25
BRANCH   4  41
HETATM   41  C11 UNL     1       9.013  25.316   1.896  1.00  0.00     0.110 C 
HETATM   42 BR1  UNL     1      10.488  24.076   1.730  1.00  0.00    -0.094 Br
ENDBRANCH   4  41
BRANCH  20  43
HETATM   43  C23 UNL     1       3.415  28.437   5.697  1.00  0.00     0.038 C 
BRANCH  43  44
HETATM   44  C24 UNL     1       1.983  28.003   5.458  1.00  0.00    -0.020 C 
HETATM   45  C25 UNL     1       1.542  28.452   4.084  1.00  0.00     0.009 C 
HETATM   46  C26 UNL     1       1.060  28.698   6.450  1.00  0.00     0.009 C 
ENDBRANCH  43  44
ENDBRANCH  20  43
BRANCH   9  47
HETATM   47  C14 UNL     1      10.618  25.570   6.383  1.00  0.00     0.038 C 
BRANCH  47  48
HETATM   48  C15 UNL     1      11.487  24.372   6.211  1.00  0.00    -0.020 C 
HETATM   49  C16 UNL     1      12.261  24.142   7.536  1.00  0.00     0.009 C 
HETATM   50  C17 UNL     1      12.617  24.594   5.199  1.00  0.00     0.009 C 
ENDBRANCH  47  48
ENDBRANCH   9  47
TORSDOF 11
ENDMDL
