MODEL 1
REMARK VINA RESULT: -7.361392915      0.000      0.000
REMARK  3 active torsions:
REMARK  status: ('A' for Active; 'I' for Inactive)
REMARK    1  A    between atoms: N1_1  and  C1_4 
REMARK    2  A    between atoms: N5_17  and  N6_18 
REMARK    3  A    between atoms: N6_18  and  O3_20 
ROOT
HETATM    1  C1  UNL     1     118.644  41.038  65.240  1.00  0.00     0.680 A 
HETATM    2  N2  UNL     1     119.514  41.606  64.387  1.00  0.00    -0.154 N 
ATOM      3  H2  UNL     1     119.870  42.536  64.603  1.00  0.00     0.187 HD
HETATM    4  C2  UNL     1     119.938  41.000  63.258  1.00  0.00     0.292 A 
HETATM    5  O1  UNL     1     120.761  41.578  62.485  1.00  0.00    -0.265 OA
HETATM    6  C3  UNL     1     119.474  39.742  62.938  1.00  0.00     0.176 A 
HETATM    7  C4  UNL     1     118.579  39.161  63.816  1.00  0.00     0.160 A 
HETATM    8  N3  UNL     1     118.185  39.811  64.937  1.00  0.00    -0.174 N 
ATOM      9  H3  UNL     1     117.524  39.358  65.569  1.00  0.00     0.186 HD
HETATM   10  N4  UNL     1     118.298  37.960  63.266  1.00  0.00    -0.290 N 
ATOM     11  H4  UNL     1     117.662  37.269  63.665  1.00  0.00     0.172 HD
HETATM   12  C5  UNL     1     118.978  37.807  62.116  1.00  0.00     0.349 A 
HETATM   13  O2  UNL     1     118.963  36.814  61.334  1.00  0.00    -0.244 OA
HETATM   14  N5  UNL     1     119.725  38.929  61.900  1.00  0.00    -0.176 N 
ENDROOT
BRANCH  14  15
HETATM   15  N6  UNL     1     120.582  39.194  60.822  1.00  0.00    -0.199 N 
ATOM     16  H6  UNL     1     121.561  39.446  60.959  1.00  0.00     0.216 HD
BRANCH  15  17
HETATM   17  O3  UNL     1     120.066  39.102  59.670  1.00  0.00    -0.274 OA
ATOM     18  H3  UNL     1     119.120  39.183  59.631  1.00  0.00     0.246 HD
ENDBRANCH  15  17
ENDBRANCH  14  15
BRANCH   1  19
HETATM   19  N1  UNL     1     118.254  41.654  66.327  1.00  0.00    -0.234 N 
ATOM     20  H12 UNL     1     117.529  42.371  66.293  1.00  0.00     0.174 HD
ATOM     21  H11 UNL     1     118.663  41.437  67.236  1.00  0.00     0.174 HD
ENDBRANCH   1  19
TORSDOF 3
ENDMDL
MODEL 2
REMARK VINA RESULT: -6.692196875      1.305      2.700
REMARK  3 active torsions:
REMARK  status: ('A' for Active; 'I' for Inactive)
REMARK    1  A    between atoms: N1_1  and  C1_4 
REMARK    2  A    between atoms: N5_17  and  N6_18 
REMARK    3  A    between atoms: N6_18  and  O3_20 
ROOT
HETATM    1  C1  UNL     1     118.190  40.819  65.075  1.00  0.00     0.680 A 
HETATM    2  N2  UNL     1     117.866  39.626  64.547  1.00  0.00    -0.154 N 
ATOM      3  H2  UNL     1     117.083  39.112  64.950  1.00  0.00     0.187 HD
HETATM    4  C2  UNL     1     118.529  39.078  63.507  1.00  0.00     0.292 A 
HETATM    5  O1  UNL     1     118.183  37.949  63.044  1.00  0.00    -0.265 OA
HETATM    6  C3  UNL     1     119.592  39.749  62.941  1.00  0.00     0.176 A 
HETATM    7  C4  UNL     1     119.924  40.974  63.486  1.00  0.00     0.160 A 
HETATM    8  N3  UNL     1     119.226  41.481  64.530  1.00  0.00    -0.174 N 
ATOM      9  H3  UNL     1     119.492  42.389  64.912  1.00  0.00     0.186 HD
HETATM   10  N4  UNL     1     120.977  41.396  62.753  1.00  0.00    -0.290 N 
ATOM     11  H4  UNL     1     121.472  42.277  62.895  1.00  0.00     0.172 HD
HETATM   12  C5  UNL     1     121.279  40.485  61.810  1.00  0.00     0.349 A 
HETATM   13  O2  UNL     1     122.201  40.541  60.947  1.00  0.00    -0.244 OA
HETATM   14  N5  UNL     1     120.408  39.439  61.921  1.00  0.00    -0.176 N 
ENDROOT
BRANCH  14  15
HETATM   15  N6  UNL     1     120.362  38.275  61.140  1.00  0.00    -0.199 N 
ATOM     16  H6  UNL     1     120.957  37.470  61.334  1.00  0.00     0.216 HD
BRANCH  15  17
HETATM   17  O3  UNL     1     119.537  38.286  60.180  1.00  0.00    -0.274 OA
ATOM     18  H3  UNL     1     119.079  37.469  60.018  1.00  0.00     0.246 HD
ENDBRANCH  15  17
ENDBRANCH  14  15
BRANCH   1  19
HETATM   19  N1  UNL     1     117.525  41.321  66.084  1.00  0.00    -0.234 N 
ATOM     20  H12 UNL     1     117.853  41.200  67.043  1.00  0.00     0.174 HD
ATOM     21  H11 UNL     1     116.662  41.846  65.943  1.00  0.00     0.174 HD
ENDBRANCH   1  19
TORSDOF 3
ENDMDL
MODEL 3
REMARK VINA RESULT: -6.624962642      2.651      3.278
REMARK  3 active torsions:
REMARK  status: ('A' for Active; 'I' for Inactive)
REMARK    1  A    between atoms: N1_1  and  C1_4 
REMARK    2  A    between atoms: N5_17  and  N6_18 
REMARK    3  A    between atoms: N6_18  and  O3_20 
ROOT
HETATM    1  C1  UNL     1     116.713  43.297  63.946  1.00  0.00     0.680 A 
HETATM    2  N2  UNL     1     117.056  42.514  64.984  1.00  0.00    -0.154 N 
ATOM      3  H2  UNL     1     116.897  42.861  65.929  1.00  0.00     0.187 HD
HETATM    4  C2  UNL     1     117.601  41.289  64.830  1.00  0.00     0.292 A 
HETATM    5  O1  UNL     1     117.907  40.588  65.842  1.00  0.00    -0.265 OA
HETATM    6  C3  UNL     1     117.829  40.793  63.564  1.00  0.00     0.176 A 
HETATM    7  C4  UNL     1     117.476  41.600  62.500  1.00  0.00     0.160 A 
HETATM    8  N3  UNL     1     116.931  42.823  62.708  1.00  0.00    -0.174 N 
ATOM      9  H3  UNL     1     116.679  43.398  61.904  1.00  0.00     0.186 HD
HETATM   10  N4  UNL     1     117.803  40.879  61.406  1.00  0.00    -0.290 N 
ATOM     11  H4  UNL     1     117.672  41.188  60.442  1.00  0.00     0.172 HD
HETATM   12  C5  UNL     1     118.327  39.695  61.772  1.00  0.00     0.349 A 
HETATM   13  O2  UNL     1     118.744  38.768  61.020  1.00  0.00    -0.244 OA
HETATM   14  N5  UNL     1     118.348  39.631  63.135  1.00  0.00    -0.176 N 
ENDROOT
BRANCH  14  15
HETATM   15  N6  UNL     1     118.811  38.578  63.937  1.00  0.00    -0.199 N 
ATOM     16  H6  UNL     1     119.425  38.737  64.736  1.00  0.00     0.216 HD
BRANCH  15  17
HETATM   17  O3  UNL     1     118.420  37.420  63.610  1.00  0.00    -0.274 OA
ATOM     18  H3  UNL     1     119.049  36.719  63.734  1.00  0.00     0.246 HD
ENDBRANCH  15  17
ENDBRANCH  14  15
BRANCH   1  19
HETATM   19  N1  UNL     1     116.186  44.481  64.131  1.00  0.00    -0.234 N 
ATOM     20  H12 UNL     1     115.211  44.666  63.893  1.00  0.00     0.174 HD
ATOM     21  H11 UNL     1     116.732  45.251  64.517  1.00  0.00     0.174 HD
ENDBRANCH   1  19
TORSDOF 3
ENDMDL
MODEL 4
REMARK VINA RESULT: -6.466915078      4.698      7.180
REMARK  3 active torsions:
REMARK  status: ('A' for Active; 'I' for Inactive)
REMARK    1  A    between atoms: N1_1  and  C1_4 
REMARK    2  A    between atoms: N5_17  and  N6_18 
REMARK    3  A    between atoms: N6_18  and  O3_20 
ROOT
HETATM    1  C1  UNL     1     117.909  40.736  65.531  1.00  0.00     0.680 A 
HETATM    2  N2  UNL     1     117.914  40.205  66.766  1.00  0.00    -0.154 N 
ATOM      3  H2  UNL     1     117.770  39.200  66.864  1.00  0.00     0.187 HD
HETATM    4  C2  UNL     1     118.101  40.941  67.881  1.00  0.00     0.292 A 
HETATM    5  O1  UNL     1     118.097  40.392  69.025  1.00  0.00    -0.265 OA
HETATM    6  C3  UNL     1     118.297  42.301  67.781  1.00  0.00     0.176 A 
HETATM    7  C4  UNL     1     118.291  42.845  66.511  1.00  0.00     0.160 A 
HETATM    8  N3  UNL     1     118.100  42.062  65.422  1.00  0.00    -0.174 N 
ATOM      9  H3  UNL     1     118.101  42.490  64.496  1.00  0.00     0.186 HD
HETATM   10  N4  UNL     1     118.501  44.164  66.707  1.00  0.00    -0.290 N 
ATOM     11  H4  UNL     1     118.555  44.864  65.966  1.00  0.00     0.172 HD
HETATM   12  C5  UNL     1     118.630  44.423  68.021  1.00  0.00     0.349 A 
HETATM   13  O2  UNL     1     118.835  45.541  68.574  1.00  0.00    -0.244 OA
HETATM   14  N5  UNL     1     118.503  43.250  68.709  1.00  0.00    -0.176 N 
ENDROOT
BRANCH  14  15
HETATM   15  N6  UNL     1     118.569  43.058  70.096  1.00  0.00    -0.199 N 
ATOM     16  H6  UNL     1     117.853  42.540  70.606  1.00  0.00     0.216 HD
BRANCH  15  17
HETATM   17  O3  UNL     1     119.572  43.567  70.678  1.00  0.00    -0.274 OA
ATOM     18  H3  UNL     1     119.566  43.526  71.627  1.00  0.00     0.246 HD
ENDBRANCH  15  17
ENDBRANCH  14  15
BRANCH   1  19
HETATM   19  N1  UNL     1     117.725  39.992  64.469  1.00  0.00    -0.234 N 
ATOM     20  H12 UNL     1     117.089  40.285  63.727  1.00  0.00     0.174 HD
ATOM     21  H11 UNL     1     118.208  39.102  64.355  1.00  0.00     0.174 HD
ENDBRANCH   1  19
TORSDOF 3
ENDMDL
MODEL 5
REMARK VINA RESULT: -6.445494122      2.537      3.243
REMARK  3 active torsions:
REMARK  status: ('A' for Active; 'I' for Inactive)
REMARK    1  A    between atoms: N1_1  and  C1_4 
REMARK    2  A    between atoms: N5_17  and  N6_18 
REMARK    3  A    between atoms: N6_18  and  O3_20 
ROOT
HETATM    1  C1  UNL     1     117.114  42.839  62.638  1.00  0.00     0.680 A 
HETATM    2  N2  UNL     1     117.128  42.250  63.847  1.00  0.00    -0.154 N 
ATOM      3  H2  UNL     1     116.792  42.780  64.650  1.00  0.00     0.187 HD
HETATM    4  C2  UNL     1     117.566  40.989  64.044  1.00  0.00     0.292 A 
HETATM    5  O1  UNL     1     117.559  40.478  65.205  1.00  0.00    -0.265 OA
HETATM    6  C3  UNL     1     118.028  40.248  62.978  1.00  0.00     0.176 A 
HETATM    7  C4  UNL     1     118.013  40.856  61.737  1.00  0.00     0.160 A 
HETATM    8  N3  UNL     1     117.562  42.124  61.591  1.00  0.00    -0.174 N 
ATOM      9  H3  UNL     1     117.561  42.549  60.664  1.00  0.00     0.186 HD
HETATM   10  N4  UNL     1     118.508  39.921  60.897  1.00  0.00    -0.290 N 
ATOM     11  H4  UNL     1     118.633  40.047  59.892  1.00  0.00     0.172 HD
HETATM   12  C5  UNL     1     118.811  38.801  61.578  1.00  0.00     0.349 A 
HETATM   13  O2  UNL     1     119.293  37.725  61.122  1.00  0.00    -0.244 OA
HETATM   14  N5  UNL     1     118.511  38.998  62.895  1.00  0.00    -0.176 N 
ENDROOT
BRANCH  14  15
HETATM   15  N6  UNL     1     118.668  38.093  63.955  1.00  0.00    -0.199 N 
ATOM     16  H6  UNL     1     119.073  38.372  64.848  1.00  0.00     0.216 HD
BRANCH  15  17
HETATM   17  O3  UNL     1     118.277  36.910  63.735  1.00  0.00    -0.274 OA
ATOM     18  H3  UNL     1     118.699  36.231  64.247  1.00  0.00     0.246 HD
ENDBRANCH  15  17
ENDBRANCH  14  15
BRANCH   1  19
HETATM   19  N1  UNL     1     116.681  44.065  62.482  1.00  0.00    -0.234 N 
ATOM     20  H12 UNL     1     116.685  44.726  63.259  1.00  0.00     0.174 HD
ATOM     21  H11 UNL     1     116.329  44.393  61.583  1.00  0.00     0.174 HD
ENDBRANCH   1  19
TORSDOF 3
ENDMDL
