MODEL 1
REMARK VINA RESULT: -9.405090622      0.000      0.000
REMARK  1 active torsions:
REMARK  status: ('A' for Active; 'I' for Inactive)
REMARK    1  A    between atoms: C12_20  and  C13_21 
ROOT
HETATM    1  N1  UNL     1     -25.019  34.570  -8.686  1.00  0.00    -0.190 NA
HETATM    2  C1  UNL     1     -23.894  34.692  -8.467  1.00  0.00     0.118 C 
HETATM    3  C2  UNL     1     -22.505  34.854  -8.185  1.00  0.00     0.125 A 
HETATM    4  N2  UNL     1     -21.827  34.041  -7.360  1.00  0.00    -0.345 N 
ATOM      5  H2  UNL     1     -22.325  33.272  -6.913  1.00  0.00     0.167 HD
HETATM    6  C3  UNL     1     -20.530  34.199  -7.100  1.00  0.00     0.061 A 
HETATM    7  C4  UNL     1     -19.862  35.245  -7.715  1.00  0.00     0.068 A 
HETATM    8  C5  UNL     1     -20.498  36.119  -8.571  1.00  0.00     0.006 A 
HETATM    9  C6  UNL     1     -19.836  37.162  -9.171  1.00  0.00     0.014 A 
HETATM   10  C7  UNL     1     -20.556  37.995 -10.015  1.00  0.00     0.001 A 
HETATM   11  C8  UNL     1     -21.897  37.800 -10.257  1.00  0.00     0.001 A 
HETATM   12  C9  UNL     1     -22.539  36.762  -9.654  1.00  0.00     0.015 A 
HETATM   13  C10 UNL     1     -21.855  35.909  -8.805  1.00  0.00     0.014 A 
HETATM   14  N3  UNL     1     -18.457  35.367  -7.529  1.00  0.00    -0.364 N 
ATOM     15  H3  UNL     1     -17.921  35.912  -8.205  1.00  0.00     0.161 HD
HETATM   16  C11 UNL     1     -17.775  34.766  -6.451  1.00  0.00     0.233 C 
HETATM   17  N4  UNL     1     -16.576  34.012  -6.755  1.00  0.00    -0.110 NA
HETATM   18  N5  UNL     1     -16.372  33.207  -5.598  1.00  0.00    -0.300 N 
ATOM     19  H5  UNL     1     -15.472  32.850  -5.278  1.00  0.00     0.182 HD
HETATM   20  C12 UNL     1     -17.533  32.996  -5.006  1.00  0.00     0.067 C 
HETATM   21  C19 UNL     1     -18.551  33.628  -5.840  1.00  0.00     0.013 C 
HETATM   22  C20 UNL     1     -19.801  33.386  -6.140  1.00  0.00     0.045 C 
ENDROOT
BRANCH  20  23
HETATM   23  C13 UNL     1     -17.743  32.224  -3.797  1.00  0.00     0.031 A 
HETATM   24  C14 UNL     1     -17.304  30.955  -3.561  1.00  0.00     0.017 A 
HETATM   25  C15 UNL     1     -17.566  30.253  -2.384  1.00  0.00     0.001 A 
HETATM   26  C16 UNL     1     -18.309  30.868  -1.405  1.00  0.00     0.003 A 
HETATM   27  C17 UNL     1     -18.777  32.150  -1.597  1.00  0.00     0.043 A 
HETATM   28  C18 UNL     1     -18.494  32.804  -2.772  1.00  0.00     0.129 A 
HETATM   29  F1  UNL     1     -18.967  34.070  -2.937  1.00  0.00    -0.205 F 
ENDBRANCH  20  23
TORSDOF 1
ENDMDL
MODEL 2
REMARK VINA RESULT: -9.337211697      1.142      1.515
REMARK  1 active torsions:
REMARK  status: ('A' for Active; 'I' for Inactive)
REMARK    1  A    between atoms: C12_20  and  C13_21 
ROOT
HETATM    1  N1  UNL     1     -25.191  35.758  -9.092  1.00  0.00    -0.190 NA
HETATM    2  C1  UNL     1     -24.058  35.770  -8.881  1.00  0.00     0.118 C 
HETATM    3  C2  UNL     1     -22.658  35.798  -8.611  1.00  0.00     0.125 A 
HETATM    4  N2  UNL     1     -22.076  35.021  -7.685  1.00  0.00    -0.345 N 
ATOM      5  H2  UNL     1     -22.660  34.379  -7.148  1.00  0.00     0.167 HD
HETATM    6  C3  UNL     1     -20.768  35.052  -7.437  1.00  0.00     0.061 A 
HETATM    7  C4  UNL     1     -19.983  35.924  -8.174  1.00  0.00     0.068 A 
HETATM    8  C5  UNL     1     -20.515  36.753  -9.139  1.00  0.00     0.006 A 
HETATM    9  C6  UNL     1     -19.738  37.624  -9.861  1.00  0.00     0.014 A 
HETATM   10  C7  UNL     1     -20.358  38.424 -10.808  1.00  0.00     0.001 A 
HETATM   11  C8  UNL     1     -21.714  38.363 -11.034  1.00  0.00     0.001 A 
HETATM   12  C9  UNL     1     -22.472  37.495 -10.309  1.00  0.00     0.015 A 
HETATM   13  C10 UNL     1     -21.890  36.680  -9.355  1.00  0.00     0.014 A 
HETATM   14  N3  UNL     1     -18.572  35.898  -7.995  1.00  0.00    -0.364 N 
ATOM     15  H3  UNL     1     -17.979  36.285  -8.730  1.00  0.00     0.161 HD
HETATM   16  C11 UNL     1     -17.959  35.360  -6.844  1.00  0.00     0.233 C 
HETATM   17  N4  UNL     1     -16.862  34.436  -7.041  1.00  0.00    -0.110 NA
HETATM   18  N5  UNL     1     -16.748  33.764  -5.790  1.00  0.00    -0.300 N 
ATOM     19  H5  UNL     1     -15.895  33.345  -5.421  1.00  0.00     0.182 HD
HETATM   20  C12 UNL     1     -17.922  33.771  -5.185  1.00  0.00     0.067 C 
HETATM   21  C19 UNL     1     -18.862  34.411  -6.100  1.00  0.00     0.013 C 
HETATM   22  C20 UNL     1     -20.134  34.286  -6.376  1.00  0.00     0.045 C 
ENDROOT
BRANCH  20  23
HETATM   23  C13 UNL     1     -18.214  33.190  -3.889  1.00  0.00     0.031 A 
HETATM   24  C14 UNL     1     -18.721  33.844  -2.806  1.00  0.00     0.017 A 
HETATM   25  C15 UNL     1     -18.952  33.234  -1.573  1.00  0.00     0.001 A 
HETATM   26  C16 UNL     1     -18.651  31.900  -1.435  1.00  0.00     0.003 A 
HETATM   27  C17 UNL     1     -18.134  31.196  -2.501  1.00  0.00     0.043 A 
HETATM   28  C18 UNL     1     -17.924  31.837  -3.698  1.00  0.00     0.129 A 
HETATM   29  F1  UNL     1     -17.413  31.120  -4.736  1.00  0.00    -0.205 F 
ENDBRANCH  20  23
TORSDOF 1
ENDMDL
MODEL 3
REMARK VINA RESULT: -8.421958757      4.259      7.311
REMARK  1 active torsions:
REMARK  status: ('A' for Active; 'I' for Inactive)
REMARK    1  A    between atoms: C12_20  and  C13_21 
ROOT
HETATM    1  N1  UNL     1     -19.735  36.636  -9.003  1.00  0.00    -0.190 NA
HETATM    2  C1  UNL     1     -20.152  36.009  -8.130  1.00  0.00     0.118 C 
HETATM    3  C2  UNL     1     -20.665  35.245  -7.040  1.00  0.00     0.125 A 
HETATM    4  N2  UNL     1     -21.976  35.146  -6.771  1.00  0.00    -0.345 N 
ATOM      5  H2  UNL     1     -22.638  35.637  -7.371  1.00  0.00     0.167 HD
HETATM    6  C3  UNL     1     -22.449  34.431  -5.751  1.00  0.00     0.061 A 
HETATM    7  C4  UNL     1     -21.543  33.764  -4.943  1.00  0.00     0.068 A 
HETATM    8  C5  UNL     1     -20.183  33.826  -5.161  1.00  0.00     0.006 A 
HETATM    9  C6  UNL     1     -19.285  33.172  -4.354  1.00  0.00     0.014 A 
HETATM   10  C7  UNL     1     -17.934  33.293  -4.644  1.00  0.00     0.001 A 
HETATM   11  C8  UNL     1     -17.484  34.043  -5.707  1.00  0.00     0.001 A 
HETATM   12  C9  UNL     1     -18.387  34.686  -6.499  1.00  0.00     0.015 A 
HETATM   13  C10 UNL     1     -19.743  34.589  -6.241  1.00  0.00     0.014 A 
HETATM   14  N3  UNL     1     -22.034  32.916  -3.913  1.00  0.00    -0.364 N 
ATOM     15  H3  UNL     1     -21.416  32.196  -3.536  1.00  0.00     0.161 HD
HETATM   16  C11 UNL     1     -23.339  33.028  -3.390  1.00  0.00     0.233 C 
HETATM   17  N4  UNL     1     -24.118  31.813  -3.271  1.00  0.00    -0.110 NA
HETATM   18  N5  UNL     1     -25.459  32.274  -3.140  1.00  0.00    -0.300 N 
ATOM     19  H5  UNL     1     -26.212  31.774  -2.669  1.00  0.00     0.182 HD
HETATM   20  C12 UNL     1     -25.572  33.453  -3.725  1.00  0.00     0.067 C 
HETATM   21  C19 UNL     1     -24.274  33.750  -4.325  1.00  0.00     0.013 C 
HETATM   22  C20 UNL     1     -23.856  34.386  -5.388  1.00  0.00     0.045 C 
ENDROOT
BRANCH  20  23
HETATM   23  C13 UNL     1     -26.780  34.251  -3.804  1.00  0.00     0.031 A 
HETATM   24  C14 UNL     1     -27.658  34.288  -4.846  1.00  0.00     0.017 A 
HETATM   25  C15 UNL     1     -28.790  35.103  -4.874  1.00  0.00     0.001 A 
HETATM   26  C16 UNL     1     -29.038  35.918  -3.796  1.00  0.00     0.003 A 
HETATM   27  C17 UNL     1     -28.178  35.918  -2.719  1.00  0.00     0.043 A 
HETATM   28  C18 UNL     1     -27.076  35.098  -2.733  1.00  0.00     0.129 A 
HETATM   29  F1  UNL     1     -26.242  35.115  -1.657  1.00  0.00    -0.205 F 
ENDBRANCH  20  23
TORSDOF 1
ENDMDL
MODEL 4
REMARK VINA RESULT: -8.420995356      4.071      5.631
REMARK  1 active torsions:
REMARK  status: ('A' for Active; 'I' for Inactive)
REMARK    1  A    between atoms: C12_20  and  C13_21 
ROOT
HETATM    1  N1  UNL     1     -27.406  29.104  -5.756  1.00  0.00    -0.190 NA
HETATM    2  C1  UNL     1     -26.790  30.047  -5.511  1.00  0.00     0.118 C 
HETATM    3  C2  UNL     1     -26.031  31.211  -5.192  1.00  0.00     0.125 A 
HETATM    4  N2  UNL     1     -24.690  31.218  -5.140  1.00  0.00    -0.345 N 
ATOM      5  H2  UNL     1     -24.189  30.352  -5.338  1.00  0.00     0.167 HD
HETATM    6  C3  UNL     1     -23.986  32.308  -4.842  1.00  0.00     0.061 A 
HETATM    7  C4  UNL     1     -24.676  33.480  -4.579  1.00  0.00     0.068 A 
HETATM    8  C5  UNL     1     -26.053  33.544  -4.611  1.00  0.00     0.006 A 
HETATM    9  C6  UNL     1     -26.735  34.704  -4.340  1.00  0.00     0.014 A 
HETATM   10  C7  UNL     1     -28.121  34.676  -4.391  1.00  0.00     0.001 A 
HETATM   11  C8  UNL     1     -28.812  33.527  -4.703  1.00  0.00     0.001 A 
HETATM   12  C9  UNL     1     -28.122  32.384  -4.969  1.00  0.00     0.015 A 
HETATM   13  C10 UNL     1     -26.738  32.373  -4.927  1.00  0.00     0.014 A 
HETATM   14  N3  UNL     1     -23.940  34.677  -4.358  1.00  0.00    -0.364 N 
ATOM     15  H3  UNL     1     -24.414  35.572  -4.481  1.00  0.00     0.161 HD
HETATM   16  C11 UNL     1     -22.582  34.678  -3.977  1.00  0.00     0.233 C 
HETATM   17  N4  UNL     1     -21.681  35.543  -4.711  1.00  0.00    -0.110 NA
HETATM   18  N5  UNL     1     -20.388  35.028  -4.412  1.00  0.00    -0.300 N 
ATOM     19  H5  UNL     1     -19.522  35.566  -4.419  1.00  0.00     0.182 HD
HETATM   20  C12 UNL     1     -20.488  33.743  -4.123  1.00  0.00     0.067 C 
HETATM   21  C19 UNL     1     -21.890  33.380  -4.305  1.00  0.00     0.013 C 
HETATM   22  C20 UNL     1     -22.540  32.313  -4.690  1.00  0.00     0.045 C 
ENDROOT
BRANCH  20  23
HETATM   23  C13 UNL     1     -19.392  32.865  -3.763  1.00  0.00     0.031 A 
HETATM   24  C14 UNL     1     -18.507  32.283  -4.621  1.00  0.00     0.017 A 
HETATM   25  C15 UNL     1     -17.489  31.419  -4.214  1.00  0.00     0.001 A 
HETATM   26  C16 UNL     1     -17.368  31.134  -2.875  1.00  0.00     0.003 A 
HETATM   27  C17 UNL     1     -18.240  31.697  -1.968  1.00  0.00     0.043 A 
HETATM   28  C18 UNL     1     -19.227  32.543  -2.414  1.00  0.00     0.129 A 
HETATM   29  F1  UNL     1     -20.076  33.087  -1.498  1.00  0.00    -0.205 F 
ENDBRANCH  20  23
TORSDOF 1
ENDMDL
MODEL 5
REMARK VINA RESULT: -8.264994797      4.202      5.852
REMARK  1 active torsions:
REMARK  status: ('A' for Active; 'I' for Inactive)
REMARK    1  A    between atoms: C12_20  and  C13_21 
ROOT
HETATM    1  N1  UNL     1     -27.473  28.926  -5.806  1.00  0.00    -0.190 NA
HETATM    2  C1  UNL     1     -26.889  29.887  -5.553  1.00  0.00     0.118 C 
HETATM    3  C2  UNL     1     -26.169  31.074  -5.225  1.00  0.00     0.125 A 
HETATM    4  N2  UNL     1     -24.831  31.115  -5.133  1.00  0.00    -0.345 N 
ATOM      5  H2  UNL     1     -24.302  30.261  -5.306  1.00  0.00     0.167 HD
HETATM    6  C3  UNL     1     -24.164  32.227  -4.826  1.00  0.00     0.061 A 
HETATM    7  C4  UNL     1     -24.891  33.383  -4.597  1.00  0.00     0.068 A 
HETATM    8  C5  UNL     1     -26.268  33.411  -4.671  1.00  0.00     0.006 A 
HETATM    9  C6  UNL     1     -26.988  34.556  -4.433  1.00  0.00     0.014 A 
HETATM   10  C7  UNL     1     -28.370  34.491  -4.525  1.00  0.00     0.001 A 
HETATM   11  C8  UNL     1     -29.022  33.322  -4.845  1.00  0.00     0.001 A 
HETATM   12  C9  UNL     1     -28.295  32.195  -5.077  1.00  0.00     0.015 A 
HETATM   13  C10 UNL     1     -26.914  32.220  -4.994  1.00  0.00     0.014 A 
HETATM   14  N3  UNL     1     -24.193  34.601  -4.368  1.00  0.00    -0.364 N 
ATOM     15  H3  UNL     1     -24.686  35.482  -4.515  1.00  0.00     0.161 HD
HETATM   16  C11 UNL     1     -22.848  34.641  -3.947  1.00  0.00     0.233 C 
HETATM   17  N4  UNL     1     -21.948  35.521  -4.663  1.00  0.00    -0.110 NA
HETATM   18  N5  UNL     1     -20.651  35.043  -4.320  1.00  0.00    -0.300 N 
ATOM     19  H5  UNL     1     -19.799  35.603  -4.308  1.00  0.00     0.182 HD
HETATM   20  C12 UNL     1     -20.727  33.759  -4.021  1.00  0.00     0.067 C 
HETATM   21  C19 UNL     1     -22.113  33.358  -4.239  1.00  0.00     0.013 C 
HETATM   22  C20 UNL     1     -22.724  32.270  -4.632  1.00  0.00     0.045 C 
ENDROOT
BRANCH  20  23
HETATM   23  C13 UNL     1     -19.620  32.913  -3.618  1.00  0.00     0.031 A 
HETATM   24  C14 UNL     1     -19.276  32.587  -2.339  1.00  0.00     0.017 A 
HETATM   25  C15 UNL     1     -18.178  31.790  -2.014  1.00  0.00     0.001 A 
HETATM   26  C16 UNL     1     -17.394  31.307  -3.034  1.00  0.00     0.003 A 
HETATM   27  C17 UNL     1     -17.700  31.610  -4.343  1.00  0.00     0.043 A 
HETATM   28  C18 UNL     1     -18.793  32.398  -4.617  1.00  0.00     0.129 A 
HETATM   29  F1  UNL     1     -19.075  32.683  -5.919  1.00  0.00    -0.205 F 
ENDBRANCH  20  23
TORSDOF 1
ENDMDL
