MODEL 1
REMARK VINA RESULT: -6.902840296      0.000      0.000
REMARK  4 active torsions:
REMARK  status: ('A' for Active; 'I' for Inactive)
REMARK    1  A    between atoms: C4_4  and  N1_5 
REMARK    2  A    between atoms: C7_12  and  N3_13 
REMARK    3  A    between atoms: N3_13  and  C8_15 
REMARK    4  A    between atoms: C8_15  and  C9_16 
ROOT
HETATM    1  C9  UNL     1      32.524  39.508  46.904  1.00  0.00     0.144 C 
HETATM    2  C10 UNL     1      31.167  39.922  47.261  1.00  0.00     0.060 C 
HETATM    3  N4  UNL     1      30.082  40.243  47.564  1.00  0.00    -0.197 NA
ENDROOT
BRANCH   1   4
HETATM    4  C8  UNL     1      32.476  37.989  46.703  1.00  0.00     0.152 C 
BRANCH   4   5
HETATM    5  N3  UNL     1      31.266  37.514  47.289  1.00  0.00    -0.225 N 
ATOM      6  H3  UNL     1      30.521  38.177  47.503  1.00  0.00     0.177 HD
BRANCH   5   7
HETATM    7  C7  UNL     1      31.092  36.257  47.559  1.00  0.00     0.679 A 
HETATM    8  N2  UNL     1      30.594  35.800  48.701  1.00  0.00    -0.201 N 
HETATM    9  C6  UNL     1      30.447  34.458  48.894  1.00  0.00     0.123 A 
ATOM     10  H2  UNL     1      30.321  36.453  49.435  1.00  0.00     0.183 HD
HETATM   11  C5  UNL     1      30.813  33.561  47.906  1.00  0.00     0.051 A 
HETATM   12  C4  UNL     1      30.676  32.206  48.075  1.00  0.00     0.043 A 
HETATM   13  C11 UNL     1      31.333  34.038  46.714  1.00  0.00     0.135 A 
HETATM   14  C3  UNL     1      31.079  31.397  47.010  1.00  0.00     0.054 A 
HETATM   15  C2  UNL     1      31.589  31.871  45.841  1.00  0.00     0.009 A 
HETATM   16  C1  UNL     1      32.015  31.009  44.713  1.00  0.00     0.068 C 
HETATM   17  N6  UNL     1      31.710  33.198  45.708  1.00  0.00    -0.345 N 
ATOM     18  H6  UNL     1      32.089  33.585  44.844  1.00  0.00     0.167 HD
HETATM   19  N5  UNL     1      31.451  35.368  46.588  1.00  0.00    -0.176 N 
ATOM     20  H5  UNL     1      31.831  35.737  45.716  1.00  0.00     0.186 HD
BRANCH  12  21
HETATM   21  N1  UNL     1      30.203  31.701  49.150  1.00  0.00    -0.398 N 
ATOM     22  H12 UNL     1      30.052  30.698  49.255  1.00  0.00     0.156 HD
ATOM     23  H11 UNL     1      29.958  32.288  49.947  1.00  0.00     0.156 HD
ENDBRANCH  12  21
ENDBRANCH   5   7
ENDBRANCH   4   5
ENDBRANCH   1   4
TORSDOF 4
ENDMDL
MODEL 2
REMARK VINA RESULT: -6.860510648      1.819      2.145
REMARK  4 active torsions:
REMARK  status: ('A' for Active; 'I' for Inactive)
REMARK    1  A    between atoms: C4_4  and  N1_5 
REMARK    2  A    between atoms: C7_12  and  N3_13 
REMARK    3  A    between atoms: N3_13  and  C8_15 
REMARK    4  A    between atoms: C8_15  and  C9_16 
ROOT
HETATM    1  C9  UNL     1      32.679  37.832  46.530  1.00  0.00     0.144 C 
HETATM    2  C10 UNL     1      32.359  39.199  46.941  1.00  0.00     0.060 C 
HETATM    3  N4  UNL     1      32.102  40.287  47.289  1.00  0.00    -0.197 NA
ENDROOT
BRANCH   1   4
HETATM    4  C8  UNL     1      31.482  36.964  46.935  1.00  0.00     0.152 C 
BRANCH   4   5
HETATM    5  N3  UNL     1      31.909  35.604  46.918  1.00  0.00    -0.225 N 
ATOM      6  H3  UNL     1      32.907  35.395  46.897  1.00  0.00     0.177 HD
BRANCH   5   7
HETATM    7  C7  UNL     1      31.056  34.626  46.929  1.00  0.00     0.679 A 
HETATM    8  N2  UNL     1      29.799  34.737  47.340  1.00  0.00    -0.201 N 
HETATM    9  C6  UNL     1      28.974  33.652  47.315  1.00  0.00     0.123 A 
ATOM     10  H2  UNL     1      29.449  35.635  47.675  1.00  0.00     0.183 HD
HETATM   11  C5  UNL     1      29.436  32.428  46.863  1.00  0.00     0.051 A 
HETATM   12  C4  UNL     1      28.627  31.320  46.827  1.00  0.00     0.043 A 
HETATM   13  C11 UNL     1      30.748  32.313  46.435  1.00  0.00     0.135 A 
HETATM   14  C3  UNL     1      29.201  30.138  46.353  1.00  0.00     0.054 A 
HETATM   15  C2  UNL     1      30.491  30.031  45.933  1.00  0.00     0.009 A 
HETATM   16  C1  UNL     1      31.096  28.776  45.430  1.00  0.00     0.068 C 
HETATM   17  N6  UNL     1      31.254  31.130  45.980  1.00  0.00    -0.345 N 
ATOM     18  H6  UNL     1      32.225  31.083  45.673  1.00  0.00     0.167 HD
HETATM   19  N5  UNL     1      31.506  33.418  46.485  1.00  0.00    -0.176 N 
ATOM     20  H5  UNL     1      32.474  33.352  46.172  1.00  0.00     0.186 HD
BRANCH  12  21
HETATM   21  N1  UNL     1      27.406  31.358  47.208  1.00  0.00    -0.398 N 
ATOM     22  H12 UNL     1      27.136  31.190  48.177  1.00  0.00     0.156 HD
ATOM     23  H11 UNL     1      26.653  31.560  46.550  1.00  0.00     0.156 HD
ENDBRANCH  12  21
ENDBRANCH   5   7
ENDBRANCH   4   5
ENDBRANCH   1   4
TORSDOF 4
ENDMDL
MODEL 3
REMARK VINA RESULT: -6.855371749      1.787      6.181
REMARK  4 active torsions:
REMARK  status: ('A' for Active; 'I' for Inactive)
REMARK    1  A    between atoms: C4_4  and  N1_5 
REMARK    2  A    between atoms: C7_12  and  N3_13 
REMARK    3  A    between atoms: N3_13  and  C8_15 
REMARK    4  A    between atoms: C8_15  and  C9_16 
ROOT
HETATM    1  C9  UNL     1      31.763  29.291  45.658  1.00  0.00     0.144 C 
HETATM    2  C10 UNL     1      31.704  29.775  44.278  1.00  0.00     0.060 C 
HETATM    3  N4  UNL     1      31.675  30.171  43.176  1.00  0.00    -0.197 NA
ENDROOT
BRANCH   1   4
HETATM    4  C8  UNL     1      31.842  30.534  46.551  1.00  0.00     0.152 C 
BRANCH   4   5
HETATM    5  N3  UNL     1      31.276  31.624  45.827  1.00  0.00    -0.225 N 
ATOM      6  H3  UNL     1      31.249  31.585  44.808  1.00  0.00     0.177 HD
BRANCH   5   7
HETATM    7  C7  UNL     1      30.795  32.664  46.434  1.00  0.00     0.679 A 
HETATM    8  N2  UNL     1      29.689  32.655  47.168  1.00  0.00    -0.201 N 
HETATM    9  C6  UNL     1      29.259  33.800  47.771  1.00  0.00     0.123 A 
ATOM     10  H2  UNL     1      29.160  31.790  47.282  1.00  0.00     0.183 HD
HETATM   11  C5  UNL     1      29.968  34.980  47.625  1.00  0.00     0.051 A 
HETATM   12  C4  UNL     1      29.558  36.146  48.220  1.00  0.00     0.043 A 
HETATM   13  C11 UNL     1      31.121  34.989  46.858  1.00  0.00     0.135 A 
HETATM   14  C3  UNL     1      30.351  37.275  48.003  1.00  0.00     0.054 A 
HETATM   15  C2  UNL     1      31.484  37.279  47.249  1.00  0.00     0.009 A 
HETATM   16  C1  UNL     1      32.323  38.478  47.021  1.00  0.00     0.068 C 
HETATM   17  N6  UNL     1      31.857  36.124  46.682  1.00  0.00    -0.345 N 
ATOM     18  H6  UNL     1      32.702  36.094  46.111  1.00  0.00     0.167 HD
HETATM   19  N5  UNL     1      31.489  33.830  46.294  1.00  0.00    -0.176 N 
ATOM     20  H5  UNL     1      32.337  33.818  45.727  1.00  0.00     0.186 HD
BRANCH  12  21
HETATM   21  N1  UNL     1      28.502  36.206  48.940  1.00  0.00    -0.398 N 
ATOM     22  H12 UNL     1      28.544  36.258  49.958  1.00  0.00     0.156 HD
ATOM     23  H11 UNL     1      27.573  36.203  48.519  1.00  0.00     0.156 HD
ENDBRANCH  12  21
ENDBRANCH   5   7
ENDBRANCH   4   5
ENDBRANCH   1   4
TORSDOF 4
ENDMDL
MODEL 4
REMARK VINA RESULT: -6.479221025      1.265      2.521
REMARK  4 active torsions:
REMARK  status: ('A' for Active; 'I' for Inactive)
REMARK    1  A    between atoms: C4_4  and  N1_5 
REMARK    2  A    between atoms: C7_12  and  N3_13 
REMARK    3  A    between atoms: N3_13  and  C8_15 
REMARK    4  A    between atoms: C8_15  and  C9_16 
ROOT
HETATM    1  C9  UNL     1      32.718  39.319  46.964  1.00  0.00     0.144 C 
HETATM    2  C10 UNL     1      31.336  39.714  47.234  1.00  0.00     0.060 C 
HETATM    3  N4  UNL     1      30.228  40.017  47.465  1.00  0.00    -0.197 NA
ENDROOT
BRANCH   1   4
HETATM    4  C8  UNL     1      32.670  37.859  46.498  1.00  0.00     0.152 C 
BRANCH   4   5
HETATM    5  N3  UNL     1      31.716  37.178  47.311  1.00  0.00    -0.225 N 
ATOM      6  H3  UNL     1      31.333  37.649  48.131  1.00  0.00     0.177 HD
BRANCH   5   7
HETATM    7  C7  UNL     1      31.325  35.973  47.031  1.00  0.00     0.679 A 
HETATM    8  N2  UNL     1      31.213  35.492  45.799  1.00  0.00    -0.201 N 
HETATM    9  C6  UNL     1      30.793  34.210  45.602  1.00  0.00     0.123 A 
ATOM     10  H2  UNL     1      31.442  36.082  44.999  1.00  0.00     0.183 HD
HETATM   11  C5  UNL     1      30.480  33.399  46.679  1.00  0.00     0.051 A 
HETATM   12  C4  UNL     1      30.055  32.106  46.508  1.00  0.00     0.043 A 
HETATM   13  C11 UNL     1      30.596  33.902  47.964  1.00  0.00     0.135 A 
HETATM   14  C3  UNL     1      29.766  31.381  47.667  1.00  0.00     0.054 A 
HETATM   15  C2  UNL     1      29.883  31.880  48.928  1.00  0.00     0.009 A 
HETATM   16  C1  UNL     1      29.576  31.109  50.155  1.00  0.00     0.068 C 
HETATM   17  N6  UNL     1      30.300  33.146  49.060  1.00  0.00    -0.345 N 
ATOM     18  H6  UNL     1      30.398  33.549  49.992  1.00  0.00     0.167 HD
HETATM   19  N5  UNL     1      31.015  35.170  48.088  1.00  0.00    -0.176 N 
ATOM     20  H5  UNL     1      31.107  35.556  49.028  1.00  0.00     0.186 HD
BRANCH  12  21
HETATM   21  N1  UNL     1      29.926  31.581  45.349  1.00  0.00    -0.398 N 
ATOM     22  H12 UNL     1      29.479  30.675  45.212  1.00  0.00     0.156 HD
ATOM     23  H11 UNL     1      30.269  32.054  44.513  1.00  0.00     0.156 HD
ENDBRANCH  12  21
ENDBRANCH   5   7
ENDBRANCH   4   5
ENDBRANCH   1   4
TORSDOF 4
ENDMDL
MODEL 5
REMARK VINA RESULT: -6.473474664      2.455      6.523
REMARK  4 active torsions:
REMARK  status: ('A' for Active; 'I' for Inactive)
REMARK    1  A    between atoms: C4_4  and  N1_5 
REMARK    2  A    between atoms: C7_12  and  N3_13 
REMARK    3  A    between atoms: N3_13  and  C8_15 
REMARK    4  A    between atoms: C8_15  and  C9_16 
ROOT
HETATM    1  C9  UNL     1      31.156  29.249  45.593  1.00  0.00     0.144 C 
HETATM    2  C10 UNL     1      31.477  29.764  44.262  1.00  0.00     0.060 C 
HETATM    3  N4  UNL     1      31.736  30.195  43.204  1.00  0.00    -0.197 NA
ENDROOT
BRANCH   1   4
HETATM    4  C8  UNL     1      29.849  29.929  46.019  1.00  0.00     0.152 C 
BRANCH   4   5
HETATM    5  N3  UNL     1      29.794  31.199  45.373  1.00  0.00    -0.225 N 
ATOM      6  H3  UNL     1      29.591  31.242  44.374  1.00  0.00     0.177 HD
BRANCH   5   7
HETATM    7  C7  UNL     1      29.997  32.301  46.027  1.00  0.00     0.679 A 
HETATM    8  N2  UNL     1      31.161  32.935  46.079  1.00  0.00    -0.201 N 
HETATM    9  C6  UNL     1      31.280  34.090  46.793  1.00  0.00     0.123 A 
ATOM     10  H2  UNL     1      31.969  32.558  45.583  1.00  0.00     0.183 HD
HETATM   11  C5  UNL     1      30.191  34.613  47.469  1.00  0.00     0.051 A 
HETATM   12  C4  UNL     1      30.283  35.774  48.196  1.00  0.00     0.043 A 
HETATM   13  C11 UNL     1      28.976  33.951  47.416  1.00  0.00     0.135 A 
HETATM   14  C3  UNL     1      29.120  36.206  48.837  1.00  0.00     0.054 A 
HETATM   15  C2  UNL     1      27.928  35.552  48.781  1.00  0.00     0.009 A 
HETATM   16  C1  UNL     1      26.697  36.015  49.462  1.00  0.00     0.068 C 
HETATM   17  N6  UNL     1      27.872  34.423  48.063  1.00  0.00    -0.345 N 
ATOM     18  H6  UNL     1      26.993  33.909  48.001  1.00  0.00     0.167 HD
HETATM   19  N5  UNL     1      28.927  32.821  46.695  1.00  0.00    -0.176 N 
ATOM     20  H5  UNL     1      28.040  32.321  46.644  1.00  0.00     0.186 HD
BRANCH  12  21
HETATM   21  N1  UNL     1      31.375  36.433  48.286  1.00  0.00    -0.398 N 
ATOM     22  H12 UNL     1      32.212  36.037  48.713  1.00  0.00     0.156 HD
ATOM     23  H11 UNL     1      31.448  37.387  47.932  1.00  0.00     0.156 HD
ENDBRANCH  12  21
ENDBRANCH   5   7
ENDBRANCH   4   5
ENDBRANCH   1   4
TORSDOF 4
ENDMDL
