MODEL 1
REMARK VINA RESULT: -6.576514183      0.000      0.000
REMARK  7 active torsions:
REMARK  status: ('A' for Active; 'I' for Inactive)
REMARK    1  A    between atoms: N5_15  and  C6_16 
REMARK    2  A    between atoms: C6_16  and  C7_17 
REMARK       I    between atoms: C7_17  and  N6_19 
REMARK    3  A    between atoms: N6_19  and  N7_21 
REMARK    4  A    between atoms: N7_21  and  C8_22 
REMARK    5  A    between atoms: C8_22  and  O2_23 
REMARK    6  A    between atoms: C8_22  and  N8_25 
REMARK    7  A    between atoms: N8_25  and  N9_27 
ROOT
HETATM    1  N1  UNL     1     -16.397  -7.629  -6.180  1.00  0.00    -0.383 N 
ATOM      2  H11 UNL     1     -16.034  -6.678  -6.117  1.00  0.00     0.157 HD
ATOM      3  H12 UNL     1     -17.410  -7.742  -6.217  1.00  0.00     0.157 HD
HETATM    4  C1  UNL     1     -15.591  -8.615  -6.206  1.00  0.00     0.131 A 
HETATM    5  N2  UNL     1     -16.074  -9.879  -6.289  1.00  0.00    -0.337 N 
ATOM      6  H2  UNL     1     -17.083 -10.018  -6.329  1.00  0.00     0.168 HD
HETATM    7  C2  UNL     1     -15.260 -10.967  -6.322  1.00  0.00     0.183 A 
HETATM    8  N3  UNL     1     -13.916 -10.774  -6.271  1.00  0.00    -0.336 N 
ATOM      9  H3  UNL     1     -13.292 -11.580  -6.297  1.00  0.00     0.168 HD
HETATM   10  C3  UNL     1     -13.407  -9.571  -6.189  1.00  0.00     0.141 A 
HETATM   11  C4  UNL     1     -14.223  -8.463  -6.154  1.00  0.00     0.122 A 
HETATM   12  N4  UNL     1     -13.384  -7.420  -6.054  1.00  0.00    -0.346 N 
ATOM     13  H4  UNL     1     -13.666  -6.441  -6.009  1.00  0.00     0.167 HD
HETATM   14  C5  UNL     1     -12.096  -7.872  -6.020  1.00  0.00     0.185 A 
HETATM   15  N5  UNL     1     -12.062  -9.198  -6.108  1.00  0.00    -0.318 N 
ENDROOT
BRANCH  15  16
HETATM   16  C6  UNL     1     -10.994 -10.123  -6.210  1.00  0.00     0.236 C 
BRANCH  16  17
HETATM   17  C7  UNL     1     -10.514 -10.786  -4.976  1.00  0.00     0.264 C 
HETATM   18  O1  UNL     1     -10.598 -10.276  -3.884  1.00  0.00    -0.269 OA
HETATM   19  N6  UNL     1      -9.954 -12.074  -5.214  1.00  0.00    -0.197 N 
ATOM     20  H6  UNL     1      -9.972 -12.324  -6.202  1.00  0.00     0.205 HD
BRANCH  19  21
HETATM   21  N7  UNL     1      -9.417 -13.022  -4.472  1.00  0.00    -0.276 NA
BRANCH  21  22
HETATM   22  C8  UNL     1      -8.865 -13.998  -3.711  1.00  0.00     0.333 C 
BRANCH  22  23
HETATM   23  O2  UNL     1      -9.693 -14.689  -2.925  1.00  0.00    -0.319 OA
ATOM     24  H2  UNL     1      -9.842 -15.599  -3.154  1.00  0.00     0.222 HD
ENDBRANCH  22  23
BRANCH  22  25
HETATM   25  N8  UNL     1      -7.517 -14.425  -3.615  1.00  0.00    -0.258 N 
ATOM     26  H8  UNL     1      -7.209 -15.291  -4.056  1.00  0.00     0.191 HD
BRANCH  25  27
HETATM   27  N9  UNL     1      -6.606 -13.609  -2.884  1.00  0.00    -0.341 N 
ATOM     28  H92 UNL     1      -6.207 -12.776  -3.317  1.00  0.00     0.177 HD
ATOM     29  H91 UNL     1      -6.374 -13.885  -1.930  1.00  0.00     0.177 HD
ENDBRANCH  25  27
ENDBRANCH  22  25
ENDBRANCH  21  22
ENDBRANCH  19  21
ENDBRANCH  16  17
ENDBRANCH  15  16
TORSDOF 7
ENDMDL
MODEL 2
REMARK VINA RESULT: -6.560055582      1.037      1.912
REMARK  7 active torsions:
REMARK  status: ('A' for Active; 'I' for Inactive)
REMARK    1  A    between atoms: N5_15  and  C6_16 
REMARK    2  A    between atoms: C6_16  and  C7_17 
REMARK       I    between atoms: C7_17  and  N6_19 
REMARK    3  A    between atoms: N6_19  and  N7_21 
REMARK    4  A    between atoms: N7_21  and  C8_22 
REMARK    5  A    between atoms: C8_22  and  O2_23 
REMARK    6  A    between atoms: C8_22  and  N8_25 
REMARK    7  A    between atoms: N8_25  and  N9_27 
ROOT
HETATM    1  N1  UNL     1     -16.657 -10.810  -6.663  1.00  0.00    -0.383 N 
ATOM      2  H11 UNL     1     -16.453 -11.720  -7.075  1.00  0.00     0.157 HD
ATOM      3  H12 UNL     1     -17.633 -10.513  -6.642  1.00  0.00     0.157 HD
HETATM    4  C1  UNL     1     -15.708 -10.094  -6.202  1.00  0.00     0.131 A 
HETATM    5  N2  UNL     1     -15.980  -8.885  -5.654  1.00  0.00    -0.337 N 
ATOM      6  H2  UNL     1     -16.948  -8.567  -5.622  1.00  0.00     0.168 HD
HETATM    7  C2  UNL     1     -15.007  -8.082  -5.146  1.00  0.00     0.183 A 
HETATM    8  N3  UNL     1     -13.720  -8.515  -5.191  1.00  0.00    -0.336 N 
ATOM      9  H3  UNL     1     -12.980  -7.925  -4.812  1.00  0.00     0.168 HD
HETATM   10  C3  UNL     1     -13.413  -9.675  -5.712  1.00  0.00     0.141 A 
HETATM   11  C4  UNL     1     -14.391 -10.495  -6.230  1.00  0.00     0.122 A 
HETATM   12  N4  UNL     1     -13.732 -11.572  -6.685  1.00  0.00    -0.346 N 
ATOM     13  H4  UNL     1     -14.164 -12.381  -7.129  1.00  0.00     0.167 HD
HETATM   14  C5  UNL     1     -12.393 -11.417  -6.462  1.00  0.00     0.185 A 
HETATM   15  N5  UNL     1     -12.151 -10.258  -5.855  1.00  0.00    -0.318 N 
ENDROOT
BRANCH  15  16
HETATM   16  C6  UNL     1     -10.966  -9.682  -5.334  1.00  0.00     0.236 C 
BRANCH  16  17
HETATM   17  C7  UNL     1     -10.168 -10.465  -4.363  1.00  0.00     0.264 C 
HETATM   18  O1  UNL     1      -9.705  -9.981  -3.357  1.00  0.00    -0.269 OA
HETATM   19  N6  UNL     1     -10.013 -11.830  -4.736  1.00  0.00    -0.197 N 
ATOM     20  H6  UNL     1     -10.477 -12.042  -5.619  1.00  0.00     0.205 HD
BRANCH  19  21
HETATM   21  N7  UNL     1      -9.419 -12.888  -4.223  1.00  0.00    -0.276 NA
BRANCH  21  22
HETATM   22  C8  UNL     1      -8.808 -13.976  -3.695  1.00  0.00     0.333 C 
BRANCH  22  23
HETATM   23  O2  UNL     1      -9.590 -14.864  -3.076  1.00  0.00    -0.319 OA
ATOM     24  H2  UNL     1      -9.800 -15.657  -3.556  1.00  0.00     0.222 HD
ENDBRANCH  22  23
BRANCH  22  25
HETATM   25  N8  UNL     1      -7.440 -14.345  -3.697  1.00  0.00    -0.258 N 
ATOM     26  H8  UNL     1      -7.105 -15.116  -4.275  1.00  0.00     0.191 HD
BRANCH  25  27
HETATM   27  N9  UNL     1      -6.545 -13.606  -2.870  1.00  0.00    -0.341 N 
ATOM     28  H92 UNL     1      -6.902 -13.091  -2.066  1.00  0.00     0.177 HD
ATOM     29  H91 UNL     1      -5.554 -13.612  -3.110  1.00  0.00     0.177 HD
ENDBRANCH  25  27
ENDBRANCH  22  25
ENDBRANCH  21  22
ENDBRANCH  19  21
ENDBRANCH  16  17
ENDBRANCH  15  16
TORSDOF 7
ENDMDL
MODEL 3
REMARK VINA RESULT: -6.233524907      0.797      1.975
REMARK  7 active torsions:
REMARK  status: ('A' for Active; 'I' for Inactive)
REMARK    1  A    between atoms: N5_15  and  C6_16 
REMARK    2  A    between atoms: C6_16  and  C7_17 
REMARK       I    between atoms: C7_17  and  N6_19 
REMARK    3  A    between atoms: N6_19  and  N7_21 
REMARK    4  A    between atoms: N7_21  and  C8_22 
REMARK    5  A    between atoms: C8_22  and  O2_23 
REMARK    6  A    between atoms: C8_22  and  N8_25 
REMARK    7  A    between atoms: N8_25  and  N9_27 
ROOT
HETATM    1  N1  UNL     1     -16.438  -7.783  -6.223  1.00  0.00    -0.383 N 
ATOM      2  H11 UNL     1     -16.895  -8.694  -6.284  1.00  0.00     0.157 HD
ATOM      3  H12 UNL     1     -17.038  -6.959  -6.201  1.00  0.00     0.157 HD
HETATM    4  C1  UNL     1     -15.167  -7.713  -6.179  1.00  0.00     0.131 A 
HETATM    5  N2  UNL     1     -14.561  -6.503  -6.097  1.00  0.00    -0.337 N 
ATOM      6  H2  UNL     1     -15.140  -5.664  -6.073  1.00  0.00     0.168 HD
HETATM    7  C2  UNL     1     -13.209  -6.370  -6.045  1.00  0.00     0.183 A 
HETATM    8  N3  UNL     1     -12.445  -7.493  -6.074  1.00  0.00    -0.336 N 
ATOM      9  H3  UNL     1     -11.429  -7.409  -6.033  1.00  0.00     0.168 HD
HETATM   10  C3  UNL     1     -12.988  -8.681  -6.153  1.00  0.00     0.141 A 
HETATM   11  C4  UNL     1     -14.356  -8.826  -6.208  1.00  0.00     0.122 A 
HETATM   12  N4  UNL     1     -14.559 -10.150  -6.300  1.00  0.00    -0.346 N 
ATOM     13  H4  UNL     1     -15.470 -10.603  -6.354  1.00  0.00     0.167 HD
HETATM   14  C5  UNL     1     -13.356 -10.796  -6.310  1.00  0.00     0.185 A 
HETATM   15  N5  UNL     1     -12.355  -9.925  -6.214  1.00  0.00    -0.318 N 
ENDROOT
BRANCH  15  16
HETATM   16  C6  UNL     1     -10.953 -10.090  -6.090  1.00  0.00     0.236 C 
BRANCH  16  17
HETATM   17  C7  UNL     1     -10.426 -10.763  -4.881  1.00  0.00     0.264 C 
HETATM   18  O1  UNL     1     -10.407 -10.235  -3.795  1.00  0.00    -0.269 OA
HETATM   19  N6  UNL     1      -9.954 -12.083  -5.135  1.00  0.00    -0.197 N 
ATOM     20  H6  UNL     1     -10.055 -12.344  -6.116  1.00  0.00     0.205 HD
BRANCH  19  21
HETATM   21  N7  UNL     1      -9.420 -13.049  -4.417  1.00  0.00    -0.276 NA
BRANCH  21  22
HETATM   22  C8  UNL     1      -8.870 -14.042  -3.678  1.00  0.00     0.333 C 
BRANCH  22  23
HETATM   23  O2  UNL     1      -9.700 -14.752  -2.911  1.00  0.00    -0.319 OA
ATOM     24  H2  UNL     1      -9.980 -14.351  -2.096  1.00  0.00     0.222 HD
ENDBRANCH  22  23
BRANCH  22  25
HETATM   25  N8  UNL     1      -7.522 -14.472  -3.587  1.00  0.00    -0.258 N 
ATOM     26  H8  UNL     1      -7.225 -15.357  -3.996  1.00  0.00     0.191 HD
BRANCH  25  27
HETATM   27  N9  UNL     1      -6.595 -13.629  -2.908  1.00  0.00    -0.341 N 
ATOM     28  H92 UNL     1      -6.382 -13.794  -1.924  1.00  0.00     0.177 HD
ATOM     29  H91 UNL     1      -6.162 -12.870  -3.434  1.00  0.00     0.177 HD
ENDBRANCH  25  27
ENDBRANCH  22  25
ENDBRANCH  21  22
ENDBRANCH  19  21
ENDBRANCH  16  17
ENDBRANCH  15  16
TORSDOF 7
ENDMDL
MODEL 4
REMARK VINA RESULT: -6.231213459      2.424      2.676
REMARK  7 active torsions:
REMARK  status: ('A' for Active; 'I' for Inactive)
REMARK    1  A    between atoms: N5_15  and  C6_16 
REMARK    2  A    between atoms: C6_16  and  C7_17 
REMARK       I    between atoms: C7_17  and  N6_19 
REMARK    3  A    between atoms: N6_19  and  N7_21 
REMARK    4  A    between atoms: N7_21  and  C8_22 
REMARK    5  A    between atoms: C8_22  and  O2_23 
REMARK    6  A    between atoms: C8_22  and  N8_25 
REMARK    7  A    between atoms: N8_25  and  N9_27 
ROOT
HETATM    1  N1  UNL     1     -16.146  -7.908  -6.333  1.00  0.00    -0.383 N 
ATOM      2  H11 UNL     1     -15.650  -7.017  -6.333  1.00  0.00     0.157 HD
ATOM      3  H12 UNL     1     -17.164  -7.878  -6.396  1.00  0.00     0.157 HD
HETATM    4  C1  UNL     1     -15.492  -8.999  -6.254  1.00  0.00     0.131 A 
HETATM    5  N2  UNL     1     -16.152 -10.182  -6.254  1.00  0.00    -0.337 N 
ATOM      6  H2  UNL     1     -17.169 -10.178  -6.317  1.00  0.00     0.168 HD
HETATM    7  C2  UNL     1     -15.504 -11.375  -6.174  1.00  0.00     0.183 A 
HETATM    8  N3  UNL     1     -14.148 -11.372  -6.093  1.00  0.00    -0.336 N 
ATOM      9  H3  UNL     1     -13.648 -12.259  -6.034  1.00  0.00     0.168 HD
HETATM   10  C3  UNL     1     -13.471 -10.253  -6.088  1.00  0.00     0.141 A 
HETATM   11  C4  UNL     1     -14.118  -9.040  -6.168  1.00  0.00     0.122 A 
HETATM   12  N4  UNL     1     -13.139  -8.123  -6.121  1.00  0.00    -0.346 N 
ATOM     13  H4  UNL     1     -13.275  -7.114  -6.162  1.00  0.00     0.167 HD
HETATM   14  C5  UNL     1     -11.931  -8.750  -6.008  1.00  0.00     0.185 A 
HETATM   15  N5  UNL     1     -12.089 -10.071  -5.990  1.00  0.00    -0.318 N 
ENDROOT
BRANCH  15  16
HETATM   16  C6  UNL     1     -11.164 -11.144  -5.983  1.00  0.00     0.236 C 
BRANCH  16  17
HETATM   17  C7  UNL     1     -10.362 -11.377  -4.760  1.00  0.00     0.264 C 
HETATM   18  O1  UNL     1     -10.441 -12.391  -4.109  1.00  0.00    -0.269 OA
HETATM   19  N6  UNL     1      -9.496 -10.291  -4.443  1.00  0.00    -0.197 N 
ATOM     20  H6  UNL     1      -9.577  -9.527  -5.114  1.00  0.00     0.205 HD
BRANCH  19  21
HETATM   21  N7  UNL     1      -8.616 -10.030  -3.498  1.00  0.00    -0.276 NA
BRANCH  21  22
HETATM   22  C8  UNL     1      -7.712  -9.762  -2.525  1.00  0.00     0.333 C 
BRANCH  22  23
HETATM   23  O2  UNL     1      -7.014 -10.797  -2.051  1.00  0.00    -0.319 OA
ATOM     24  H2  UNL     1      -6.199 -10.596  -1.606  1.00  0.00     0.222 HD
ENDBRANCH  22  23
BRANCH  22  25
HETATM   25  N8  UNL     1      -7.367  -8.530  -1.915  1.00  0.00    -0.258 N 
ATOM     26  H8  UNL     1      -7.728  -7.647  -2.276  1.00  0.00     0.191 HD
BRANCH  25  27
HETATM   27  N9  UNL     1      -6.501  -8.562  -0.784  1.00  0.00    -0.341 N 
ATOM     28  H92 UNL     1      -5.492  -8.630  -0.915  1.00  0.00     0.177 HD
ATOM     29  H91 UNL     1      -6.923  -8.514   0.144  1.00  0.00     0.177 HD
ENDBRANCH  25  27
ENDBRANCH  22  25
ENDBRANCH  21  22
ENDBRANCH  19  21
ENDBRANCH  16  17
ENDBRANCH  15  16
TORSDOF 7
ENDMDL
MODEL 5
REMARK VINA RESULT: -6.104516498      1.441      2.580
REMARK  7 active torsions:
REMARK  status: ('A' for Active; 'I' for Inactive)
REMARK    1  A    between atoms: N5_15  and  C6_16 
REMARK    2  A    between atoms: C6_16  and  C7_17 
REMARK       I    between atoms: C7_17  and  N6_19 
REMARK    3  A    between atoms: N6_19  and  N7_21 
REMARK    4  A    between atoms: N7_21  and  C8_22 
REMARK    5  A    between atoms: C8_22  and  O2_23 
REMARK    6  A    between atoms: C8_22  and  N8_25 
REMARK    7  A    between atoms: N8_25  and  N9_27 
ROOT
HETATM    1  N1  UNL     1     -16.968  -6.275  -5.433  1.00  0.00    -0.383 N 
ATOM      2  H11 UNL     1     -17.708  -6.977  -5.453  1.00  0.00     0.157 HD
ATOM      3  H12 UNL     1     -17.236  -5.317  -5.210  1.00  0.00     0.157 HD
HETATM    4  C1  UNL     1     -15.765  -6.614  -5.683  1.00  0.00     0.131 A 
HETATM    5  N2  UNL     1     -14.782  -5.682  -5.656  1.00  0.00    -0.337 N 
ATOM      6  H2  UNL     1     -15.026  -4.717  -5.435  1.00  0.00     0.168 HD
HETATM    7  C2  UNL     1     -13.482  -5.988  -5.912  1.00  0.00     0.183 A 
HETATM    8  N3  UNL     1     -13.165  -7.277  -6.203  1.00  0.00    -0.336 N 
ATOM      9  H3  UNL     1     -12.194  -7.523  -6.396  1.00  0.00     0.168 HD
HETATM   10  C3  UNL     1     -14.082  -8.209  -6.242  1.00  0.00     0.141 A 
HETATM   11  C4  UNL     1     -15.402  -7.908  -5.984  1.00  0.00     0.122 A 
HETATM   12  N4  UNL     1     -16.054  -9.073  -6.124  1.00  0.00    -0.346 N 
ATOM     13  H4  UNL     1     -17.057  -9.204  -5.997  1.00  0.00     0.167 HD
HETATM   14  C5  UNL     1     -15.168 -10.055  -6.464  1.00  0.00     0.185 A 
HETATM   15  N5  UNL     1     -13.934  -9.566  -6.542  1.00  0.00    -0.318 N 
ENDROOT
BRANCH  15  16
HETATM   16  C6  UNL     1     -12.675 -10.178  -6.762  1.00  0.00     0.236 C 
BRANCH  16  17
HETATM   17  C7  UNL     1     -11.758 -10.340  -5.611  1.00  0.00     0.264 C 
HETATM   18  O1  UNL     1     -11.671  -9.524  -4.724  1.00  0.00    -0.269 OA
HETATM   19  N6  UNL     1     -11.003 -11.547  -5.661  1.00  0.00    -0.197 N 
ATOM     20  H6  UNL     1     -11.219 -12.100  -6.491  1.00  0.00     0.205 HD
BRANCH  19  21
HETATM   21  N7  UNL     1     -10.096 -12.126  -4.902  1.00  0.00    -0.276 NA
BRANCH  21  22
HETATM   22  C8  UNL     1      -9.163 -12.723  -4.121  1.00  0.00     0.333 C 
BRANCH  22  23
HETATM   23  O2  UNL     1      -8.341 -11.917  -3.444  1.00  0.00    -0.319 OA
ATOM     24  H2  UNL     1      -8.059 -12.216  -2.587  1.00  0.00     0.222 HD
ENDBRANCH  22  23
BRANCH  22  25
HETATM   25  N8  UNL     1      -8.914 -14.098  -3.888  1.00  0.00    -0.258 N 
ATOM     26  H8  UNL     1      -9.665 -14.786  -3.952  1.00  0.00     0.191 HD
BRANCH  25  27
HETATM   27  N9  UNL     1      -7.584 -14.492  -3.563  1.00  0.00    -0.341 N 
ATOM     28  H92 UNL     1      -7.001 -14.950  -4.263  1.00  0.00     0.177 HD
ATOM     29  H91 UNL     1      -7.244 -14.302  -2.620  1.00  0.00     0.177 HD
ENDBRANCH  25  27
ENDBRANCH  22  25
ENDBRANCH  21  22
ENDBRANCH  19  21
ENDBRANCH  16  17
ENDBRANCH  15  16
TORSDOF 7
ENDMDL
