MODEL 1
REMARK VINA RESULT: -7.550137045      0.000      0.000
REMARK  7 active torsions:
REMARK  status: ('A' for Active; 'I' for Inactive)
REMARK    1  A    between atoms: N2_4  and  N3_6 
REMARK    2  A    between atoms: C1_8  and  C2_9 
REMARK    3  A    between atoms: C3_10  and  C4_11 
REMARK    4  A    between atoms: C7_15  and  C8_16 
REMARK    5  A    between atoms: N4_17  and  N5_19 
REMARK    6  A    between atoms: N5_19  and  N6_21 
REMARK    7  A    between atoms: C11_26  and  O1_27 
ROOT
HETATM    1  C4  UNL     1      13.347 -12.202  20.812  1.00  0.00    -0.008 A 
HETATM    2  C5  UNL     1      14.137 -11.106  20.381  1.00  0.00     0.022 A 
HETATM    3 BR1  UNL     1      14.275  -9.529  21.463  1.00  0.00    -0.050 Br
HETATM    4  C6  UNL     1      14.803 -11.141  19.209  1.00  0.00     0.033 A 
HETATM    5  C7  UNL     1      14.787 -12.200  18.341  1.00  0.00    -0.007 A 
HETATM    6  C9  UNL     1      14.010 -13.295  18.762  1.00  0.00    -0.011 A 
HETATM    7  C10 UNL     1      13.965 -14.414  17.987  1.00  0.00     0.051 A 
HETATM    8  C11 UNL     1      13.249 -15.547  18.371  1.00  0.00     0.084 A 
HETATM    9  C12 UNL     1      12.577 -15.533  19.554  1.00  0.00     0.044 A 
HETATM   10 BR2  UNL     1      11.568 -17.044  20.168  1.00  0.00    -0.048 Br
HETATM   11  C13 UNL     1      12.616 -14.401  20.345  1.00  0.00     0.035 A 
HETATM   12  C14 UNL     1      13.312 -13.285  19.971  1.00  0.00    -0.012 A 
ENDROOT
BRANCH   1  13
HETATM   13  C3  UNL     1      12.704 -12.036  22.069  1.00  0.00     0.015 C 
HETATM   14  C2  UNL     1      11.667 -11.391  22.479  1.00  0.00     0.019 C 
BRANCH  14  15
HETATM   15  C1  UNL     1      11.289 -11.463  23.908  1.00  0.00     0.108 C 
HETATM   16  N3  UNL     1      11.262 -12.558  24.553  1.00  0.00    -0.298 N 
ATOM     17  H3  UNL     1      11.507 -13.428  24.081  1.00  0.00     0.187 HD
BRANCH  16  18
HETATM   18  N2  UNL     1      10.900 -12.581  25.901  1.00  0.00    -0.250 N 
HETATM   19  N1  UNL     1      10.350 -13.610  26.398  1.00  0.00    -0.331 N 
ATOM     20  H12 UNL     1      10.178 -14.415  25.796  1.00  0.00     0.178 HD
ATOM     21  H11 UNL     1      10.086 -13.626  27.383  1.00  0.00     0.178 HD
ATOM     22  H2  UNL     1      11.080 -11.767  26.489  1.00  0.00     0.207 HD
ENDBRANCH  16  18
ENDBRANCH  14  15
ENDBRANCH   1  13
BRANCH   5  23
HETATM   23  C8  UNL     1      15.498 -12.219  17.084  1.00  0.00     0.120 C 
HETATM   24  N4  UNL     1      15.408 -11.383  16.181  1.00  0.00    -0.297 N 
ATOM     25  H4  UNL     1      16.031 -11.671  15.426  1.00  0.00     0.187 HD
BRANCH  24  26
HETATM   26  N5  UNL     1      14.817 -10.258  15.811  1.00  0.00    -0.250 N 
ATOM     27  H5  UNL     1      14.026  -9.886  16.337  1.00  0.00     0.207 HD
BRANCH  26  28
HETATM   28  N6  UNL     1      15.269  -9.641  14.767  1.00  0.00    -0.331 N 
ATOM     29  H62 UNL     1      15.185 -10.072  13.847  1.00  0.00     0.178 HD
ATOM     30  H61 UNL     1      15.702  -8.726  14.894  1.00  0.00     0.178 HD
ENDBRANCH  26  28
ENDBRANCH  24  26
ENDBRANCH   5  23
BRANCH   8  31
HETATM   31  O1  UNL     1      13.205 -16.689  17.576  1.00  0.00    -0.359 OA
ATOM     32  H1  UNL     1      12.514 -17.334  17.667  1.00  0.00     0.217 HD
ENDBRANCH   8  31
TORSDOF 7
ENDMDL
MODEL 2
REMARK VINA RESULT: -7.506298632      4.825      6.124
REMARK  7 active torsions:
REMARK  status: ('A' for Active; 'I' for Inactive)
REMARK    1  A    between atoms: N2_4  and  N3_6 
REMARK    2  A    between atoms: C1_8  and  C2_9 
REMARK    3  A    between atoms: C3_10  and  C4_11 
REMARK    4  A    between atoms: C7_15  and  C8_16 
REMARK    5  A    between atoms: N4_17  and  N5_19 
REMARK    6  A    between atoms: N5_19  and  N6_21 
REMARK    7  A    between atoms: C11_26  and  O1_27 
ROOT
HETATM    1  C4  UNL     1      18.150 -12.457  18.739  1.00  0.00    -0.008 A 
HETATM    2  C5  UNL     1      18.644 -12.072  17.467  1.00  0.00     0.022 A 
HETATM    3 BR1  UNL     1      20.515 -11.731  17.220  1.00  0.00    -0.050 Br
HETATM    4  C6  UNL     1      17.821 -11.933  16.408  1.00  0.00     0.033 A 
HETATM    5  C7  UNL     1      16.469 -12.141  16.447  1.00  0.00    -0.007 A 
HETATM    6  C9  UNL     1      15.967 -12.528  17.704  1.00  0.00    -0.011 A 
HETATM    7  C10 UNL     1      14.640 -12.800  17.834  1.00  0.00     0.051 A 
HETATM    8  C11 UNL     1      14.091 -13.230  19.042  1.00  0.00     0.084 A 
HETATM    9  C12 UNL     1      14.908 -13.383  20.119  1.00  0.00     0.044 A 
HETATM   10 BR2  UNL     1      14.247 -13.973  21.820  1.00  0.00    -0.048 Br
HETATM   11  C13 UNL     1      16.256 -13.108  19.996  1.00  0.00     0.035 A 
HETATM   12  C14 UNL     1      16.798 -12.680  18.816  1.00  0.00    -0.012 A 
ENDROOT
BRANCH   1  13
HETATM   13  C3  UNL     1      19.125 -12.571  19.767  1.00  0.00     0.015 C 
HETATM   14  C2  UNL     1      19.818 -13.540  20.257  1.00  0.00     0.019 C 
BRANCH  14  15
HETATM   15  C1  UNL     1      20.770 -13.265  21.355  1.00  0.00     0.108 C 
HETATM   16  N3  UNL     1      21.140 -14.160  22.179  1.00  0.00    -0.298 N 
ATOM     17  H3  UNL     1      20.775 -15.108  22.092  1.00  0.00     0.187 HD
BRANCH  16  18
HETATM   18  N2  UNL     1      22.042 -13.858  23.200  1.00  0.00    -0.250 N 
HETATM   19  N1  UNL     1      22.769 -14.768  23.701  1.00  0.00    -0.331 N 
ATOM     20  H12 UNL     1      22.682 -15.719  23.345  1.00  0.00     0.178 HD
ATOM     21  H11 UNL     1      23.429 -14.546  24.448  1.00  0.00     0.178 HD
ATOM     22  H2  UNL     1      22.117 -12.901  23.545  1.00  0.00     0.207 HD
ENDBRANCH  16  18
ENDBRANCH  14  15
ENDBRANCH   1  13
BRANCH   5  23
HETATM   23  C8  UNL     1      15.598 -11.979  15.306  1.00  0.00     0.120 C 
HETATM   24  N4  UNL     1      15.324 -10.917  14.740  1.00  0.00    -0.297 N 
ATOM     25  H4  UNL     1      14.687 -11.128  13.972  1.00  0.00     0.187 HD
BRANCH  24  26
HETATM   26  N5  UNL     1      15.537  -9.611  14.743  1.00  0.00    -0.250 N 
ATOM     27  H5  UNL     1      16.427  -9.225  14.429  1.00  0.00     0.207 HD
BRANCH  26  28
HETATM   28  N6  UNL     1      14.587  -8.834  15.156  1.00  0.00    -0.331 N 
ATOM     29  H62 UNL     1      13.712  -8.781  14.635  1.00  0.00     0.178 HD
ATOM     30  H61 UNL     1      14.742  -8.288  16.004  1.00  0.00     0.178 HD
ENDBRANCH  26  28
ENDBRANCH  24  26
ENDBRANCH   5  23
BRANCH   8  31
HETATM   31  O1  UNL     1      12.734 -13.507  19.171  1.00  0.00    -0.359 OA
ATOM     32  H1  UNL     1      12.419 -14.220  19.714  1.00  0.00     0.217 HD
ENDBRANCH   8  31
TORSDOF 7
ENDMDL
MODEL 3
REMARK VINA RESULT: -7.462636302      6.093      6.854
REMARK  7 active torsions:
REMARK  status: ('A' for Active; 'I' for Inactive)
REMARK    1  A    between atoms: N2_4  and  N3_6 
REMARK    2  A    between atoms: C1_8  and  C2_9 
REMARK    3  A    between atoms: C3_10  and  C4_11 
REMARK    4  A    between atoms: C7_15  and  C8_16 
REMARK    5  A    between atoms: N4_17  and  N5_19 
REMARK    6  A    between atoms: N5_19  and  N6_21 
REMARK    7  A    between atoms: C11_26  and  O1_27 
ROOT
HETATM    1  C4  UNL     1      18.956 -13.915  21.009  1.00  0.00    -0.008 A 
HETATM    2  C5  UNL     1      19.211 -12.915  20.037  1.00  0.00     0.022 A 
HETATM    3 BR1  UNL     1      20.896 -12.001  20.010  1.00  0.00    -0.050 Br
HETATM    4  C6  UNL     1      18.284 -12.580  19.116  1.00  0.00     0.033 A 
HETATM    5  C7  UNL     1      17.043 -13.150  19.026  1.00  0.00    -0.007 A 
HETATM    6  C9  UNL     1      16.780 -14.148  19.984  1.00  0.00    -0.011 A 
HETATM    7  C10 UNL     1      15.588 -14.803  19.950  1.00  0.00     0.051 A 
HETATM    8  C11 UNL     1      15.286 -15.831  20.843  1.00  0.00     0.084 A 
HETATM    9  C12 UNL     1      16.212 -16.186  21.774  1.00  0.00     0.044 A 
HETATM   10 BR2  UNL     1      15.891 -17.589  23.043  1.00  0.00    -0.048 Br
HETATM   11  C13 UNL     1      17.424 -15.524  21.817  1.00  0.00     0.035 A 
HETATM   12  C14 UNL     1      17.722 -14.513  20.947  1.00  0.00    -0.012 A 
ENDROOT
BRANCH   1  13
HETATM   13  C3  UNL     1      20.019 -14.173  21.917  1.00  0.00     0.015 C 
HETATM   14  C2  UNL     1      20.268 -13.851  23.139  1.00  0.00     0.019 C 
BRANCH  14  15
HETATM   15  C1  UNL     1      21.518 -14.326  23.772  1.00  0.00     0.108 C 
HETATM   16  N3  UNL     1      22.657 -13.836  23.488  1.00  0.00    -0.298 N 
ATOM     17  H3  UNL     1      22.726 -13.087  22.799  1.00  0.00     0.187 HD
BRANCH  16  18
HETATM   18  N2  UNL     1      23.811 -14.313  24.109  1.00  0.00    -0.250 N 
HETATM   19  N1  UNL     1      24.944 -13.820  23.821  1.00  0.00    -0.331 N 
ATOM     20  H12 UNL     1      24.992 -13.073  23.129  1.00  0.00     0.178 HD
ATOM     21  H11 UNL     1      25.788 -14.169  24.275  1.00  0.00     0.178 HD
ATOM     22  H2  UNL     1      23.745 -15.062  24.800  1.00  0.00     0.207 HD
ENDBRANCH  16  18
ENDBRANCH  14  15
ENDBRANCH   1  13
BRANCH   5  23
HETATM   23  C8  UNL     1      16.056 -12.775  18.039  1.00  0.00     0.120 C 
HETATM   24  N4  UNL     1      15.240 -11.854  18.136  1.00  0.00    -0.297 N 
ATOM     25  H4  UNL     1      14.683 -11.841  17.281  1.00  0.00     0.187 HD
BRANCH  24  26
HETATM   26  N5  UNL     1      14.806 -10.879  18.918  1.00  0.00    -0.250 N 
ATOM     27  H5  UNL     1      15.423 -10.446  19.606  1.00  0.00     0.207 HD
BRANCH  26  28
HETATM   28  N6  UNL     1      13.580 -10.486  18.788  1.00  0.00    -0.331 N 
ATOM     29  H62 UNL     1      12.867 -11.143  18.472  1.00  0.00     0.178 HD
ATOM     30  H61 UNL     1      13.356  -9.516  19.009  1.00  0.00     0.178 HD
ENDBRANCH  26  28
ENDBRANCH  24  26
ENDBRANCH   5  23
BRANCH   8  31
HETATM   31  O1  UNL     1      14.066 -16.499  20.805  1.00  0.00    -0.359 OA
ATOM     32  H1  UNL     1      14.010 -17.441  20.912  1.00  0.00     0.217 HD
ENDBRANCH   8  31
TORSDOF 7
ENDMDL
MODEL 4
REMARK VINA RESULT: -7.324091085      3.770      7.513
REMARK  7 active torsions:
REMARK  status: ('A' for Active; 'I' for Inactive)
REMARK    1  A    between atoms: N2_4  and  N3_6 
REMARK    2  A    between atoms: C1_8  and  C2_9 
REMARK    3  A    between atoms: C3_10  and  C4_11 
REMARK    4  A    between atoms: C7_15  and  C8_16 
REMARK    5  A    between atoms: N4_17  and  N5_19 
REMARK    6  A    between atoms: N5_19  and  N6_21 
REMARK    7  A    between atoms: C11_26  and  O1_27 
ROOT
HETATM    1  C4  UNL     1      14.783 -14.113  18.766  1.00  0.00    -0.008 A 
HETATM    2  C5  UNL     1      13.476 -14.097  19.314  1.00  0.00     0.022 A 
HETATM    3 BR1  UNL     1      12.140 -15.311  18.664  1.00  0.00    -0.050 Br
HETATM    4  C6  UNL     1      13.138 -13.235  20.294  1.00  0.00     0.033 A 
HETATM    5  C7  UNL     1      13.990 -12.317  20.845  1.00  0.00    -0.007 A 
HETATM    6  C9  UNL     1      15.293 -12.327  20.311  1.00  0.00    -0.011 A 
HETATM    7  C10 UNL     1      16.227 -11.479  20.822  1.00  0.00     0.051 A 
HETATM    8  C11 UNL     1      17.544 -11.472  20.366  1.00  0.00     0.084 A 
HETATM    9  C12 UNL     1      17.905 -12.340  19.383  1.00  0.00     0.044 A 
HETATM   10 BR2  UNL     1      19.694 -12.408  18.693  1.00  0.00    -0.048 Br
HETATM   11  C13 UNL     1      16.963 -13.203  18.857  1.00  0.00     0.035 A 
HETATM   12  C14 UNL     1      15.669 -13.209  19.297  1.00  0.00    -0.012 A 
ENDROOT
BRANCH   1  13
HETATM   13  C3  UNL     1      15.006 -15.075  17.742  1.00  0.00     0.015 C 
HETATM   14  C2  UNL     1      15.438 -16.288  17.716  1.00  0.00     0.019 C 
BRANCH  14  15
HETATM   15  C1  UNL     1      15.531 -16.994  16.418  1.00  0.00     0.108 C 
HETATM   16  N3  UNL     1      14.613 -16.936  15.541  1.00  0.00    -0.298 N 
ATOM     17  H3  UNL     1      13.774 -16.385  15.725  1.00  0.00     0.187 HD
BRANCH  16  18
HETATM   18  N2  UNL     1      14.742 -17.617  14.330  1.00  0.00    -0.250 N 
HETATM   19  N1  UNL     1      13.719 -18.093  13.752  1.00  0.00    -0.331 N 
ATOM     20  H12 UNL     1      12.805 -17.969  14.188  1.00  0.00     0.178 HD
ATOM     21  H11 UNL     1      13.813 -18.591  12.866  1.00  0.00     0.178 HD
ATOM     22  H2  UNL     1      15.663 -17.732  13.907  1.00  0.00     0.207 HD
ENDBRANCH  16  18
ENDBRANCH  14  15
ENDBRANCH   1  13
BRANCH   5  23
HETATM   23  C8  UNL     1      13.611 -11.393  21.889  1.00  0.00     0.120 C 
HETATM   24  N4  UNL     1      12.530 -11.366  22.483  1.00  0.00    -0.297 N 
ATOM     25  H4  UNL     1      12.566 -10.604  23.161  1.00  0.00     0.187 HD
BRANCH  24  26
HETATM   26  N5  UNL     1      11.343 -11.942  22.584  1.00  0.00    -0.250 N 
ATOM     27  H5  UNL     1      10.900 -12.372  21.772  1.00  0.00     0.207 HD
BRANCH  26  28
HETATM   28  N6  UNL     1      10.757 -11.945  23.738  1.00  0.00    -0.331 N 
ATOM     29  H62 UNL     1      11.207 -12.395  24.535  1.00  0.00     0.178 HD
ATOM     30  H61 UNL     1       9.847 -11.490  23.821  1.00  0.00     0.178 HD
ENDBRANCH  26  28
ENDBRANCH  24  26
ENDBRANCH   5  23
BRANCH   8  31
HETATM   31  O1  UNL     1      18.496 -10.604  20.891  1.00  0.00    -0.359 OA
ATOM     32  H1  UNL     1      19.415 -10.840  20.940  1.00  0.00     0.217 HD
ENDBRANCH   8  31
TORSDOF 7
ENDMDL
MODEL 5
REMARK VINA RESULT: -7.315594111      6.193      6.924
REMARK  7 active torsions:
REMARK  status: ('A' for Active; 'I' for Inactive)
REMARK    1  A    between atoms: N2_4  and  N3_6 
REMARK    2  A    between atoms: C1_8  and  C2_9 
REMARK    3  A    between atoms: C3_10  and  C4_11 
REMARK    4  A    between atoms: C7_15  and  C8_16 
REMARK    5  A    between atoms: N4_17  and  N5_19 
REMARK    6  A    between atoms: N5_19  and  N6_21 
REMARK    7  A    between atoms: C11_26  and  O1_27 
ROOT
HETATM    1  C4  UNL     1      19.006 -14.039  21.233  1.00  0.00    -0.008 A 
HETATM    2  C5  UNL     1      19.199 -13.039  20.247  1.00  0.00     0.022 A 
HETATM    3 BR1  UNL     1      20.855 -12.076  20.159  1.00  0.00    -0.050 Br
HETATM    4  C6  UNL     1      18.233 -12.739  19.356  1.00  0.00     0.033 A 
HETATM    5  C7  UNL     1      17.007 -13.345  19.310  1.00  0.00    -0.007 A 
HETATM    6  C9  UNL     1      16.806 -14.344  20.282  1.00  0.00    -0.011 A 
HETATM    7  C10 UNL     1      15.633 -15.035  20.291  1.00  0.00     0.051 A 
HETATM    8  C11 UNL     1      15.392 -16.064  21.200  1.00  0.00     0.084 A 
HETATM    9  C12 UNL     1      16.358 -16.386  22.102  1.00  0.00     0.044 A 
HETATM   10 BR2  UNL     1      16.121 -17.789  23.388  1.00  0.00    -0.048 Br
HETATM   11  C13 UNL     1      17.551 -15.688  22.100  1.00  0.00     0.035 A 
HETATM   12  C14 UNL     1      17.790 -14.675  21.215  1.00  0.00    -0.012 A 
ENDROOT
BRANCH   1  13
HETATM   13  C3  UNL     1      20.107 -14.260  22.106  1.00  0.00     0.015 C 
HETATM   14  C2  UNL     1      20.399 -13.896  23.307  1.00  0.00     0.019 C 
BRANCH  14  15
HETATM   15  C1  UNL     1      21.677 -14.341  23.906  1.00  0.00     0.108 C 
HETATM   16  N3  UNL     1      22.800 -13.859  23.556  1.00  0.00    -0.298 N 
ATOM     17  H3  UNL     1      22.837 -13.137  22.836  1.00  0.00     0.187 HD
BRANCH  16  18
HETATM   18  N2  UNL     1      23.982 -14.306  24.148  1.00  0.00    -0.250 N 
HETATM   19  N1  UNL     1      25.101 -13.837  23.776  1.00  0.00    -0.331 N 
ATOM     20  H12 UNL     1      25.118 -13.131  23.041  1.00  0.00     0.178 HD
ATOM     21  H11 UNL     1      25.965 -14.165  24.209  1.00  0.00     0.178 HD
ATOM     22  H2  UNL     1      23.947 -15.013  24.882  1.00  0.00     0.207 HD
ENDBRANCH  16  18
ENDBRANCH  14  15
ENDBRANCH   1  13
BRANCH   5  23
HETATM   23  C8  UNL     1      15.978 -13.006  18.355  1.00  0.00     0.120 C 
HETATM   24  N4  UNL     1      15.941 -11.995  17.649  1.00  0.00    -0.297 N 
ATOM     25  H4  UNL     1      15.094 -12.041  17.081  1.00  0.00     0.187 HD
BRANCH  24  26
HETATM   26  N5  UNL     1      16.573 -10.873  17.342  1.00  0.00    -0.250 N 
ATOM     27  H5  UNL     1      17.011 -10.304  18.067  1.00  0.00     0.207 HD
BRANCH  26  28
HETATM   28  N6  UNL     1      16.622 -10.515  16.099  1.00  0.00    -0.331 N 
ATOM     29  H62 UNL     1      15.834 -10.710  15.483  1.00  0.00     0.178 HD
ATOM     30  H61 UNL     1      17.461 -10.040  15.764  1.00  0.00     0.178 HD
ENDBRANCH  26  28
ENDBRANCH  24  26
ENDBRANCH   5  23
BRANCH   8  31
HETATM   31  O1  UNL     1      14.192 -16.768  21.206  1.00  0.00    -0.359 OA
ATOM     32  H1  UNL     1      14.121 -17.636  20.827  1.00  0.00     0.217 HD
ENDBRANCH   8  31
TORSDOF 7
ENDMDL
