MODEL 1
REMARK VINA RESULT: -7.087201228      0.000      0.000
REMARK  7 active torsions:
REMARK  status: ('A' for Active; 'I' for Inactive)
REMARK    1  A    between atoms: C2_2  and  C3_3 
REMARK    2  A    between atoms: C3_3  and  N1_4 
REMARK       I    between atoms: N1_4  and  C4_6 
REMARK       I    between atoms: C4_6  and  N3_10 
REMARK    3  A    between atoms: N3_10  and  C5_12 
REMARK    4  A    between atoms: C5_12  and  C6_13 
REMARK    5  A    between atoms: N4_15  and  C8_16 
REMARK    6  A    between atoms: C8_16  and  C9_17 
REMARK    7  A    between atoms: C10_18  and  C11_19 
ROOT
HETATM    1  C6  UNL     1      15.712 -11.351  19.058  1.00  0.00     0.045 A 
HETATM    2  C7  UNL     1      16.674 -11.323  20.072  1.00  0.00     0.119 A 
HETATM    3  N4  UNL     1      17.970 -11.531  19.860  1.00  0.00    -0.337 N 
HETATM    4  C12 UNL     1      18.354 -11.784  18.587  1.00  0.00     0.105 A 
HETATM    5 BR2  UNL     1      20.198 -12.100  18.166  1.00  0.00    -0.029 Br
HETATM    6  C13 UNL     1      17.460 -11.825  17.547  1.00  0.00     0.042 A 
HETATM    7  C14 UNL     1      17.896 -12.103  16.155  1.00  0.00     0.071 C 
HETATM    8  N5  UNL     1      16.142 -11.605  17.809  1.00  0.00    -0.353 N 
HETATM    9  C15 UNL     1      15.229 -11.653  16.713  1.00  0.00     0.156 C 
ENDROOT
BRANCH   1  10
HETATM   10  C5  UNL     1      14.281 -11.113  19.331  1.00  0.00     0.196 C 
BRANCH  10  11
HETATM   11  N3  UNL     1      14.035 -10.825  20.731  1.00  0.00    -0.221 N 
HETATM   12  C4  UNL     1      12.947 -11.396  21.407  1.00  0.00     0.667 C 
HETATM   13  N1  UNL     1      12.468 -10.951  22.663  1.00  0.00    -0.227 N 
HETATM   14  N2  UNL     1      12.330 -12.404  20.853  1.00  0.00    -0.235 N 
ATOM     15  H1  UNL     1      11.996 -11.606  23.287  1.00  0.00     0.177 HD
ATOM     16  H22 UNL     1      11.539 -12.820  21.345  1.00  0.00     0.174 HD
ATOM     17  H21 UNL     1      12.675 -12.725  19.948  1.00  0.00     0.174 HD
ATOM     18  H3  UNL     1      14.663 -10.197  21.232  1.00  0.00     0.178 HD
BRANCH  13  19
HETATM   19  C3  UNL     1      12.645  -9.573  23.067  1.00  0.00     0.137 C 
BRANCH  19  20
HETATM   20  C2  UNL     1      11.721  -9.236  24.226  1.00  0.00     0.016 C 
HETATM   21  C1  UNL     1      11.937  -7.814  24.664  1.00  0.00     0.006 C 
ENDBRANCH  19  20
ENDBRANCH  13  19
ENDBRANCH  10  11
ENDBRANCH   1  10
BRANCH   3  22
HETATM   22  C8  UNL     1      18.993 -11.513  20.859  1.00  0.00     0.223 C 
BRANCH  22  23
HETATM   23  C9  UNL     1      18.793 -12.653  21.738  1.00  0.00    -0.086 C 
HETATM   24  C10 UNL     1      18.637 -13.611  22.455  1.00  0.00    -0.094 C 
BRANCH  24  25
HETATM   25  C11 UNL     1      18.473 -14.780  23.322  1.00  0.00     0.178 C 
HETATM   26 BR1  UNL     1      19.272 -14.475  25.069  1.00  0.00    -0.083 Br
ENDBRANCH  24  25
ENDBRANCH  22  23
ENDBRANCH   3  22
TORSDOF 7
ENDMDL
MODEL 2
REMARK VINA RESULT: -7.034612149      2.036      2.482
REMARK  7 active torsions:
REMARK  status: ('A' for Active; 'I' for Inactive)
REMARK    1  A    between atoms: C2_2  and  C3_3 
REMARK    2  A    between atoms: C3_3  and  N1_4 
REMARK       I    between atoms: N1_4  and  C4_6 
REMARK       I    between atoms: C4_6  and  N3_10 
REMARK    3  A    between atoms: N3_10  and  C5_12 
REMARK    4  A    between atoms: C5_12  and  C6_13 
REMARK    5  A    between atoms: N4_15  and  C8_16 
REMARK    6  A    between atoms: C8_16  and  C9_17 
REMARK    7  A    between atoms: C10_18  and  C11_19 
ROOT
HETATM    1  C6  UNL     1      16.763 -13.949  20.677  1.00  0.00     0.045 A 
HETATM    2  C7  UNL     1      17.999 -14.081  21.317  1.00  0.00     0.119 A 
HETATM    3  N4  UNL     1      19.129 -13.563  20.845  1.00  0.00    -0.337 N 
HETATM    4  C12 UNL     1      19.054 -12.878  19.681  1.00  0.00     0.105 A 
HETATM    5 BR2  UNL     1      20.622 -12.089  18.907  1.00  0.00    -0.029 Br
HETATM    6  C13 UNL     1      17.872 -12.712  19.003  1.00  0.00     0.042 A 
HETATM    7  C14 UNL     1      17.805 -11.956  17.727  1.00  0.00     0.071 C 
HETATM    8  N5  UNL     1      16.739 -13.258  19.523  1.00  0.00    -0.353 N 
HETATM    9  C15 UNL     1      15.520 -13.074  18.803  1.00  0.00     0.156 C 
ENDROOT
BRANCH   1  10
HETATM   10  C5  UNL     1      15.528 -14.536  21.233  1.00  0.00     0.196 C 
BRANCH  10  11
HETATM   11  N3  UNL     1      14.746 -13.563  21.970  1.00  0.00    -0.221 N 
HETATM   12  C4  UNL     1      13.345 -13.588  21.942  1.00  0.00     0.667 C 
HETATM   13  N1  UNL     1      12.520 -12.524  22.381  1.00  0.00    -0.227 N 
HETATM   14  N2  UNL     1      12.752 -14.658  21.485  1.00  0.00    -0.235 N 
ATOM     15  H1  UNL     1      11.582 -12.720  22.732  1.00  0.00     0.177 HD
ATOM     16  H22 UNL     1      11.732 -14.676  21.465  1.00  0.00     0.174 HD
ATOM     17  H21 UNL     1      13.345 -15.424  21.169  1.00  0.00     0.174 HD
ATOM     18  H3  UNL     1      15.224 -12.848  22.519  1.00  0.00     0.178 HD
BRANCH  13  19
HETATM   19  C3  UNL     1      13.000 -11.160  22.334  1.00  0.00     0.137 C 
BRANCH  19  20
HETATM   20  C2  UNL     1      11.936 -10.205  22.852  1.00  0.00     0.016 C 
HETATM   21  C1  UNL     1      11.558 -10.567  24.261  1.00  0.00     0.006 C 
ENDBRANCH  19  20
ENDBRANCH  13  19
ENDBRANCH  10  11
ENDBRANCH   1  10
BRANCH   3  22
HETATM   22  C8  UNL     1      20.416 -13.669  21.458  1.00  0.00     0.223 C 
BRANCH  22  23
HETATM   23  C9  UNL     1      20.228 -13.830  22.890  1.00  0.00    -0.086 C 
HETATM   24  C10 UNL     1      20.089 -13.952  24.083  1.00  0.00    -0.094 C 
BRANCH  24  25
HETATM   25  C11 UNL     1      19.925 -14.075  25.533  1.00  0.00     0.178 C 
HETATM   26 BR1  UNL     1      21.265 -13.033  26.482  1.00  0.00    -0.083 Br
ENDBRANCH  24  25
ENDBRANCH  22  23
ENDBRANCH   3  22
TORSDOF 7
ENDMDL
MODEL 3
REMARK VINA RESULT: -6.753567348      1.094      1.094
REMARK  7 active torsions:
REMARK  status: ('A' for Active; 'I' for Inactive)
REMARK    1  A    between atoms: C2_2  and  C3_3 
REMARK    2  A    between atoms: C3_3  and  N1_4 
REMARK       I    between atoms: N1_4  and  C4_6 
REMARK       I    between atoms: C4_6  and  N3_10 
REMARK    3  A    between atoms: N3_10  and  C5_12 
REMARK    4  A    between atoms: C5_12  and  C6_13 
REMARK    5  A    between atoms: N4_15  and  C8_16 
REMARK    6  A    between atoms: C8_16  and  C9_17 
REMARK    7  A    between atoms: C10_18  and  C11_19 
ROOT
HETATM    1  C6  UNL     1      15.623 -11.409  19.092  1.00  0.00     0.045 A 
HETATM    2  C7  UNL     1      16.438 -11.536  20.221  1.00  0.00     0.119 A 
HETATM    3  N4  UNL     1      17.744 -11.773  20.160  1.00  0.00    -0.337 N 
HETATM    4  C12 UNL     1      18.292 -11.897  18.929  1.00  0.00     0.105 A 
HETATM    5 BR2  UNL     1      20.167 -12.242  18.722  1.00  0.00    -0.029 Br
HETATM    6  C13 UNL     1      17.547 -11.784  17.781  1.00  0.00     0.042 A 
HETATM    7  C14 UNL     1      18.161 -11.922  16.437  1.00  0.00     0.071 C 
HETATM    8  N5  UNL     1      16.212 -11.539  17.890  1.00  0.00    -0.353 N 
HETATM    9  C15 UNL     1      15.456 -11.426  16.685  1.00  0.00     0.156 C 
ENDROOT
BRANCH   1  10
HETATM   10  C5  UNL     1      14.174 -11.143  19.199  1.00  0.00     0.196 C 
BRANCH  10  11
HETATM   11  N3  UNL     1      13.779 -10.821  20.557  1.00  0.00    -0.221 N 
HETATM   12  C4  UNL     1      12.763 -11.538  21.205  1.00  0.00     0.667 C 
HETATM   13  N1  UNL     1      12.122 -11.111  22.394  1.00  0.00    -0.227 N 
HETATM   14  N2  UNL     1      12.377 -12.673  20.689  1.00  0.00    -0.235 N 
ATOM     15  H1  UNL     1      11.729 -11.802  23.033  1.00  0.00     0.177 HD
ATOM     16  H22 UNL     1      11.638 -13.195  21.160  1.00  0.00     0.174 HD
ATOM     17  H21 UNL     1      12.838 -12.980  19.832  1.00  0.00     0.174 HD
ATOM     18  H3  UNL     1      14.248 -10.060  21.048  1.00  0.00     0.178 HD
BRANCH  13  19
HETATM   19  C3  UNL     1      12.022  -9.703  22.706  1.00  0.00     0.137 C 
BRANCH  19  20
HETATM   20  C2  UNL     1      11.679  -9.507  24.174  1.00  0.00     0.016 C 
HETATM   21  C1  UNL     1      11.954  -8.087  24.585  1.00  0.00     0.006 C 
ENDBRANCH  19  20
ENDBRANCH  13  19
ENDBRANCH  10  11
ENDBRANCH   1  10
BRANCH   3  22
HETATM   22  C8  UNL     1      18.621 -11.911  21.281  1.00  0.00     0.223 C 
BRANCH  22  23
HETATM   23  C9  UNL     1      18.402 -13.219  21.875  1.00  0.00    -0.086 C 
HETATM   24  C10 UNL     1      18.226 -14.314  22.351  1.00  0.00    -0.094 C 
BRANCH  24  25
HETATM   25  C11 UNL     1      18.035 -15.650  22.919  1.00  0.00     0.178 C 
HETATM   26 BR1  UNL     1      17.733 -16.970  21.522  1.00  0.00    -0.083 Br
ENDBRANCH  24  25
ENDBRANCH  22  23
ENDBRANCH   3  22
TORSDOF 7
ENDMDL
MODEL 4
REMARK VINA RESULT: -6.709357015      1.743      2.063
REMARK  7 active torsions:
REMARK  status: ('A' for Active; 'I' for Inactive)
REMARK    1  A    between atoms: C2_2  and  C3_3 
REMARK    2  A    between atoms: C3_3  and  N1_4 
REMARK       I    between atoms: N1_4  and  C4_6 
REMARK       I    between atoms: C4_6  and  N3_10 
REMARK    3  A    between atoms: N3_10  and  C5_12 
REMARK    4  A    between atoms: C5_12  and  C6_13 
REMARK    5  A    between atoms: N4_15  and  C8_16 
REMARK    6  A    between atoms: C8_16  and  C9_17 
REMARK    7  A    between atoms: C10_18  and  C11_19 
ROOT
HETATM    1  C6  UNL     1      16.404 -13.534  19.719  1.00  0.00     0.045 A 
HETATM    2  C7  UNL     1      17.574 -13.738  20.458  1.00  0.00     0.119 A 
HETATM    3  N4  UNL     1      18.768 -13.301  20.073  1.00  0.00    -0.337 N 
HETATM    4  C12 UNL     1      18.832 -12.627  18.901  1.00  0.00     0.105 A 
HETATM    5 BR2  UNL     1      20.504 -11.952  18.249  1.00  0.00    -0.029 Br
HETATM    6  C13 UNL     1      17.720 -12.394  18.130  1.00  0.00     0.042 A 
HETATM    7  C14 UNL     1      17.804 -11.653  16.846  1.00  0.00     0.071 C 
HETATM    8  N5  UNL     1      16.516 -12.859  18.562  1.00  0.00    -0.353 N 
HETATM    9  C15 UNL     1      15.373 -12.606  17.746  1.00  0.00     0.156 C 
ENDROOT
BRANCH   1  10
HETATM   10  C5  UNL     1      15.093 -14.034  20.179  1.00  0.00     0.196 C 
BRANCH  10  11
HETATM   11  N3  UNL     1      14.401 -13.065  21.009  1.00  0.00    -0.221 N 
HETATM   12  C4  UNL     1      13.470 -13.472  21.974  1.00  0.00     0.667 C 
HETATM   13  N1  UNL     1      12.550 -12.602  22.609  1.00  0.00    -0.227 N 
HETATM   14  N2  UNL     1      13.440 -14.731  22.317  1.00  0.00    -0.235 N 
ATOM     15  H1  UNL     1      12.212 -12.819  23.547  1.00  0.00     0.177 HD
ATOM     16  H22 UNL     1      12.762 -15.027  23.020  1.00  0.00     0.174 HD
ATOM     17  H21 UNL     1      14.102 -15.358  21.860  1.00  0.00     0.174 HD
ATOM     18  H3  UNL     1      14.597 -12.071  20.887  1.00  0.00     0.178 HD
BRANCH  13  19
HETATM   19  C3  UNL     1      12.089 -11.407  21.936  1.00  0.00     0.137 C 
BRANCH  19  20
HETATM   20  C2  UNL     1      12.625 -10.166  22.631  1.00  0.00     0.016 C 
HETATM   21  C1  UNL     1      13.831  -9.644  21.901  1.00  0.00     0.006 C 
ENDBRANCH  19  20
ENDBRANCH  13  19
ENDBRANCH  10  11
ENDBRANCH   1  10
BRANCH   3  22
HETATM   22  C8  UNL     1      19.994 -13.481  20.788  1.00  0.00     0.223 C 
BRANCH  22  23
HETATM   23  C9  UNL     1      19.679 -13.664  22.195  1.00  0.00    -0.086 C 
HETATM   24  C10 UNL     1      19.434 -13.828  23.365  1.00  0.00    -0.094 C 
BRANCH  24  25
HETATM   25  C11 UNL     1      19.162 -14.022  24.791  1.00  0.00     0.178 C 
HETATM   26 BR1  UNL     1      20.714 -13.564  25.870  1.00  0.00    -0.083 Br
ENDBRANCH  24  25
ENDBRANCH  22  23
ENDBRANCH   3  22
TORSDOF 7
ENDMDL
MODEL 5
REMARK VINA RESULT: -6.638780476      2.425      3.818
REMARK  7 active torsions:
REMARK  status: ('A' for Active; 'I' for Inactive)
REMARK    1  A    between atoms: C2_2  and  C3_3 
REMARK    2  A    between atoms: C3_3  and  N1_4 
REMARK       I    between atoms: N1_4  and  C4_6 
REMARK       I    between atoms: C4_6  and  N3_10 
REMARK    3  A    between atoms: N3_10  and  C5_12 
REMARK    4  A    between atoms: C5_12  and  C6_13 
REMARK    5  A    between atoms: N4_15  and  C8_16 
REMARK    6  A    between atoms: C8_16  and  C9_17 
REMARK    7  A    between atoms: C10_18  and  C11_19 
ROOT
HETATM    1  C6  UNL     1      13.247 -13.484  20.514  1.00  0.00     0.045 A 
HETATM    2  C7  UNL     1      14.067 -12.429  20.101  1.00  0.00     0.119 A 
HETATM    3  N4  UNL     1      14.769 -12.445  18.972  1.00  0.00    -0.337 N 
HETATM    4  C12 UNL     1      14.669 -13.550  18.198  1.00  0.00     0.105 A 
HETATM    5 BR2  UNL     1      15.638 -13.681  16.548  1.00  0.00    -0.029 Br
HETATM    6  C13 UNL     1      13.882 -14.619  18.547  1.00  0.00     0.042 A 
HETATM    7  C14 UNL     1      13.782 -15.826  17.688  1.00  0.00     0.071 C 
HETATM    8  N5  UNL     1      13.179 -14.561  19.712  1.00  0.00    -0.353 N 
HETATM    9  C15 UNL     1      12.367 -15.683  20.055  1.00  0.00     0.156 C 
ENDROOT
BRANCH   1  10
HETATM   10  C5  UNL     1      12.481 -13.430  21.774  1.00  0.00     0.196 C 
BRANCH  10  11
HETATM   11  N3  UNL     1      12.775 -12.234  22.541  1.00  0.00    -0.221 N 
HETATM   12  C4  UNL     1      11.762 -11.536  23.211  1.00  0.00     0.667 C 
HETATM   13  N1  UNL     1      11.905 -10.224  23.725  1.00  0.00    -0.227 N 
HETATM   14  N2  UNL     1      10.607 -12.123  23.378  1.00  0.00    -0.235 N 
ATOM     15  H1  UNL     1      11.347  -9.930  24.527  1.00  0.00     0.177 HD
ATOM     16  H22 UNL     1       9.870 -11.614  23.866  1.00  0.00     0.174 HD
ATOM     17  H21 UNL     1      10.504 -13.067  23.007  1.00  0.00     0.174 HD
ATOM     18  H3  UNL     1      13.736 -11.897  22.592  1.00  0.00     0.178 HD
BRANCH  13  19
HETATM   19  C3  UNL     1      12.839  -9.299  23.121  1.00  0.00     0.137 C 
BRANCH  19  20
HETATM   20  C2  UNL     1      12.954  -8.037  23.960  1.00  0.00     0.016 C 
HETATM   21  C1  UNL     1      11.689  -7.820  24.745  1.00  0.00     0.006 C 
ENDBRANCH  19  20
ENDBRANCH  13  19
ENDBRANCH  10  11
ENDBRANCH   1  10
BRANCH   3  22
HETATM   22  C8  UNL     1      15.620 -11.396  18.504  1.00  0.00     0.223 C 
BRANCH  22  23
HETATM   23  C9  UNL     1      16.850 -11.425  19.279  1.00  0.00    -0.086 C 
HETATM   24  C10 UNL     1      17.859 -11.447  19.940  1.00  0.00    -0.094 C 
BRANCH  24  25
HETATM   25  C11 UNL     1      19.073 -11.492  20.758  1.00  0.00     0.178 C 
HETATM   26 BR1  UNL     1      20.582 -12.172  19.736  1.00  0.00    -0.083 Br
ENDBRANCH  24  25
ENDBRANCH  22  23
ENDBRANCH   3  22
TORSDOF 7
ENDMDL
