MODEL 1
REMARK VINA RESULT: -6.230900122      0.000      0.000
REMARK  7 active torsions:
REMARK  status: ('A' for Active; 'I' for Inactive)
REMARK    1  A    between atoms: N1_2  and  C2_4 
REMARK       I    between atoms: N2_6  and  C3_8 
REMARK    2  A    between atoms: C3_8  and  C4_10 
REMARK    3  A    between atoms: C4_10  and  C5_11 
REMARK    4  A    between atoms: C5_11  and  N3_12 
REMARK    5  A    between atoms: N3_12  and  C6_13 
REMARK    6  A    between atoms: C6_13  and  C7_14 
REMARK    7  A    between atoms: C8_15  and  C9_16 
ROOT
HETATM    1  C5  UNL     1      16.104 -11.143  21.128  1.00  0.00     0.271 C 
ENDROOT
BRANCH   1   2
HETATM    2  C4  UNL     1      14.730 -11.665  21.317  1.00  0.00     0.133 C 
BRANCH   2   3
HETATM    3  C3  UNL     1      13.632 -10.703  21.211  1.00  0.00     0.225 C 
HETATM    4  N2  UNL     1      13.531  -9.676  22.209  1.00  0.00    -0.307 N 
HETATM    5  C2  UNL     1      12.514  -9.645  23.000  1.00  0.00     0.151 C 
ATOM      6  H2  UNL     1      14.263  -8.971  22.292  1.00  0.00     0.171 HD
HETATM    7 BR1  UNL     1      12.295  -8.327  24.348  1.00  0.00    -0.011 Br
HETATM    8  O1  UNL     1      12.763 -10.698  20.320  1.00  0.00    -0.273 OA
BRANCH   5   9
HETATM    9  N1  UNL     1      11.509 -10.633  22.872  1.00  0.00    -0.375 N 
HETATM   10  C1  UNL     1      11.279 -11.522  23.996  1.00  0.00     0.148 C 
ATOM     11  H1  UNL     1      10.963 -10.718  22.015  1.00  0.00     0.161 HD
ENDBRANCH   5   9
ENDBRANCH   2   3
ENDBRANCH   1   2
BRANCH   1  12
HETATM   12  N3  UNL     1      16.806 -11.550  19.955  1.00  0.00     0.025 N 
HETATM   13  C10 UNL     1      16.300 -12.741  19.313  1.00  0.00     0.295 C 
HETATM   14  C11 UNL     1      16.649 -12.050  18.036  1.00  0.00     0.206 C 
HETATM   15 BR3  UNL     1      15.344 -12.184  16.629  1.00  0.00    -0.069 Br
HETATM   16  N4  UNL     1      16.529 -10.821  18.814  1.00  0.00    -0.028 NA
BRANCH  12  17
HETATM   17  C6  UNL     1      18.266 -11.572  20.129  1.00  0.00     0.354 C 
BRANCH  17  18
HETATM   18  C7  UNL     1      18.629 -12.403  21.286  1.00  0.00    -0.076 C 
HETATM   19  C8  UNL     1      18.933 -13.081  22.241  1.00  0.00    -0.094 C 
BRANCH  19  20
HETATM   20  C9  UNL     1      19.321 -13.890  23.401  1.00  0.00     0.178 C 
HETATM   21 BR2  UNL     1      21.230 -14.207  23.356  1.00  0.00    -0.083 Br
ENDBRANCH  19  20
ENDBRANCH  17  18
ENDBRANCH  12  17
ENDBRANCH   1  12
TORSDOF 7
ENDMDL
MODEL 2
REMARK VINA RESULT: -6.222488092      2.562      4.528
REMARK  7 active torsions:
REMARK  status: ('A' for Active; 'I' for Inactive)
REMARK    1  A    between atoms: N1_2  and  C2_4 
REMARK       I    between atoms: N2_6  and  C3_8 
REMARK    2  A    between atoms: C3_8  and  C4_10 
REMARK    3  A    between atoms: C4_10  and  C5_11 
REMARK    4  A    between atoms: C5_11  and  N3_12 
REMARK    5  A    between atoms: N3_12  and  C6_13 
REMARK    6  A    between atoms: C6_13  and  C7_14 
REMARK    7  A    between atoms: C8_15  and  C9_16 
ROOT
HETATM    1  C5  UNL     1      18.430 -12.004  21.332  1.00  0.00     0.271 C 
ENDROOT
BRANCH   1   2
HETATM    2  C4  UNL     1      17.200 -12.273  20.549  1.00  0.00     0.133 C 
BRANCH   2   3
HETATM    3  C3  UNL     1      16.371 -11.120  20.194  1.00  0.00     0.225 C 
HETATM    4  N2  UNL     1      15.526 -10.554  21.208  1.00  0.00    -0.307 N 
HETATM    5  C2  UNL     1      14.245 -10.596  21.074  1.00  0.00     0.151 C 
ATOM      6  H2  UNL     1      15.939 -10.120  22.033  1.00  0.00     0.171 HD
HETATM    7 BR1  UNL     1      13.051  -9.875  22.360  1.00  0.00    -0.011 Br
HETATM    8  O1  UNL     1      16.330 -10.580  19.073  1.00  0.00    -0.273 OA
BRANCH   5   9
HETATM    9  N1  UNL     1      13.690 -11.204  19.923  1.00  0.00    -0.375 N 
HETATM   10  C1  UNL     1      13.014 -12.479  20.085  1.00  0.00     0.148 C 
ATOM     11  H1  UNL     1      13.762 -10.761  19.008  1.00  0.00     0.161 HD
ENDBRANCH   5   9
ENDBRANCH   2   3
ENDBRANCH   1   2
BRANCH   1  12
HETATM   12  N3  UNL     1      19.317 -13.098  21.557  1.00  0.00     0.025 N 
HETATM   13  C10 UNL     1      19.350 -13.601  22.910  1.00  0.00     0.295 C 
HETATM   14  C11 UNL     1      19.504 -14.943  22.274  1.00  0.00     0.206 C 
HETATM   15 BR3  UNL     1      18.454 -16.359  23.046  1.00  0.00    -0.069 Br
HETATM   16  N4  UNL     1      18.868 -14.327  21.113  1.00  0.00    -0.028 NA
BRANCH  12  17
HETATM   17  C6  UNL     1      20.659 -12.882  20.994  1.00  0.00     0.354 C 
BRANCH  17  18
HETATM   18  C7  UNL     1      20.562 -12.503  19.578  1.00  0.00    -0.076 C 
HETATM   19  C8  UNL     1      20.485 -12.182  18.413  1.00  0.00    -0.094 C 
BRANCH  19  20
HETATM   20  C9  UNL     1      20.391 -11.772  17.009  1.00  0.00     0.178 C 
HETATM   21 BR2  UNL     1      18.537 -11.789  16.454  1.00  0.00    -0.083 Br
ENDBRANCH  19  20
ENDBRANCH  17  18
ENDBRANCH  12  17
ENDBRANCH   1  12
TORSDOF 7
ENDMDL
MODEL 3
REMARK VINA RESULT: -6.157250168      1.680      1.878
REMARK  7 active torsions:
REMARK  status: ('A' for Active; 'I' for Inactive)
REMARK    1  A    between atoms: N1_2  and  C2_4 
REMARK       I    between atoms: N2_6  and  C3_8 
REMARK    2  A    between atoms: C3_8  and  C4_10 
REMARK    3  A    between atoms: C4_10  and  C5_11 
REMARK    4  A    between atoms: C5_11  and  N3_12 
REMARK    5  A    between atoms: N3_12  and  C6_13 
REMARK    6  A    between atoms: C6_13  and  C7_14 
REMARK    7  A    between atoms: C8_15  and  C9_16 
ROOT
HETATM    1  C5  UNL     1      16.063 -10.986  19.955  1.00  0.00     0.271 C 
ENDROOT
BRANCH   1   2
HETATM    2  C4  UNL     1      15.125 -11.091  21.099  1.00  0.00     0.133 C 
BRANCH   2   3
HETATM    3  C3  UNL     1      13.920 -10.262  21.049  1.00  0.00     0.225 C 
HETATM    4  N2  UNL     1      13.644  -9.398  22.162  1.00  0.00    -0.307 N 
HETATM    5  C2  UNL     1      12.597  -9.597  22.887  1.00  0.00     0.151 C 
ATOM      6  H2  UNL     1      14.277  -8.628  22.379  1.00  0.00     0.171 HD
HETATM    7 BR1  UNL     1      12.152  -8.507  24.375  1.00  0.00    -0.011 Br
HETATM    8  O1  UNL     1      13.098 -10.241  20.114  1.00  0.00    -0.273 OA
BRANCH   5   9
HETATM    9  N1  UNL     1      11.732 -10.671  22.571  1.00  0.00    -0.375 N 
HETATM   10  C1  UNL     1      11.362 -11.584  23.637  1.00  0.00     0.148 C 
ATOM     11  H1  UNL     1      11.380 -10.801  21.623  1.00  0.00     0.161 HD
ENDBRANCH   5   9
ENDBRANCH   2   3
ENDBRANCH   1   2
BRANCH   1  12
HETATM   12  N3  UNL     1      16.143 -12.101  19.068  1.00  0.00     0.025 N 
HETATM   13  C10 UNL     1      15.996 -13.397  19.687  1.00  0.00     0.295 C 
HETATM   14  C11 UNL     1      15.263 -13.770  18.441  1.00  0.00     0.206 C 
HETATM   15 BR3  UNL     1      13.655 -14.796  18.693  1.00  0.00    -0.069 Br
HETATM   16  N4  UNL     1      15.013 -12.337  18.309  1.00  0.00    -0.028 NA
BRANCH  12  17
HETATM   17  C6  UNL     1      17.292 -12.032  18.152  1.00  0.00     0.354 C 
BRANCH  17  18
HETATM   18  C7  UNL     1      18.550 -12.090  18.908  1.00  0.00    -0.076 C 
HETATM   19  C8  UNL     1      19.589 -12.146  19.528  1.00  0.00    -0.094 C 
BRANCH  19  20
HETATM   20  C9  UNL     1      20.847 -12.236  20.275  1.00  0.00     0.178 C 
HETATM   21 BR2  UNL     1      20.683 -13.585  21.654  1.00  0.00    -0.083 Br
ENDBRANCH  19  20
ENDBRANCH  17  18
ENDBRANCH  12  17
ENDBRANCH   1  12
TORSDOF 7
ENDMDL
MODEL 4
REMARK VINA RESULT: -6.014137104      2.952      5.993
REMARK  7 active torsions:
REMARK  status: ('A' for Active; 'I' for Inactive)
REMARK    1  A    between atoms: N1_2  and  C2_4 
REMARK       I    between atoms: N2_6  and  C3_8 
REMARK    2  A    between atoms: C3_8  and  C4_10 
REMARK    3  A    between atoms: C4_10  and  C5_11 
REMARK    4  A    between atoms: C5_11  and  N3_12 
REMARK    5  A    between atoms: N3_12  and  C6_13 
REMARK    6  A    between atoms: C6_13  and  C7_14 
REMARK    7  A    between atoms: C8_15  and  C9_16 
ROOT
HETATM    1  C5  UNL     1      15.868 -14.075  19.304  1.00  0.00     0.271 C 
ENDROOT
BRANCH   1   2
HETATM    2  C4  UNL     1      15.904 -12.992  18.291  1.00  0.00     0.133 C 
BRANCH   2   3
HETATM    3  C3  UNL     1      16.758 -11.840  18.578  1.00  0.00     0.225 C 
HETATM    4  N2  UNL     1      18.180 -12.037  18.595  1.00  0.00    -0.307 N 
HETATM    5  C2  UNL     1      18.839 -11.878  19.692  1.00  0.00     0.151 C 
ATOM      6  H2  UNL     1      18.669 -12.302  17.740  1.00  0.00     0.171 HD
HETATM    7 BR1  UNL     1      20.717 -12.116  19.810  1.00  0.00    -0.011 Br
HETATM    8  O1  UNL     1      16.355 -10.686  18.816  1.00  0.00    -0.273 OA
BRANCH   5   9
HETATM    9  N1  UNL     1      18.143 -11.511  20.868  1.00  0.00    -0.375 N 
HETATM   10  C1  UNL     1      18.047 -12.489  21.936  1.00  0.00     0.148 C 
ATOM     11  H1  UNL     1      17.721 -10.588  20.963  1.00  0.00     0.161 HD
ENDBRANCH   5   9
ENDBRANCH   2   3
ENDBRANCH   1   2
BRANCH   1  12
HETATM   12  N3  UNL     1      14.618 -14.337  19.939  1.00  0.00     0.025 N 
HETATM   13  C10 UNL     1      13.451 -13.879  19.224  1.00  0.00     0.295 C 
HETATM   14  C11 UNL     1      12.802 -15.123  19.735  1.00  0.00     0.206 C 
HETATM   15 BR3  UNL     1      11.727 -16.088  18.465  1.00  0.00    -0.069 Br
HETATM   16  N4  UNL     1      14.164 -15.639  19.841  1.00  0.00    -0.028 NA
BRANCH  12  17
HETATM   17  C6  UNL     1      14.600 -13.963  21.362  1.00  0.00     0.354 C 
BRANCH  17  18
HETATM   18  C7  UNL     1      14.340 -12.524  21.506  1.00  0.00    -0.076 C 
HETATM   19  C8  UNL     1      14.130 -11.338  21.633  1.00  0.00    -0.094 C 
BRANCH  19  20
HETATM   20  C9  UNL     1      13.882  -9.904  21.808  1.00  0.00     0.178 C 
HETATM   21 BR2  UNL     1      12.396  -9.651  23.023  1.00  0.00    -0.083 Br
ENDBRANCH  19  20
ENDBRANCH  17  18
ENDBRANCH  12  17
ENDBRANCH   1  12
TORSDOF 7
ENDMDL
MODEL 5
REMARK VINA RESULT: -5.969127003      2.929      6.329
REMARK  7 active torsions:
REMARK  status: ('A' for Active; 'I' for Inactive)
REMARK    1  A    between atoms: N1_2  and  C2_4 
REMARK       I    between atoms: N2_6  and  C3_8 
REMARK    2  A    between atoms: C3_8  and  C4_10 
REMARK    3  A    between atoms: C4_10  and  C5_11 
REMARK    4  A    between atoms: C5_11  and  N3_12 
REMARK    5  A    between atoms: N3_12  and  C6_13 
REMARK    6  A    between atoms: C6_13  and  C7_14 
REMARK    7  A    between atoms: C8_15  and  C9_16 
ROOT
HETATM    1  C5  UNL     1      14.259 -12.951  18.686  1.00  0.00     0.271 C 
ENDROOT
BRANCH   1   2
HETATM    2  C4  UNL     1      15.416 -12.975  17.759  1.00  0.00     0.133 C 
BRANCH   2   3
HETATM    3  C3  UNL     1      16.415 -11.917  17.913  1.00  0.00     0.225 C 
HETATM    4  N2  UNL     1      17.801 -12.289  17.926  1.00  0.00    -0.307 N 
HETATM    5  C2  UNL     1      18.506 -12.105  18.990  1.00  0.00     0.151 C 
ATOM      6  H2  UNL     1      18.228 -12.697  17.095  1.00  0.00     0.171 HD
HETATM    7 BR1  UNL     1      20.344 -12.565  19.100  1.00  0.00    -0.011 Br
HETATM    8  O1  UNL     1      16.164 -10.704  18.038  1.00  0.00    -0.273 OA
BRANCH   5   9
HETATM    9  N1  UNL     1      17.896 -11.538  20.134  1.00  0.00    -0.375 N 
HETATM   10  C1  UNL     1      18.514 -11.777  21.425  1.00  0.00     0.148 C 
ATOM     11  H1  UNL     1      17.047 -10.979  20.053  1.00  0.00     0.161 HD
ENDBRANCH   5   9
ENDBRANCH   2   3
ENDBRANCH   1   2
BRANCH   1  12
HETATM   12  N3  UNL     1      14.338 -13.764  19.856  1.00  0.00     0.025 N 
HETATM   13  C10 UNL     1      14.925 -15.070  19.664  1.00  0.00     0.295 C 
HETATM   14  C11 UNL     1      15.521 -14.863  21.017  1.00  0.00     0.206 C 
HETATM   15 BR3  UNL     1      17.364 -15.382  21.208  1.00  0.00    -0.069 Br
HETATM   16  N4  UNL     1      15.353 -13.440  20.737  1.00  0.00    -0.028 NA
BRANCH  12  17
HETATM   17  C6  UNL     1      13.081 -13.810  20.618  1.00  0.00     0.354 C 
BRANCH  17  18
HETATM   18  C7  UNL     1      12.700 -12.459  21.053  1.00  0.00    -0.076 C 
HETATM   19  C8  UNL     1      12.394 -11.345  21.415  1.00  0.00    -0.094 C 
BRANCH  19  20
HETATM   20  C9  UNL     1      12.043  -9.995  21.866  1.00  0.00     0.178 C 
HETATM   21 BR2  UNL     1      11.674 -10.026  23.766  1.00  0.00    -0.083 Br
ENDBRANCH  19  20
ENDBRANCH  17  18
ENDBRANCH  12  17
ENDBRANCH   1  12
TORSDOF 7
ENDMDL
