MODEL 1
REMARK VINA RESULT: -6.725896347      0.000      0.000
REMARK  4 active torsions:
REMARK  status: ('A' for Active; 'I' for Inactive)
REMARK    1  A    between atoms: C2_2  and  C3_4 
REMARK       I    between atoms: C3_4  and  N1_6 
REMARK    2  A    between atoms: N1_6  and  N2_8 
REMARK    3  A    between atoms: C4_10  and  C5_11 
REMARK    4  A    between atoms: C4_10  and  C6_14 
ROOT
HETATM    1  N2  UNL     1     -25.128  51.598  49.778  1.00  0.00    -0.297 N 
ATOM      2  H2  UNL     1     -24.715  51.314  50.667  1.00  0.00     0.187 HD
HETATM    3  C4  UNL     1     -25.689  52.754  49.755  1.00  0.00     0.094 C 
ENDROOT
BRANCH   1   4
HETATM    4  N1  UNL     1     -25.022  50.701  48.741  1.00  0.00    -0.269 N 
HETATM    5  C3  UNL     1     -23.844  49.941  48.502  1.00  0.00     0.250 C 
HETATM    6  O1  UNL     1     -22.878  50.118  49.289  1.00  0.00    -0.271 OA
ATOM      7  H1  UNL     1     -25.821  50.575  48.118  1.00  0.00     0.190 HD
BRANCH   5   8
HETATM    8  C2  UNL     1     -23.739  48.977  47.379  1.00  0.00     0.147 C 
HETATM    9  C1  UNL     1     -22.366  48.298  47.353  1.00  0.00     0.032 C 
HETATM   10 BR1  UNL     1     -24.023  49.962  45.740  1.00  0.00    -0.082 Br
ENDBRANCH   5   8
ENDBRANCH   1   4
BRANCH   3  11
HETATM   11  C5  UNL     1     -26.328  53.334  48.595  1.00  0.00     0.279 C 
HETATM   12  N3  UNL     1     -26.232  52.730  47.319  1.00  0.00    -0.056 NA
HETATM   13  O2  UNL     1     -26.984  54.402  48.729  1.00  0.00    -0.270 OA
ENDBRANCH   3  11
BRANCH   3  14
HETATM   14  C6  UNL     1     -25.672  53.544  51.023  1.00  0.00     0.042 C 
HETATM   15  C7  UNL     1     -24.606  54.618  50.986  1.00  0.00     0.011 C 
HETATM   16  C8  UNL     1     -24.305  54.775  52.479  1.00  0.00     0.001 C 
HETATM   17  C9  UNL     1     -24.133  53.325  52.887  1.00  0.00     0.001 C 
HETATM   18  C10 UNL     1     -25.310  52.665  52.206  1.00  0.00     0.011 C 
ENDBRANCH   3  14
TORSDOF 4
ENDMDL
MODEL 2
REMARK VINA RESULT: -6.555356111      1.444      1.547
REMARK  4 active torsions:
REMARK  status: ('A' for Active; 'I' for Inactive)
REMARK    1  A    between atoms: C2_2  and  C3_4 
REMARK       I    between atoms: C3_4  and  N1_6 
REMARK    2  A    between atoms: N1_6  and  N2_8 
REMARK    3  A    between atoms: C4_10  and  C5_11 
REMARK    4  A    between atoms: C4_10  and  C6_14 
ROOT
HETATM    1  N2  UNL     1     -25.541  51.651  49.895  1.00  0.00    -0.297 N 
ATOM      2  H2  UNL     1     -25.235  51.010  50.627  1.00  0.00     0.187 HD
HETATM    3  C4  UNL     1     -25.716  52.874  50.246  1.00  0.00     0.094 C 
ENDROOT
BRANCH   1   4
HETATM    4  N1  UNL     1     -25.719  51.109  48.642  1.00  0.00    -0.269 N 
HETATM    5  C3  UNL     1     -24.743  50.282  48.019  1.00  0.00     0.250 C 
HETATM    6  O1  UNL     1     -23.687  50.056  48.664  1.00  0.00    -0.271 OA
ATOM      7  H1  UNL     1     -26.585  51.306  48.141  1.00  0.00     0.190 HD
BRANCH   5   8
HETATM    8  C2  UNL     1     -24.943  49.704  46.668  1.00  0.00     0.147 C 
HETATM    9  C1  UNL     1     -23.779  50.049  45.735  1.00  0.00     0.032 C 
HETATM   10 BR1  UNL     1     -26.593  50.427  45.966  1.00  0.00    -0.082 Br
ENDBRANCH   5   8
ENDBRANCH   1   4
BRANCH   3  11
HETATM   11  C5  UNL     1     -26.145  53.931  49.358  1.00  0.00     0.279 C 
HETATM   12  N3  UNL     1     -26.955  53.664  48.229  1.00  0.00    -0.056 NA
HETATM   13  O2  UNL     1     -25.785  55.115  49.599  1.00  0.00    -0.270 OA
ENDBRANCH   3  11
BRANCH   3  14
HETATM   14  C6  UNL     1     -25.454  53.214  51.677  1.00  0.00     0.042 C 
HETATM   15  C7  UNL     1     -23.970  53.331  51.950  1.00  0.00     0.011 C 
HETATM   16  C8  UNL     1     -23.923  52.978  53.439  1.00  0.00     0.001 C 
HETATM   17  C9  UNL     1     -24.763  51.716  53.456  1.00  0.00     0.001 C 
HETATM   18  C10 UNL     1     -25.942  52.110  52.596  1.00  0.00     0.011 C 
ENDBRANCH   3  14
TORSDOF 4
ENDMDL
MODEL 3
REMARK VINA RESULT: -6.494616763      1.486      1.501
REMARK  4 active torsions:
REMARK  status: ('A' for Active; 'I' for Inactive)
REMARK    1  A    between atoms: C2_2  and  C3_4 
REMARK       I    between atoms: C3_4  and  N1_6 
REMARK    2  A    between atoms: N1_6  and  N2_8 
REMARK    3  A    between atoms: C4_10  and  C5_11 
REMARK    4  A    between atoms: C4_10  and  C6_14 
ROOT
HETATM    1  N2  UNL     1     -24.676  51.369  49.916  1.00  0.00    -0.297 N 
ATOM      2  H2  UNL     1     -24.185  51.411  50.809  1.00  0.00     0.187 HD
HETATM    3  C4  UNL     1     -25.504  52.321  49.675  1.00  0.00     0.094 C 
ENDROOT
BRANCH   1   4
HETATM    4  N1  UNL     1     -24.377  50.298  49.104  1.00  0.00    -0.269 N 
HETATM    5  C3  UNL     1     -23.100  49.671  49.103  1.00  0.00     0.250 C 
HETATM    6  O1  UNL     1     -22.232  50.136  49.886  1.00  0.00    -0.271 OA
ATOM      7  H1  UNL     1     -25.099  49.940  48.480  1.00  0.00     0.190 HD
BRANCH   5   8
HETATM    8  C2  UNL     1     -22.787  48.519  48.223  1.00  0.00     0.147 C 
HETATM    9  C1  UNL     1     -22.902  48.899  46.744  1.00  0.00     0.032 C 
HETATM   10 BR1  UNL     1     -24.039  47.108  48.645  1.00  0.00    -0.082 Br
ENDBRANCH   5   8
ENDBRANCH   1   4
BRANCH   3  11
HETATM   11  C5  UNL     1     -26.293  52.440  48.470  1.00  0.00     0.279 C 
HETATM   12  N3  UNL     1     -26.775  53.693  48.023  1.00  0.00    -0.056 NA
HETATM   13  O2  UNL     1     -26.555  51.400  47.806  1.00  0.00    -0.270 OA
ENDBRANCH   3  11
BRANCH   3  14
HETATM   14  C6  UNL     1     -25.652  53.374  50.725  1.00  0.00     0.042 C 
HETATM   15  C7  UNL     1     -24.690  54.519  50.493  1.00  0.00     0.011 C 
HETATM   16  C8  UNL     1     -24.514  55.041  51.921  1.00  0.00     0.001 C 
HETATM   17  C9  UNL     1     -24.239  53.748  52.662  1.00  0.00     0.001 C 
HETATM   18  C10 UNL     1     -25.298  52.828  52.096  1.00  0.00     0.011 C 
ENDBRANCH   3  14
TORSDOF 4
ENDMDL
MODEL 4
REMARK VINA RESULT: -6.395615050      2.202      2.301
REMARK  4 active torsions:
REMARK  status: ('A' for Active; 'I' for Inactive)
REMARK    1  A    between atoms: C2_2  and  C3_4 
REMARK       I    between atoms: C3_4  and  N1_6 
REMARK    2  A    between atoms: N1_6  and  N2_8 
REMARK    3  A    between atoms: C4_10  and  C5_11 
REMARK    4  A    between atoms: C4_10  and  C6_14 
ROOT
HETATM    1  N2  UNL     1     -23.805  51.446  50.321  1.00  0.00    -0.297 N 
ATOM      2  H2  UNL     1     -23.237  51.906  51.032  1.00  0.00     0.187 HD
HETATM    3  C4  UNL     1     -24.984  51.921  50.139  1.00  0.00     0.094 C 
ENDROOT
BRANCH   1   4
HETATM    4  N1  UNL     1     -23.222  50.386  49.664  1.00  0.00    -0.269 N 
HETATM    5  C3  UNL     1     -22.809  49.202  50.336  1.00  0.00     0.250 C 
HETATM    6  O1  UNL     1     -22.998  49.153  51.579  1.00  0.00    -0.271 OA
ATOM      7  H1  UNL     1     -23.081  50.451  48.656  1.00  0.00     0.190 HD
BRANCH   5   8
HETATM    8  C2  UNL     1     -22.179  48.066  49.620  1.00  0.00     0.147 C 
HETATM    9  C1  UNL     1     -22.391  48.173  48.107  1.00  0.00     0.032 C 
HETATM   10 BR1  UNL     1     -22.984  46.441  50.289  1.00  0.00    -0.082 Br
ENDBRANCH   5   8
ENDBRANCH   1   4
BRANCH   3  11
HETATM   11  C5  UNL     1     -25.938  51.410  49.181  1.00  0.00     0.279 C 
HETATM   12  N3  UNL     1     -26.414  50.079  49.251  1.00  0.00    -0.056 NA
HETATM   13  O2  UNL     1     -26.352  52.170  48.264  1.00  0.00    -0.270 OA
ENDBRANCH   3  11
BRANCH   3  14
HETATM   14  C6  UNL     1     -25.385  53.086  50.984  1.00  0.00     0.042 C 
HETATM   15  C7  UNL     1     -24.730  54.363  50.506  1.00  0.00     0.011 C 
HETATM   16  C8  UNL     1     -24.689  55.170  51.806  1.00  0.00     0.001 C 
HETATM   17  C9  UNL     1     -24.109  54.142  52.758  1.00  0.00     0.001 C 
HETATM   18  C10 UNL     1     -24.912  52.907  52.415  1.00  0.00     0.011 C 
ENDBRANCH   3  14
TORSDOF 4
ENDMDL
MODEL 5
REMARK VINA RESULT: -6.395207357      2.014      2.106
REMARK  4 active torsions:
REMARK  status: ('A' for Active; 'I' for Inactive)
REMARK    1  A    between atoms: C2_2  and  C3_4 
REMARK       I    between atoms: C3_4  and  N1_6 
REMARK    2  A    between atoms: N1_6  and  N2_8 
REMARK    3  A    between atoms: C4_10  and  C5_11 
REMARK    4  A    between atoms: C4_10  and  C6_14 
ROOT
HETATM    1  N2  UNL     1     -23.972  51.306  50.337  1.00  0.00    -0.297 N 
ATOM      2  H2  UNL     1     -23.394  51.739  51.058  1.00  0.00     0.187 HD
HETATM    3  C4  UNL     1     -25.108  51.861  50.109  1.00  0.00     0.094 C 
ENDROOT
BRANCH   1   4
HETATM    4  N1  UNL     1     -23.447  50.194  49.719  1.00  0.00    -0.269 N 
HETATM    5  C3  UNL     1     -22.991  49.059  50.444  1.00  0.00     0.250 C 
HETATM    6  O1  UNL     1     -23.085  49.103  51.697  1.00  0.00    -0.271 OA
ATOM      7  H1  UNL     1     -23.384  50.184  48.701  1.00  0.00     0.190 HD
BRANCH   5   8
HETATM    8  C2  UNL     1     -22.425  47.866  49.768  1.00  0.00     0.147 C 
HETATM    9  C1  UNL     1     -21.019  47.546  50.286  1.00  0.00     0.032 C 
HETATM   10 BR1  UNL     1     -22.364  48.245  47.874  1.00  0.00    -0.082 Br
ENDBRANCH   5   8
ENDBRANCH   1   4
BRANCH   3  11
HETATM   11  C5  UNL     1     -26.067  51.399  49.131  1.00  0.00     0.279 C 
HETATM   12  N3  UNL     1     -26.544  50.067  49.136  1.00  0.00    -0.056 NA
HETATM   13  O2  UNL     1     -26.483  52.205  48.255  1.00  0.00    -0.270 OA
ENDBRANCH   3  11
BRANCH   3  14
HETATM   14  C6  UNL     1     -25.450  53.068  50.920  1.00  0.00     0.042 C 
HETATM   15  C7  UNL     1     -24.712  54.292  50.421  1.00  0.00     0.011 C 
HETATM   16  C8  UNL     1     -24.641  55.126  51.702  1.00  0.00     0.001 C 
HETATM   17  C9  UNL     1     -24.138  54.089  52.687  1.00  0.00     0.001 C 
HETATM   18  C10 UNL     1     -25.008  52.897  52.362  1.00  0.00     0.011 C 
ENDBRANCH   3  14
TORSDOF 4
ENDMDL
