MODEL 1
REMARK VINA RESULT: -5.594614008      0.000      0.000
REMARK  3 active torsions:
REMARK  status: ('A' for Active; 'I' for Inactive)
REMARK    1  A    between atoms: C4_4  and  N1_5 
REMARK    2  A    between atoms: N1_5  and  C5_7 
REMARK    3  A    between atoms: C5_7  and  C6_8 
ROOT
HETATM    1  C6  UNL     1      -3.119  29.728  -4.868  1.00  0.00     0.028 C 
HETATM    2  C7  UNL     1      -2.662  29.487  -3.482  1.00  0.00     0.009 C 
HETATM    3  C8  UNL     1      -2.502  30.811  -2.788  1.00  0.00     0.028 C 
HETATM    4  C9  UNL     1      -3.861  31.467  -2.729  1.00  0.00     0.232 C 
HETATM    5  N2  UNL     1      -4.459  31.598  -4.038  1.00  0.00    -0.075 N 
ATOM      6  H21 UNL     1      -4.755  32.559  -4.208  1.00  0.00     0.277 HD
ATOM      7  H22 UNL     1      -5.366  31.135  -4.072  1.00  0.00     0.277 HD
HETATM    8  C10 UNL     1      -3.602  31.128  -5.099  1.00  0.00     0.238 C 
ENDROOT
BRANCH   1   9
HETATM    9  C5  UNL     1      -1.987  29.502  -5.936  1.00  0.00     0.120 C 
BRANCH   9  10
HETATM   10  N1  UNL     1      -2.344  30.095  -7.156  1.00  0.00    -0.416 N 
ATOM     11  H1  UNL     1      -2.954  30.913  -7.168  1.00  0.00     0.153 HD
BRANCH  10  12
HETATM   12  C4  UNL     1      -1.859  29.558  -8.369  1.00  0.00     0.080 A 
HETATM   13  C2  UNL     1      -2.193  30.373  -9.663  1.00  0.00     0.006 A 
HETATM   14  C1  UNL     1      -2.881  31.656  -9.436  1.00  0.00     0.012 C 
HETATM   15  C3  UNL     1      -2.866  29.071  -9.366  1.00  0.00     0.031 A 
ENDBRANCH  10  12
ENDBRANCH   9  10
ENDBRANCH   1   9
TORSDOF 3
ENDMDL
MODEL 2
REMARK VINA RESULT: -5.400944634      2.384      6.393
REMARK  3 active torsions:
REMARK  status: ('A' for Active; 'I' for Inactive)
REMARK    1  A    between atoms: C4_4  and  N1_5 
REMARK    2  A    between atoms: N1_5  and  C5_7 
REMARK    3  A    between atoms: C5_7  and  C6_8 
ROOT
HETATM    1  C6  UNL     1      -2.442  30.074 -10.436  1.00  0.00     0.028 C 
HETATM    2  C7  UNL     1      -3.619  29.357 -10.974  1.00  0.00     0.009 C 
HETATM    3  C8  UNL     1      -3.782  29.715 -12.425  1.00  0.00     0.028 C 
HETATM    4  C9  UNL     1      -2.557  29.227 -13.161  1.00  0.00     0.232 C 
HETATM    5  N2  UNL     1      -1.337  29.756 -12.595  1.00  0.00    -0.075 N 
ATOM      6  H21 UNL     1      -0.761  30.192 -13.316  1.00  0.00     0.277 HD
ATOM      7  H22 UNL     1      -0.710  29.003 -12.313  1.00  0.00     0.277 HD
HETATM    8  C10 UNL     1      -1.570  30.668 -11.502  1.00  0.00     0.238 C 
ENDROOT
BRANCH   1   9
HETATM    9  C5  UNL     1      -2.830  31.279  -9.504  1.00  0.00     0.120 C 
BRANCH   9  10
HETATM   10  N1  UNL     1      -2.704  30.912  -8.155  1.00  0.00    -0.416 N 
ATOM     11  H1  UNL     1      -2.958  31.573  -7.420  1.00  0.00     0.153 HD
BRANCH  10  12
HETATM   12  C4  UNL     1      -2.225  29.627  -7.817  1.00  0.00     0.080 A 
HETATM   13  C2  UNL     1      -2.284  29.251  -6.299  1.00  0.00     0.006 A 
HETATM   14  C1  UNL     1      -2.931  30.249  -5.430  1.00  0.00     0.012 C 
HETATM   15  C3  UNL     1      -0.985  29.545  -6.981  1.00  0.00     0.031 A 
ENDBRANCH  10  12
ENDBRANCH   9  10
ENDBRANCH   1   9
TORSDOF 3
ENDMDL
MODEL 3
REMARK VINA RESULT: -5.314891391      1.824      5.956
REMARK  3 active torsions:
REMARK  status: ('A' for Active; 'I' for Inactive)
REMARK    1  A    between atoms: C4_4  and  N1_5 
REMARK    2  A    between atoms: N1_5  and  C5_7 
REMARK    3  A    between atoms: C5_7  and  C6_8 
ROOT
HETATM    1  C6  UNL     1      -2.650  30.488  -9.582  1.00  0.00     0.028 C 
HETATM    2  C7  UNL     1      -1.759  31.229 -10.502  1.00  0.00     0.009 C 
HETATM    3  C8  UNL     1      -1.444  30.352 -11.681  1.00  0.00     0.028 C 
HETATM    4  C9  UNL     1      -2.739  30.070 -12.405  1.00  0.00     0.232 C 
HETATM    5  N2  UNL     1      -3.733  29.487 -11.533  1.00  0.00    -0.075 N 
ATOM      6  H21 UNL     1      -4.111  28.629 -11.935  1.00  0.00     0.277 HD
ATOM      7  H22 UNL     1      -4.581  30.053 -11.518  1.00  0.00     0.277 HD
HETATM    8  C10 UNL     1      -3.245  29.256 -10.195  1.00  0.00     0.238 C 
ENDROOT
BRANCH   1   9
HETATM    9  C5  UNL     1      -1.915  29.988  -8.285  1.00  0.00     0.120 C 
BRANCH   9  10
HETATM   10  N1  UNL     1      -2.568  30.466  -7.140  1.00  0.00    -0.416 N 
ATOM     11  H1  UNL     1      -2.927  31.421  -7.117  1.00  0.00     0.153 HD
BRANCH  10  12
HETATM   12  C4  UNL     1      -2.729  29.624  -6.017  1.00  0.00     0.080 A 
HETATM   13  C2  UNL     1      -3.380  30.281  -4.754  1.00  0.00     0.006 A 
HETATM   14  C1  UNL     1      -3.840  31.669  -4.935  1.00  0.00     0.012 C 
HETATM   15  C3  UNL     1      -1.924  29.937  -4.793  1.00  0.00     0.031 A 
ENDBRANCH  10  12
ENDBRANCH   9  10
ENDBRANCH   1   9
TORSDOF 3
ENDMDL
MODEL 4
REMARK VINA RESULT: -4.978608874      2.612      6.518
REMARK  3 active torsions:
REMARK  status: ('A' for Active; 'I' for Inactive)
REMARK    1  A    between atoms: C4_4  and  N1_5 
REMARK    2  A    between atoms: N1_5  and  C5_7 
REMARK    3  A    between atoms: C5_7  and  C6_8 
ROOT
HETATM    1  C6  UNL     1      -2.888  30.934 -11.273  1.00  0.00     0.028 C 
HETATM    2  C7  UNL     1      -1.601  30.899 -12.001  1.00  0.00     0.009 C 
HETATM    3  C8  UNL     1      -1.313  29.481 -12.406  1.00  0.00     0.028 C 
HETATM    4  C9  UNL     1      -2.402  29.041 -13.354  1.00  0.00     0.232 C 
HETATM    5  N2  UNL     1      -3.719  29.194 -12.778  1.00  0.00    -0.075 N 
ATOM      6  H21 UNL     1      -4.249  28.325 -12.845  1.00  0.00     0.277 HD
ATOM      7  H22 UNL     1      -4.304  29.792 -13.360  1.00  0.00     0.277 HD
HETATM    8  C10 UNL     1      -3.687  29.674 -11.417  1.00  0.00     0.238 C 
ENDROOT
BRANCH   1   9
HETATM    9  C5  UNL     1      -2.712  31.133  -9.723  1.00  0.00     0.120 C 
BRANCH   9  10
HETATM   10  N1  UNL     1      -3.108  29.975  -9.036  1.00  0.00    -0.416 N 
ATOM     11  H1  UNL     1      -4.098  29.792  -8.871  1.00  0.00     0.153 HD
BRANCH  10  12
HETATM   12  C4  UNL     1      -2.133  29.064  -8.571  1.00  0.00     0.080 A 
HETATM   13  C2  UNL     1      -1.889  29.051  -7.025  1.00  0.00     0.006 A 
HETATM   14  C1  UNL     1      -2.786  29.917  -6.240  1.00  0.00     0.012 C 
HETATM   15  C3  UNL     1      -0.884  29.631  -7.969  1.00  0.00     0.031 A 
ENDBRANCH  10  12
ENDBRANCH   9  10
ENDBRANCH   1   9
TORSDOF 3
ENDMDL
MODEL 5
REMARK VINA RESULT: -4.965362145      3.061      5.097
REMARK  3 active torsions:
REMARK  status: ('A' for Active; 'I' for Inactive)
REMARK    1  A    between atoms: C4_4  and  N1_5 
REMARK    2  A    between atoms: N1_5  and  C5_7 
REMARK    3  A    between atoms: C5_7  and  C6_8 
ROOT
HETATM    1  C6  UNL     1      -3.389  30.583  -9.805  1.00  0.00     0.028 C 
HETATM    2  C7  UNL     1      -3.032  29.147  -9.804  1.00  0.00     0.009 C 
HETATM    3  C8  UNL     1      -1.822  28.950  -8.935  1.00  0.00     0.028 C 
HETATM    4  C9  UNL     1      -2.197  29.343  -7.526  1.00  0.00     0.232 C 
HETATM    5  N2  UNL     1      -2.713  30.691  -7.457  1.00  0.00    -0.075 N 
ATOM      6  H21 UNL     1      -2.217  31.235  -6.750  1.00  0.00     0.277 HD
ATOM      7  H22 UNL     1      -3.648  30.703  -7.051  1.00  0.00     0.277 HD
HETATM    8  C10 UNL     1      -2.696  31.368  -8.731  1.00  0.00     0.238 C 
ENDROOT
BRANCH   1   9
HETATM    9  C5  UNL     1      -3.014  31.308 -11.149  1.00  0.00     0.120 C 
BRANCH   9  10
HETATM   10  N1  UNL     1      -2.649  30.368 -12.125  1.00  0.00    -0.416 N 
ATOM     11  H1  UNL     1      -3.279  29.599 -12.354  1.00  0.00     0.153 HD
BRANCH  10  12
HETATM   12  C4  UNL     1      -1.407  30.487 -12.788  1.00  0.00     0.080 A 
HETATM   13  C2  UNL     1      -1.043  29.328 -13.774  1.00  0.00     0.006 A 
HETATM   14  C1  UNL     1      -2.093  28.311 -13.964  1.00  0.00     0.012 C 
HETATM   15  C3  UNL     1      -0.345  29.483 -12.460  1.00  0.00     0.031 A 
ENDBRANCH  10  12
ENDBRANCH   9  10
ENDBRANCH   1   9
TORSDOF 3
ENDMDL
