MODEL 1
REMARK VINA RESULT: -5.497720701      0.000      0.000
REMARK  3 active torsions:
REMARK  status: ('A' for Active; 'I' for Inactive)
REMARK    1  A    between atoms: C3_3  and  N1_4 
REMARK    2  A    between atoms: N1_4  and  C4_7 
REMARK    3  A    between atoms: C4_7  and  C5_8 
ROOT
HETATM    1  C1  UNL     1      -2.839  27.540 -13.821  1.00  0.00     0.013 C 
HETATM    2  C2  UNL     1      -2.054  28.469 -13.843  1.00  0.00    -0.090 C 
HETATM    3  C3  UNL     1      -1.155  29.602 -13.887  1.00  0.00     0.324 C 
ENDROOT
BRANCH   3   4
HETATM    4  N1  UNL     1      -0.932  30.177 -12.577  1.00  0.00    -0.064 N 
ATOM      5  H12 UNL     1      -0.527  29.511 -11.919  1.00  0.00     0.278 HD
ATOM      6  H11 UNL     1      -0.172  30.857 -12.571  1.00  0.00     0.278 HD
BRANCH   4   7
HETATM    7  C4  UNL     1      -2.181  30.735 -12.106  1.00  0.00     0.244 C 
BRANCH   7   8
HETATM    8  C5  UNL     1      -2.421  30.464 -10.678  1.00  0.00     0.009 C 
HETATM    9  C6  UNL     1      -3.241  29.261 -10.349  1.00  0.00     0.015 C 
HETATM   10  C7  UNL     1      -2.877  28.988  -8.883  1.00  0.00     0.034 C 
HETATM   11  C8  UNL     1      -2.007  30.161  -8.487  1.00  0.00     0.186 C 
HETATM   12  C9  UNL     1      -1.208  30.310  -9.805  1.00  0.00     0.046 C 
HETATM   13  N2  UNL     1      -2.839  31.346  -8.550  1.00  0.00    -0.070 N 
HETATM   14  C10 UNL     1      -3.102  31.621  -9.954  1.00  0.00     0.243 C 
ATOM     15  H22 UNL     1      -3.691  31.264  -7.995  1.00  0.00     0.277 HD
ATOM     16  H21 UNL     1      -2.436  32.142  -8.057  1.00  0.00     0.277 HD
ENDBRANCH   7   8
ENDBRANCH   4   7
ENDBRANCH   3   4
TORSDOF 3
ENDMDL
MODEL 2
REMARK VINA RESULT: -5.482742863      2.190      5.350
REMARK  3 active torsions:
REMARK  status: ('A' for Active; 'I' for Inactive)
REMARK    1  A    between atoms: C3_3  and  N1_4 
REMARK    2  A    between atoms: N1_4  and  C4_7 
REMARK    3  A    between atoms: C4_7  and  C5_8 
ROOT
HETATM    1  C1  UNL     1      -3.774  31.078  -4.538  1.00  0.00     0.013 C 
HETATM    2  C2  UNL     1      -3.011  30.345  -5.139  1.00  0.00    -0.090 C 
HETATM    3  C3  UNL     1      -2.120  29.437  -5.828  1.00  0.00     0.324 C 
ENDROOT
BRANCH   3   4
HETATM    4  N1  UNL     1      -2.604  29.088  -7.148  1.00  0.00    -0.064 N 
ATOM      5  H12 UNL     1      -2.886  28.111  -7.218  1.00  0.00     0.278 HD
ATOM      6  H11 UNL     1      -3.509  29.509  -7.358  1.00  0.00     0.278 HD
BRANCH   4   7
HETATM    7  C4  UNL     1      -1.587  29.444  -8.113  1.00  0.00     0.244 C 
BRANCH   7   8
HETATM    8  C5  UNL     1      -2.150  30.042  -9.337  1.00  0.00     0.009 C 
HETATM    9  C6  UNL     1      -2.823  31.366  -9.191  1.00  0.00     0.015 C 
HETATM   10  C7  UNL     1      -2.823  31.911 -10.625  1.00  0.00     0.034 C 
HETATM   11  C8  UNL     1      -2.290  30.768 -11.462  1.00  0.00     0.186 C 
HETATM   12  C9  UNL     1      -1.204  30.254 -10.484  1.00  0.00     0.046 C 
HETATM   13  N2  UNL     1      -3.256  29.691 -11.370  1.00  0.00    -0.070 N 
HETATM   14  C10 UNL     1      -3.177  29.147 -10.024  1.00  0.00     0.243 C 
ATOM     15  H22 UNL     1      -4.199  29.980 -11.627  1.00  0.00     0.277 HD
ATOM     16  H21 UNL     1      -3.132  28.983 -12.094  1.00  0.00     0.277 HD
ENDBRANCH   7   8
ENDBRANCH   4   7
ENDBRANCH   3   4
TORSDOF 3
ENDMDL
MODEL 3
REMARK VINA RESULT: -5.365915145      2.185      5.420
REMARK  3 active torsions:
REMARK  status: ('A' for Active; 'I' for Inactive)
REMARK    1  A    between atoms: C3_3  and  N1_4 
REMARK    2  A    between atoms: N1_4  and  C4_7 
REMARK    3  A    between atoms: C4_7  and  C5_8 
ROOT
HETATM    1  C1  UNL     1      -3.815  30.855  -3.891  1.00  0.00     0.013 C 
HETATM    2  C2  UNL     1      -3.212  30.336  -4.811  1.00  0.00    -0.090 C 
HETATM    3  C3  UNL     1      -2.530  29.688  -5.910  1.00  0.00     0.324 C 
ENDROOT
BRANCH   3   4
HETATM    4  N1  UNL     1      -2.642  30.438  -7.145  1.00  0.00    -0.064 N 
ATOM      5  H12 UNL     1      -3.610  30.572  -7.437  1.00  0.00     0.278 HD
ATOM      6  H11 UNL     1      -2.394  31.420  -7.031  1.00  0.00     0.278 HD
BRANCH   4   7
HETATM    7  C4  UNL     1      -1.843  29.775  -8.153  1.00  0.00     0.244 C 
BRANCH   7   8
HETATM    8  C5  UNL     1      -2.266  30.111  -9.523  1.00  0.00     0.009 C 
HETATM    9  C6  UNL     1      -3.253  29.194 -10.166  1.00  0.00     0.015 C 
HETATM   10  C7  UNL     1      -3.841  30.057 -11.291  1.00  0.00     0.034 C 
HETATM   11  C8  UNL     1      -3.011  31.323 -11.266  1.00  0.00     0.186 C 
HETATM   12  C9  UNL     1      -2.865  31.473  -9.732  1.00  0.00     0.046 C 
HETATM   13  N2  UNL     1      -1.657  30.948 -11.623  1.00  0.00    -0.070 N 
HETATM   14  C10 UNL     1      -1.103  30.198 -10.506  1.00  0.00     0.243 C 
ATOM     15  H22 UNL     1      -1.604  30.442 -12.507  1.00  0.00     0.277 HD
ATOM     16  H21 UNL     1      -1.081  31.745 -11.892  1.00  0.00     0.277 HD
ENDBRANCH   7   8
ENDBRANCH   4   7
ENDBRANCH   3   4
TORSDOF 3
ENDMDL
MODEL 4
REMARK VINA RESULT: -5.321735134      0.998      1.501
REMARK  3 active torsions:
REMARK  status: ('A' for Active; 'I' for Inactive)
REMARK    1  A    between atoms: C3_3  and  N1_4 
REMARK    2  A    between atoms: N1_4  and  C4_7 
REMARK    3  A    between atoms: C4_7  and  C5_8 
ROOT
HETATM    1  C1  UNL     1      -0.432  30.057 -13.761  1.00  0.00     0.013 C 
HETATM    2  C2  UNL     1      -1.429  29.365 -13.677  1.00  0.00    -0.090 C 
HETATM    3  C3  UNL     1      -2.590  28.511 -13.549  1.00  0.00     0.324 C 
ENDROOT
BRANCH   3   4
HETATM    4  N1  UNL     1      -3.562  29.042 -12.615  1.00  0.00    -0.064 N 
ATOM      5  H12 UNL     1      -4.485  29.159 -13.033  1.00  0.00     0.278 HD
ATOM      6  H11 UNL     1      -3.821  28.369 -11.893  1.00  0.00     0.278 HD
BRANCH   4   7
HETATM    7  C4  UNL     1      -3.039  30.274 -12.066  1.00  0.00     0.244 C 
BRANCH   7   8
HETATM    8  C5  UNL     1      -2.802  30.192 -10.614  1.00  0.00     0.009 C 
HETATM    9  C6  UNL     1      -3.308  28.973  -9.917  1.00  0.00     0.015 C 
HETATM   10  C7  UNL     1      -2.490  28.956  -8.619  1.00  0.00     0.034 C 
HETATM   11  C8  UNL     1      -1.716  30.256  -8.645  1.00  0.00     0.186 C 
HETATM   12  C9  UNL     1      -1.375  30.291 -10.154  1.00  0.00     0.046 C 
HETATM   13  N2  UNL     1      -2.689  31.328  -8.570  1.00  0.00    -0.070 N 
HETATM   14  C10 UNL     1      -3.393  31.368  -9.842  1.00  0.00     0.243 C 
ATOM     15  H22 UNL     1      -3.316  31.242  -7.771  1.00  0.00     0.277 HD
ATOM     16  H21 UNL     1      -2.273  32.225  -8.317  1.00  0.00     0.277 HD
ENDBRANCH   7   8
ENDBRANCH   4   7
ENDBRANCH   3   4
TORSDOF 3
ENDMDL
MODEL 5
REMARK VINA RESULT: -5.293073275      2.106      5.236
REMARK  3 active torsions:
REMARK  status: ('A' for Active; 'I' for Inactive)
REMARK    1  A    between atoms: C3_3  and  N1_4 
REMARK    2  A    between atoms: N1_4  and  C4_7 
REMARK    3  A    between atoms: C4_7  and  C5_8 
ROOT
HETATM    1  C1  UNL     1      -3.664  30.789  -4.428  1.00  0.00     0.013 C 
HETATM    2  C2  UNL     1      -2.975  30.105  -5.160  1.00  0.00    -0.090 C 
HETATM    3  C3  UNL     1      -2.176  29.251  -6.013  1.00  0.00     0.324 C 
ENDROOT
BRANCH   3   4
HETATM    4  N1  UNL     1      -2.671  29.216  -7.374  1.00  0.00    -0.064 N 
ATOM      5  H12 UNL     1      -3.111  28.326  -7.609  1.00  0.00     0.278 HD
ATOM      6  H11 UNL     1      -3.486  29.814  -7.511  1.00  0.00     0.278 HD
BRANCH   4   7
HETATM    7  C4  UNL     1      -1.580  29.549  -8.263  1.00  0.00     0.244 C 
BRANCH   7   8
HETATM    8  C5  UNL     1      -2.041  30.156  -9.524  1.00  0.00     0.009 C 
HETATM    9  C6  UNL     1      -1.014  30.365 -10.586  1.00  0.00     0.015 C 
HETATM   10  C7  UNL     1      -1.859  30.505 -11.859  1.00  0.00     0.034 C 
HETATM   11  C8  UNL     1      -3.288  30.517 -11.361  1.00  0.00     0.186 C 
HETATM   12  C9  UNL     1      -3.154  29.450 -10.247  1.00  0.00     0.046 C 
HETATM   13  N2  UNL     1      -3.447  31.715 -10.560  1.00  0.00    -0.070 N 
HETATM   14  C10 UNL     1      -2.698  31.519  -9.330  1.00  0.00     0.243 C 
ATOM     15  H22 UNL     1      -3.181  32.564 -11.058  1.00  0.00     0.277 HD
ATOM     16  H21 UNL     1      -4.424  31.957 -10.397  1.00  0.00     0.277 HD
ENDBRANCH   7   8
ENDBRANCH   4   7
ENDBRANCH   3   4
TORSDOF 3
ENDMDL
