MODEL 1
REMARK VINA RESULT: -8.072759275      0.000      0.000
REMARK  7 active torsions:
REMARK  status: ('A' for Active; 'I' for Inactive)
REMARK    1  A    between atoms: C2_2  and  O1_3 
REMARK    2  A    between atoms: C5_7  and  C6_8 
REMARK    3  A    between atoms: C6_8  and  C7_9 
REMARK    4  A    between atoms: C7_9  and  C8_10 
REMARK    5  A    between atoms: C8_10  and  C9_11 
REMARK    6  A    between atoms: C9_11  and  C10_12 
REMARK    7  A    between atoms: C22_27  and  O5_29 
ROOT
HETATM    1  C8  UNL     1      10.056  31.498  74.910  1.00  0.00     0.002 C 
ENDROOT
BRANCH   1   2
HETATM    2  C7  UNL     1       9.870  32.170  76.209  1.00  0.00     0.000 C 
BRANCH   2   3
HETATM    3  C6  UNL     1       9.275  33.538  76.214  1.00  0.00     0.005 C 
BRANCH   3   4
HETATM    4  C5  UNL     1       7.807  33.692  76.398  1.00  0.00    -0.012 C 
HETATM    5  C4  UNL     1       7.275  33.822  77.764  1.00  0.00     0.008 C 
HETATM    6  C3  UNL     1       6.129  34.836  77.763  1.00  0.00     0.041 C 
HETATM    7  C2  UNL     1       6.739  36.173  77.391  1.00  0.00     0.085 C 
HETATM    8  C1  UNL     1       5.704  37.245  77.582  1.00  0.00     0.049 C 
HETATM    9  C22 UNL     1       7.284  36.132  75.972  1.00  0.00     0.085 C 
HETATM   10  C21 UNL     1       7.250  34.726  75.420  1.00  0.00     0.045 C 
HETATM   11  C23 UNL     1       8.640  36.783  75.848  1.00  0.00     0.049 C 
BRANCH   7  12
HETATM   12  O1  UNL     1       7.813  36.392  78.251  1.00  0.00    -0.387 OA
ATOM     13  H1  UNL     1       8.102  35.567  78.624  1.00  0.00     0.210 HD
ENDBRANCH   7  12
BRANCH   9  14
HETATM   14  O5  UNL     1       6.394  36.879  75.194  1.00  0.00    -0.387 OA
ATOM     15  H5  UNL     1       6.919  37.299  74.524  1.00  0.00     0.210 HD
ENDBRANCH   9  14
ENDBRANCH   3   4
ENDBRANCH   2   3
ENDBRANCH   1   2
BRANCH   1  16
HETATM   16  C9  UNL     1      11.445  31.498  74.349  1.00  0.00     0.032 C 
BRANCH  16  17
HETATM   17  C10 UNL     1      11.802  30.272  73.625  1.00  0.00     0.125 C 
HETATM   18  O2  UNL     1      11.988  30.409  72.285  1.00  0.00    -0.385 OA
HETATM   19  C11 UNL     1      12.319  29.262  71.622  1.00  0.00     0.168 C 
HETATM   20  C12 UNL     1      12.369  28.035  72.461  1.00  0.00     0.032 C 
HETATM   21  C13 UNL     1      13.097  28.227  73.766  1.00  0.00     0.001 C 
HETATM   22  C14 UNL     1      13.101  29.648  74.178  1.00  0.00     0.019 C 
HETATM   23  C20 UNL     1      14.434  27.569  73.710  1.00  0.00     0.028 C 
HETATM   24  C15 UNL     1      14.257  30.457  73.737  1.00  0.00     0.008 C 
HETATM   25  C16 UNL     1      15.558  29.747  73.674  1.00  0.00     0.015 C 
HETATM   26  C17 UNL     1      15.504  28.391  73.051  1.00  0.00     0.092 C 
HETATM   27  C18 UNL     1      16.730  27.649  73.523  1.00  0.00     0.263 C 
HETATM   28  O3  UNL     1      17.770  27.383  72.866  1.00  0.00    -0.265 OA
HETATM   29  O4  UNL     1      16.451  27.324  74.844  1.00  0.00    -0.321 OA
HETATM   30  C19 UNL     1      15.044  27.312  75.066  1.00  0.00     0.184 C 
ENDBRANCH  16  17
ENDBRANCH   1  16
TORSDOF 7
ENDMDL
MODEL 2
REMARK VINA RESULT: -8.031772627      2.259      9.000
REMARK  7 active torsions:
REMARK  status: ('A' for Active; 'I' for Inactive)
REMARK    1  A    between atoms: C2_2  and  O1_3 
REMARK    2  A    between atoms: C5_7  and  C6_8 
REMARK    3  A    between atoms: C6_8  and  C7_9 
REMARK    4  A    between atoms: C7_9  and  C8_10 
REMARK    5  A    between atoms: C8_10  and  C9_11 
REMARK    6  A    between atoms: C9_11  and  C10_12 
REMARK    7  A    between atoms: C22_27  and  O5_29 
ROOT
HETATM    1  C8  UNL     1       8.184  31.188  76.829  1.00  0.00     0.002 C 
ENDROOT
BRANCH   1   2
HETATM    2  C7  UNL     1       8.719  30.158  75.919  1.00  0.00     0.000 C 
BRANCH   2   3
HETATM    3  C6  UNL     1      10.169  30.214  75.570  1.00  0.00     0.005 C 
BRANCH   3   4
HETATM    4  C5  UNL     1      10.574  30.675  74.215  1.00  0.00    -0.012 C 
HETATM    5  C4  UNL     1      11.771  31.519  74.084  1.00  0.00     0.008 C 
HETATM    6  C3  UNL     1      12.533  31.118  72.818  1.00  0.00     0.041 C 
HETATM    7  C2  UNL     1      13.009  29.696  73.036  1.00  0.00     0.085 C 
HETATM    8  C1  UNL     1      13.942  29.324  71.919  1.00  0.00     0.049 C 
HETATM    9  C22 UNL     1      11.824  28.750  73.148  1.00  0.00     0.085 C 
HETATM   10  C21 UNL     1      10.525  29.517  73.219  1.00  0.00     0.045 C 
HETATM   11  C23 UNL     1      11.980  27.748  74.265  1.00  0.00     0.049 C 
BRANCH   7  12
HETATM   12  O1  UNL     1      13.689  29.668  74.252  1.00  0.00    -0.387 OA
ATOM     13  H1  UNL     1      14.123  30.501  74.398  1.00  0.00     0.210 HD
ENDBRANCH   7  12
BRANCH   9  14
HETATM   14  O5  UNL     1      11.788  28.031  71.948  1.00  0.00    -0.387 OA
ATOM     15  H5  UNL     1      10.875  27.818  71.796  1.00  0.00     0.210 HD
ENDBRANCH   9  14
ENDBRANCH   3   4
ENDBRANCH   2   3
ENDBRANCH   1   2
BRANCH   1  16
HETATM   16  C9  UNL     1       9.148  31.776  77.814  1.00  0.00     0.032 C 
BRANCH  16  17
HETATM   17  C10 UNL     1       8.929  33.201  78.092  1.00  0.00     0.125 C 
HETATM   18  O2  UNL     1       9.892  33.814  78.832  1.00  0.00    -0.385 OA
HETATM   19  C11 UNL     1       9.678  35.139  79.086  1.00  0.00     0.168 C 
HETATM   20  C12 UNL     1       8.401  35.688  78.560  1.00  0.00     0.032 C 
HETATM   21  C13 UNL     1       8.104  35.274  77.141  1.00  0.00     0.001 C 
HETATM   22  C14 UNL     1       8.803  34.018  76.789  1.00  0.00     0.019 C 
HETATM   23  C20 UNL     1       8.330  36.419  76.214  1.00  0.00     0.028 C 
HETATM   24  C15 UNL     1      10.139  34.162  76.172  1.00  0.00     0.008 C 
HETATM   25  C16 UNL     1      10.319  35.332  75.279  1.00  0.00     0.015 C 
HETATM   26  C17 UNL     1       9.763  36.614  75.805  1.00  0.00     0.092 C 
HETATM   27  C18 UNL     1       9.572  37.523  74.616  1.00  0.00     0.263 C 
HETATM   28  O3  UNL     1      10.269  38.518  74.287  1.00  0.00    -0.265 OA
HETATM   29  O4  UNL     1       8.452  37.017  73.968  1.00  0.00    -0.321 OA
HETATM   30  C19 UNL     1       7.654  36.262  74.875  1.00  0.00     0.184 C 
ENDBRANCH  16  17
ENDBRANCH   1  16
TORSDOF 7
ENDMDL
MODEL 3
REMARK VINA RESULT: -8.006874901      1.098      1.537
REMARK  7 active torsions:
REMARK  status: ('A' for Active; 'I' for Inactive)
REMARK    1  A    between atoms: C2_2  and  O1_3 
REMARK    2  A    between atoms: C5_7  and  C6_8 
REMARK    3  A    between atoms: C6_8  and  C7_9 
REMARK    4  A    between atoms: C7_9  and  C8_10 
REMARK    5  A    between atoms: C8_10  and  C9_11 
REMARK    6  A    between atoms: C9_11  and  C10_12 
REMARK    7  A    between atoms: C22_27  and  O5_29 
ROOT
HETATM    1  C8  UNL     1      10.064  31.569  74.809  1.00  0.00     0.002 C 
ENDROOT
BRANCH   1   2
HETATM    2  C7  UNL     1       9.876  32.180  76.138  1.00  0.00     0.000 C 
BRANCH   2   3
HETATM    3  C6  UNL     1       9.284  33.548  76.204  1.00  0.00     0.005 C 
BRANCH   3   4
HETATM    4  C5  UNL     1       7.815  33.697  76.387  1.00  0.00    -0.012 C 
HETATM    5  C4  UNL     1       7.281  33.819  77.753  1.00  0.00     0.008 C 
HETATM    6  C3  UNL     1       6.133  34.831  77.755  1.00  0.00     0.041 C 
HETATM    7  C2  UNL     1       6.738  36.170  77.388  1.00  0.00     0.085 C 
HETATM    8  C1  UNL     1       5.700  37.239  77.582  1.00  0.00     0.049 C 
HETATM    9  C22 UNL     1       7.286  36.136  75.970  1.00  0.00     0.085 C 
HETATM   10  C21 UNL     1       7.257  34.733  75.413  1.00  0.00     0.045 C 
HETATM   11  C23 UNL     1       8.639  36.792  75.850  1.00  0.00     0.049 C 
BRANCH   7  12
HETATM   12  O1  UNL     1       7.811  36.390  78.250  1.00  0.00    -0.387 OA
ATOM     13  H1  UNL     1       8.060  37.307  78.229  1.00  0.00     0.210 HD
ENDBRANCH   7  12
BRANCH   9  14
HETATM   14  O5  UNL     1       6.393  36.884  75.193  1.00  0.00    -0.387 OA
ATOM     15  H5  UNL     1       6.862  37.110  74.399  1.00  0.00     0.210 HD
ENDBRANCH   9  14
ENDBRANCH   3   4
ENDBRANCH   2   3
ENDBRANCH   1   2
BRANCH   1  16
HETATM   16  C9  UNL     1      11.477  31.413  74.338  1.00  0.00     0.032 C 
BRANCH  16  17
HETATM   17  C10 UNL     1      12.101  30.139  74.718  1.00  0.00     0.125 C 
HETATM   18  O2  UNL     1      11.363  29.022  74.474  1.00  0.00    -0.385 OA
HETATM   19  C11 UNL     1      11.953  27.844  74.832  1.00  0.00     0.168 C 
HETATM   20  C12 UNL     1      13.284  27.972  75.482  1.00  0.00     0.032 C 
HETATM   21  C13 UNL     1      14.206  28.937  74.784  1.00  0.00     0.001 C 
HETATM   22  C14 UNL     1      13.447  29.931  73.993  1.00  0.00     0.019 C 
HETATM   23  C20 UNL     1      15.262  28.193  74.040  1.00  0.00     0.028 C 
HETATM   24  C15 UNL     1      13.192  29.587  72.578  1.00  0.00     0.008 C 
HETATM   25  C16 UNL     1      14.263  28.824  71.892  1.00  0.00     0.015 C 
HETATM   26  C17 UNL     1      14.837  27.698  72.686  1.00  0.00     0.092 C 
HETATM   27  C18 UNL     1      16.188  27.390  72.087  1.00  0.00     0.263 C 
HETATM   28  O3  UNL     1      16.504  26.409  71.366  1.00  0.00    -0.265 OA
HETATM   29  O4  UNL     1      17.002  28.432  72.513  1.00  0.00    -0.321 OA
HETATM   30  C19 UNL     1      16.467  29.031  73.689  1.00  0.00     0.184 C 
ENDBRANCH  16  17
ENDBRANCH   1  16
TORSDOF 7
ENDMDL
MODEL 4
REMARK VINA RESULT: -7.897663017      0.891      1.817
REMARK  7 active torsions:
REMARK  status: ('A' for Active; 'I' for Inactive)
REMARK    1  A    between atoms: C2_2  and  O1_3 
REMARK    2  A    between atoms: C5_7  and  C6_8 
REMARK    3  A    between atoms: C6_8  and  C7_9 
REMARK    4  A    between atoms: C7_9  and  C8_10 
REMARK    5  A    between atoms: C8_10  and  C9_11 
REMARK    6  A    between atoms: C9_11  and  C10_12 
REMARK    7  A    between atoms: C22_27  and  O5_29 
ROOT
HETATM    1  C8  UNL     1      10.310  31.093  75.650  1.00  0.00     0.002 C 
ENDROOT
BRANCH   1   2
HETATM    2  C7  UNL     1       9.375  32.172  76.018  1.00  0.00     0.000 C 
BRANCH   2   3
HETATM    3  C6  UNL     1       9.665  32.962  77.250  1.00  0.00     0.005 C 
BRANCH   3   4
HETATM    4  C5  UNL     1       9.907  34.426  77.136  1.00  0.00    -0.012 C 
HETATM    5  C4  UNL     1       9.988  35.027  75.795  1.00  0.00     0.008 C 
HETATM    6  C3  UNL     1       9.308  36.398  75.817  1.00  0.00     0.041 C 
HETATM    7  C2  UNL     1       7.842  36.145  76.107  1.00  0.00     0.085 C 
HETATM    8  C1  UNL     1       7.086  37.432  75.929  1.00  0.00     0.049 C 
HETATM    9  C22 UNL     1       7.669  35.552  77.496  1.00  0.00     0.085 C 
HETATM   10  C21 UNL     1       9.006  35.195  78.101  1.00  0.00     0.045 C 
HETATM   11  C23 UNL     1       6.683  34.411  77.526  1.00  0.00     0.049 C 
BRANCH   7  12
HETATM   12  O1  UNL     1       7.394  35.201  75.185  1.00  0.00    -0.387 OA
ATOM     13  H1  UNL     1       6.468  35.033  75.319  1.00  0.00     0.210 HD
ENDBRANCH   7  12
BRANCH   9  14
HETATM   14  O5  UNL     1       7.142  36.576  78.291  1.00  0.00    -0.387 OA
ATOM     15  H5  UNL     1       6.241  36.333  78.469  1.00  0.00     0.210 HD
ENDBRANCH   9  14
ENDBRANCH   3   4
ENDBRANCH   2   3
ENDBRANCH   1   2
BRANCH   1  16
HETATM   16  C9  UNL     1      11.279  31.394  74.548  1.00  0.00     0.032 C 
BRANCH  16  17
HETATM   17  C10 UNL     1      11.666  30.224  73.750  1.00  0.00     0.125 C 
HETATM   18  O2  UNL     1      11.771  30.430  72.410  1.00  0.00    -0.385 OA
HETATM   19  C11 UNL     1      12.131  29.334  71.678  1.00  0.00     0.168 C 
HETATM   20  C12 UNL     1      12.296  28.078  72.455  1.00  0.00     0.032 C 
HETATM   21  C13 UNL     1      13.081  28.254  73.729  1.00  0.00     0.001 C 
HETATM   22  C14 UNL     1      13.026  29.654  74.206  1.00  0.00     0.019 C 
HETATM   23  C20 UNL     1      14.448  27.680  73.574  1.00  0.00     0.028 C 
HETATM   24  C15 UNL     1      14.109  30.548  73.745  1.00  0.00     0.008 C 
HETATM   25  C16 UNL     1      15.443  29.920  73.582  1.00  0.00     0.015 C 
HETATM   26  C17 UNL     1      15.433  28.592  72.900  1.00  0.00     0.092 C 
HETATM   27  C18 UNL     1      16.722  27.903  73.273  1.00  0.00     0.263 C 
HETATM   28  O3  UNL     1      17.739  27.728  72.553  1.00  0.00    -0.265 OA
HETATM   29  O4  UNL     1      16.534  27.505  74.591  1.00  0.00    -0.321 OA
HETATM   30  C19 UNL     1      15.144  27.401  74.883  1.00  0.00     0.184 C 
ENDBRANCH  16  17
ENDBRANCH   1  16
TORSDOF 7
ENDMDL
MODEL 5
REMARK VINA RESULT: -7.849501232      1.932      9.831
REMARK  7 active torsions:
REMARK  status: ('A' for Active; 'I' for Inactive)
REMARK    1  A    between atoms: C2_2  and  O1_3 
REMARK    2  A    between atoms: C5_7  and  C6_8 
REMARK    3  A    between atoms: C6_8  and  C7_9 
REMARK    4  A    between atoms: C7_9  and  C8_10 
REMARK    5  A    between atoms: C8_10  and  C9_11 
REMARK    6  A    between atoms: C9_11  and  C10_12 
REMARK    7  A    between atoms: C22_27  and  O5_29 
ROOT
HETATM    1  C8  UNL     1       9.166  30.042  73.708  1.00  0.00     0.002 C 
ENDROOT
BRANCH   1   2
HETATM    2  C7  UNL     1      10.428  29.323  73.454  1.00  0.00     0.000 C 
BRANCH   2   3
HETATM    3  C6  UNL     1      11.178  29.641  72.203  1.00  0.00     0.005 C 
BRANCH   3   4
HETATM    4  C5  UNL     1      12.540  30.232  72.302  1.00  0.00    -0.012 C 
HETATM    5  C4  UNL     1      12.973  30.801  73.587  1.00  0.00     0.008 C 
HETATM    6  C3  UNL     1      14.450  30.470  73.811  1.00  0.00     0.041 C 
HETATM    7  C2  UNL     1      14.539  28.962  73.935  1.00  0.00     0.085 C 
HETATM    8  C1  UNL     1      15.930  28.594  74.368  1.00  0.00     0.049 C 
HETATM    9  C22 UNL     1      14.137  28.296  72.629  1.00  0.00     0.085 C 
HETATM   10  C21 UNL     1      13.572  29.307  71.659  1.00  0.00     0.045 C 
HETATM   11  C23 UNL     1      13.235  27.104  72.833  1.00  0.00     0.049 C 
BRANCH   7  12
HETATM   12  O1  UNL     1      13.621  28.571  74.909  1.00  0.00    -0.387 OA
ATOM     13  H1  UNL     1      12.749  28.532  74.533  1.00  0.00     0.210 HD
ENDBRANCH   7  12
BRANCH   9  14
HETATM   14  O5  UNL     1      15.323  27.824  72.055  1.00  0.00    -0.387 OA
ATOM     15  H5  UNL     1      15.478  28.365  71.290  1.00  0.00     0.210 HD
ENDBRANCH   9  14
ENDBRANCH   3   4
ENDBRANCH   2   3
ENDBRANCH   1   2
BRANCH   1  16
HETATM   16  C9  UNL     1       9.226  31.172  74.690  1.00  0.00     0.032 C 
BRANCH  16  17
HETATM   17  C10 UNL     1       7.917  31.592  75.204  1.00  0.00     0.125 C 
HETATM   18  O2  UNL     1       7.511  30.991  76.355  1.00  0.00    -0.385 OA
HETATM   19  C11 UNL     1       6.292  31.389  76.824  1.00  0.00     0.168 C 
HETATM   20  C12 UNL     1       5.576  32.375  75.972  1.00  0.00     0.032 C 
HETATM   21  C13 UNL     1       6.451  33.503  75.488  1.00  0.00     0.001 C 
HETATM   22  C14 UNL     1       7.877  33.111  75.475  1.00  0.00     0.019 C 
HETATM   23  C20 UNL     1       6.133  34.755  76.233  1.00  0.00     0.028 C 
HETATM   24  C15 UNL     1       8.651  33.408  76.699  1.00  0.00     0.008 C 
HETATM   25  C16 UNL     1       8.278  34.652  77.416  1.00  0.00     0.015 C 
HETATM   26  C17 UNL     1       6.809  34.871  77.570  1.00  0.00     0.092 C 
HETATM   27  C18 UNL     1       6.616  36.344  77.831  1.00  0.00     0.263 C 
HETATM   28  O3  UNL     1       6.327  36.902  78.922  1.00  0.00    -0.265 OA
HETATM   29  O4  UNL     1       6.827  36.946  76.597  1.00  0.00    -0.321 OA
HETATM   30  C19 UNL     1       6.610  36.011  75.545  1.00  0.00     0.184 C 
ENDBRANCH  16  17
ENDBRANCH   1  16
TORSDOF 7
ENDMDL
