MODEL 1
REMARK VINA RESULT: -9.956121351      0.000      0.000
REMARK  14 active torsions:
REMARK  status: ('A' for Active; 'I' for Inactive)
REMARK       I    between atoms: C2_2  and  N1_4 
REMARK    1  A    between atoms: N1_4  and  C3_6 
REMARK    2  A    between atoms: C4_8  and  C5_9 
REMARK    3  A    between atoms: C5_9  and  C6_10 
REMARK    4  A    between atoms: C5_9  and  N5_36 
REMARK    5  A    between atoms: C6_10  and  C7_11 
REMARK    6  A    between atoms: C6_10  and  C16_30 
REMARK    7  A    between atoms: C8_14  and  C9_15 
REMARK    8  A    between atoms: C12_18  and  O3_19 
REMARK    9  A    between atoms: O3_19  and  S1_20 
REMARK   10  A    between atoms: C16_30  and  O7_31 
REMARK   11  A    between atoms: C16_30  and  C17_33 
REMARK   12  A    between atoms: C17_33  and  O8_34 
REMARK   13  A    between atoms: C18_39  and  C19_40 
REMARK       I    between atoms: C19_40  and  N7_42 
REMARK   14  A    between atoms: C21_46  and  N9_47 
ROOT
HETATM    1  C19 UNL     1      19.491  -3.822  -7.317  1.00  0.00     0.286 C 
HETATM    2  O9  UNL     1      18.984  -3.424  -8.439  1.00  0.00    -0.265 OA
HETATM    3  N7  UNL     1      20.576  -3.089  -6.859  1.00  0.00    -0.258 N 
ATOM      4  H7  UNL     1      21.045  -3.327  -5.985  1.00  0.00     0.181 HD
HETATM    5  C20 UNL     1      21.018  -1.977  -7.666  1.00  0.00     0.184 C 
HETATM    6  N8  UNL     1      21.351  -1.089  -8.319  1.00  0.00    -0.172 NA
ENDROOT
BRANCH   1   7
HETATM    7  C18 UNL     1      18.895  -4.971  -6.657  1.00  0.00     0.163 A 
HETATM    8  N6  UNL     1      18.728  -5.059  -5.298  1.00  0.00    -0.275 N 
HETATM    9  N5  UNL     1      18.172  -6.194  -4.968  1.00  0.00    -0.218 N 
ATOM     10  H6  UNL     1      19.000  -4.334  -4.634  1.00  0.00     0.189 HD
HETATM   11  N10 UNL     1      17.966  -6.865  -6.075  1.00  0.00    -0.266 N 
HETATM   12  C21 UNL     1      18.406  -6.135  -7.168  1.00  0.00     0.149 A 
ATOM     13  H10 UNL     1      17.543  -7.791  -6.125  1.00  0.00     0.190 HD
BRANCH   9  14
HETATM   14  C5  UNL     1      17.857  -6.675  -3.640  1.00  0.00     0.216 C 
BRANCH  14  15
HETATM   15  C4  UNL     1      18.435  -8.083  -3.532  1.00  0.00     0.156 A 
HETATM   16  O2  UNL     1      17.708  -9.099  -3.292  1.00  0.00    -0.277 OA
HETATM   17  C3  UNL     1      18.164 -10.378  -3.185  1.00  0.00     0.178 A 
HETATM   18  C23 UNL     1      19.491 -10.581  -3.344  1.00  0.00     0.163 A 
HETATM   19  C22 UNL     1      20.315  -9.472  -3.612  1.00  0.00     0.272 A 
HETATM   20  C24 UNL     1      20.155 -11.830  -3.176  1.00  0.00     0.109 C 
HETATM   21  N11 UNL     1      19.750  -8.271  -3.694  1.00  0.00    -0.304 N 
HETATM   22  O10 UNL     1      21.564  -9.649  -3.766  1.00  0.00    -0.266 OA
ATOM     23  H11 UNL     1      20.341  -7.462  -3.888  1.00  0.00     0.171 HD
HETATM   24  N12 UNL     1      20.718 -12.806  -3.018  1.00  0.00    -0.191 NA
BRANCH  17  25
HETATM   25  N1  UNL     1      17.215 -11.345  -2.918  1.00  0.00    -0.306 N 
HETATM   26  C2  UNL     1      16.751 -12.144  -1.918  1.00  0.00     0.219 C 
HETATM   27  C1  UNL     1      15.545 -13.101  -2.200  1.00  0.00     0.117 C 
HETATM   28  O1  UNL     1      17.112 -12.278  -0.753  1.00  0.00    -0.274 OA
ATOM     29  H1  UNL     1      16.673 -11.521  -3.764  1.00  0.00     0.171 HD
ENDBRANCH  17  25
ENDBRANCH  14  15
BRANCH  14  30
HETATM   30  C6  UNL     1      16.463  -6.700  -3.200  1.00  0.00     0.120 C 
BRANCH  30  31
HETATM   31  C7  UNL     1      16.130  -5.520  -2.314  1.00  0.00     0.108 A 
HETATM   32  N2  UNL     1      16.423  -4.228  -2.531  1.00  0.00    -0.329 N 
HETATM   33  C8  UNL     1      15.961  -3.500  -1.529  1.00  0.00     0.131 A 
ATOM     34  H2  UNL     1      16.923  -3.864  -3.343  1.00  0.00     0.168 HD
HETATM   35  N3  UNL     1      15.371  -4.344  -0.672  1.00  0.00    -0.282 N 
HETATM   36  N4  UNL     1      15.471  -5.601  -1.150  1.00  0.00    -0.282 N 
ATOM     37  H3  UNL     1      14.918  -4.078   0.202  1.00  0.00     0.189 HD
HETATM   38  C15 UNL     1      14.919  -6.712  -0.431  1.00  0.00     0.179 C 
BRANCH  33  39
HETATM   39  C9  UNL     1      16.045  -2.036  -1.331  1.00  0.00     0.009 A 
HETATM   40  C10 UNL     1      17.057  -1.481  -0.580  1.00  0.00     0.018 A 
HETATM   41  C11 UNL     1      17.122  -0.100  -0.403  1.00  0.00     0.039 A 
HETATM   42  C12 UNL     1      16.183   0.736  -0.970  1.00  0.00     0.092 A 
HETATM   43  C13 UNL     1      15.167   0.186  -1.724  1.00  0.00     0.039 A 
HETATM   44  C14 UNL     1      15.122  -1.178  -1.886  1.00  0.00     0.018 A 
BRANCH  42  45
HETATM   45  O3  UNL     1      16.222   2.104  -0.812  1.00  0.00    -0.214 OA
BRANCH  45  46
HETATM   46  S1  UNL     1      17.579   3.083  -1.010  1.00  0.00     0.256 S 
HETATM   47  O4  UNL     1      18.457   3.028   0.230  1.00  0.00    -0.572 OA
HETATM   48  O5  UNL     1      18.397   2.508  -2.141  1.00  0.00    -0.572 OA
HETATM   49  O6  UNL     1      17.200   4.680  -1.328  1.00  0.00    -0.572 OA
ENDBRANCH  45  46
ENDBRANCH  42  45
ENDBRANCH  33  39
ENDBRANCH  30  31
BRANCH  30  50
HETATM   50  C16 UNL     1      15.351  -6.928  -4.142  1.00  0.00     0.155 C 
BRANCH  50  51
HETATM   51  O7  UNL     1      14.557  -5.711  -4.092  1.00  0.00    -0.393 OA
ATOM     52  H7  UNL     1      13.703  -5.959  -4.425  1.00  0.00     0.210 HD
ENDBRANCH  50  51
BRANCH  50  53
HETATM   53  C17 UNL     1      14.312  -7.952  -3.680  1.00  0.00     0.196 C 
BRANCH  53  54
HETATM   54  O8  UNL     1      14.880  -9.143  -3.274  1.00  0.00    -0.398 OA
ATOM     55  H8  UNL     1      15.491  -9.031  -2.556  1.00  0.00     0.209 HD
ENDBRANCH  53  54
ENDBRANCH  50  53
ENDBRANCH  30  50
ENDBRANCH  14  30
ENDBRANCH   9  14
BRANCH  12  56
HETATM   56  N9  UNL     1      18.328  -6.560  -8.363  1.00  0.00    -0.382 N 
ATOM     57  H92 UNL     1      18.825  -6.128  -9.142  1.00  0.00     0.157 HD
ATOM     58  H91 UNL     1      17.808  -7.337  -8.769  1.00  0.00     0.157 HD
ENDBRANCH  12  56
ENDBRANCH   1   7
TORSDOF 14
ENDMDL
MODEL 2
REMARK VINA RESULT: -9.948540096      2.914      4.964
REMARK  14 active torsions:
REMARK  status: ('A' for Active; 'I' for Inactive)
REMARK       I    between atoms: C2_2  and  N1_4 
REMARK    1  A    between atoms: N1_4  and  C3_6 
REMARK    2  A    between atoms: C4_8  and  C5_9 
REMARK    3  A    between atoms: C5_9  and  C6_10 
REMARK    4  A    between atoms: C5_9  and  N5_36 
REMARK    5  A    between atoms: C6_10  and  C7_11 
REMARK    6  A    between atoms: C6_10  and  C16_30 
REMARK    7  A    between atoms: C8_14  and  C9_15 
REMARK    8  A    between atoms: C12_18  and  O3_19 
REMARK    9  A    between atoms: O3_19  and  S1_20 
REMARK   10  A    between atoms: C16_30  and  O7_31 
REMARK   11  A    between atoms: C16_30  and  C17_33 
REMARK   12  A    between atoms: C17_33  and  O8_34 
REMARK   13  A    between atoms: C18_39  and  C19_40 
REMARK       I    between atoms: C19_40  and  N7_42 
REMARK   14  A    between atoms: C21_46  and  N9_47 
ROOT
HETATM    1  C19 UNL     1      12.465  -7.051  -5.850  1.00  0.00     0.286 C 
HETATM    2  O9  UNL     1      13.205  -7.285  -6.886  1.00  0.00    -0.265 OA
HETATM    3  N7  UNL     1      11.097  -7.093  -6.073  1.00  0.00    -0.258 N 
ATOM      4  H7  UNL     1      10.432  -6.921  -5.318  1.00  0.00     0.181 HD
HETATM    5  C20 UNL     1      10.648  -7.391  -7.412  1.00  0.00     0.184 C 
HETATM    6  N8  UNL     1      10.308  -7.636  -8.484  1.00  0.00    -0.172 NA
ENDROOT
BRANCH   1   7
HETATM    7  C18 UNL     1      13.117  -6.771  -4.583  1.00  0.00     0.163 A 
HETATM    8  N6  UNL     1      14.292  -6.071  -4.476  1.00  0.00    -0.275 N 
HETATM    9  N5  UNL     1      14.661  -5.965  -3.227  1.00  0.00    -0.218 N 
ATOM     10  H6  UNL     1      14.809  -5.685  -5.266  1.00  0.00     0.189 HD
HETATM   11  N10 UNL     1      13.759  -6.578  -2.500  1.00  0.00    -0.266 N 
HETATM   12  C21 UNL     1      12.765  -7.104  -3.310  1.00  0.00     0.149 A 
ATOM     13  H10 UNL     1      13.786  -6.657  -1.484  1.00  0.00     0.190 HD
BRANCH   9  14
HETATM   14  C5  UNL     1      15.851  -5.329  -2.704  1.00  0.00     0.216 C 
BRANCH  14  15
HETATM   15  C4  UNL     1      17.020  -6.261  -3.007  1.00  0.00     0.156 A 
HETATM   16  O2  UNL     1      16.996  -7.498  -2.710  1.00  0.00    -0.277 OA
HETATM   17  C3  UNL     1      18.005  -8.379  -2.955  1.00  0.00     0.178 A 
HETATM   18  C23 UNL     1      19.117  -7.900  -3.557  1.00  0.00     0.163 A 
HETATM   19  C22 UNL     1      19.166  -6.535  -3.896  1.00  0.00     0.272 A 
HETATM   20  C24 UNL     1      20.303  -8.651  -3.806  1.00  0.00     0.109 C 
HETATM   21  N11 UNL     1      18.114  -5.775  -3.605  1.00  0.00    -0.304 N 
HETATM   22  O10 UNL     1      20.204  -6.072  -4.464  1.00  0.00    -0.266 OA
ATOM     23  H11 UNL     1      18.141  -4.784  -3.848  1.00  0.00     0.171 HD
HETATM   24  N12 UNL     1      21.273  -9.214  -3.990  1.00  0.00    -0.191 NA
BRANCH  17  25
HETATM   25  N1  UNL     1      17.789  -9.683  -2.555  1.00  0.00    -0.306 N 
HETATM   26  C2  UNL     1      16.830 -10.649  -2.520  1.00  0.00     0.219 C 
HETATM   27  C1  UNL     1      17.180 -12.055  -1.928  1.00  0.00     0.117 C 
HETATM   28  O1  UNL     1      15.658 -10.642  -2.884  1.00  0.00    -0.274 OA
ATOM     29  H1  UNL     1      18.647 -10.050  -2.143  1.00  0.00     0.171 HD
ENDBRANCH  17  25
ENDBRANCH  14  15
BRANCH  14  30
HETATM   30  C6  UNL     1      15.899  -4.953  -1.292  1.00  0.00     0.120 C 
BRANCH  30  31
HETATM   31  C7  UNL     1      16.847  -3.800  -1.047  1.00  0.00     0.108 A 
HETATM   32  N2  UNL     1      16.596  -2.490  -1.202  1.00  0.00    -0.329 N 
HETATM   33  C8  UNL     1      17.677  -1.797  -0.884  1.00  0.00     0.131 A 
ATOM     34  H2  UNL     1      15.712  -2.091  -1.516  1.00  0.00     0.168 HD
HETATM   35  N3  UNL     1      18.617  -2.681  -0.524  1.00  0.00    -0.282 N 
HETATM   36  N4  UNL     1      18.111  -3.928  -0.621  1.00  0.00    -0.282 N 
ATOM     37  H3  UNL     1      19.563  -2.449  -0.223  1.00  0.00     0.189 HD
HETATM   38  C15 UNL     1      18.905  -5.076  -0.292  1.00  0.00     0.179 C 
BRANCH  33  39
HETATM   39  C9  UNL     1      17.876  -0.331  -0.900  1.00  0.00     0.009 A 
HETATM   40  C10 UNL     1      16.823   0.523  -1.144  1.00  0.00     0.018 A 
HETATM   41  C11 UNL     1      17.026   1.901  -1.156  1.00  0.00     0.039 A 
HETATM   42  C12 UNL     1      18.276   2.439  -0.927  1.00  0.00     0.092 A 
HETATM   43  C13 UNL     1      19.335   1.589  -0.683  1.00  0.00     0.039 A 
HETATM   44  C14 UNL     1      19.111   0.233  -0.675  1.00  0.00     0.018 A 
BRANCH  42  45
HETATM   45  O3  UNL     1      18.507   3.797  -0.934  1.00  0.00    -0.214 OA
BRANCH  45  46
HETATM   46  S1  UNL     1      19.570   4.613  -1.953  1.00  0.00     0.256 S 
HETATM   47  O4  UNL     1      19.356   4.182  -3.396  1.00  0.00    -0.572 OA
HETATM   48  O5  UNL     1      19.230   6.082  -1.889  1.00  0.00    -0.572 OA
HETATM   49  O6  UNL     1      21.177   4.377  -1.557  1.00  0.00    -0.572 OA
ENDBRANCH  45  46
ENDBRANCH  42  45
ENDBRANCH  33  39
ENDBRANCH  30  31
BRANCH  30  50
HETATM   50  C16 UNL     1      14.673  -4.750  -0.496  1.00  0.00     0.155 C 
BRANCH  50  51
HETATM   51  O7  UNL     1      13.826  -3.897  -1.317  1.00  0.00    -0.393 OA
ATOM     52  H7  UNL     1      13.429  -4.480  -1.952  1.00  0.00     0.210 HD
ENDBRANCH  50  51
BRANCH  50  53
HETATM   53  C17 UNL     1      14.842  -3.860   0.738  1.00  0.00     0.196 C 
BRANCH  53  54
HETATM   54  O8  UNL     1      15.090  -4.583   1.887  1.00  0.00    -0.398 OA
ATOM     55  H8  UNL     1      14.303  -4.970   2.252  1.00  0.00     0.209 HD
ENDBRANCH  53  54
ENDBRANCH  50  53
ENDBRANCH  30  50
ENDBRANCH  14  30
ENDBRANCH   9  14
BRANCH  12  56
HETATM   56  N9  UNL     1      11.772  -7.753  -2.856  1.00  0.00    -0.382 N 
ATOM     57  H92 UNL     1      10.808  -7.561  -3.130  1.00  0.00     0.157 HD
ATOM     58  H91 UNL     1      11.718  -8.522  -2.188  1.00  0.00     0.157 HD
ENDBRANCH  12  56
ENDBRANCH   1   7
TORSDOF 14
ENDMDL
MODEL 3
REMARK VINA RESULT: -9.901998719      2.989      5.966
REMARK  14 active torsions:
REMARK  status: ('A' for Active; 'I' for Inactive)
REMARK       I    between atoms: C2_2  and  N1_4 
REMARK    1  A    between atoms: N1_4  and  C3_6 
REMARK    2  A    between atoms: C4_8  and  C5_9 
REMARK    3  A    between atoms: C5_9  and  C6_10 
REMARK    4  A    between atoms: C5_9  and  N5_36 
REMARK    5  A    between atoms: C6_10  and  C7_11 
REMARK    6  A    between atoms: C6_10  and  C16_30 
REMARK    7  A    between atoms: C8_14  and  C9_15 
REMARK    8  A    between atoms: C12_18  and  O3_19 
REMARK    9  A    between atoms: O3_19  and  S1_20 
REMARK   10  A    between atoms: C16_30  and  O7_31 
REMARK   11  A    between atoms: C16_30  and  C17_33 
REMARK   12  A    between atoms: C17_33  and  O8_34 
REMARK   13  A    between atoms: C18_39  and  C19_40 
REMARK       I    between atoms: C19_40  and  N7_42 
REMARK   14  A    between atoms: C21_46  and  N9_47 
ROOT
HETATM    1  C19 UNL     1      11.768  -6.969  -5.525  1.00  0.00     0.286 C 
HETATM    2  O9  UNL     1      12.373  -7.223  -6.641  1.00  0.00    -0.265 OA
HETATM    3  N7  UNL     1      10.382  -6.959  -5.588  1.00  0.00    -0.258 N 
ATOM      4  H7  UNL     1       9.816  -6.767  -4.761  1.00  0.00     0.181 HD
HETATM    5  C20 UNL     1       9.770  -7.228  -6.867  1.00  0.00     0.184 C 
HETATM    6  N8  UNL     1       9.299  -7.451  -7.894  1.00  0.00    -0.172 NA
ENDROOT
BRANCH   1   7
HETATM    7  C18 UNL     1      12.572  -6.725  -4.341  1.00  0.00     0.163 A 
HETATM    8  N6  UNL     1      13.704  -5.949  -4.343  1.00  0.00    -0.275 N 
HETATM    9  N5  UNL     1      14.237  -5.897  -3.151  1.00  0.00    -0.218 N 
ATOM     10  H6  UNL     1      14.079  -5.477  -5.166  1.00  0.00     0.189 HD
HETATM   11  N10 UNL     1      13.487  -6.620  -2.356  1.00  0.00    -0.266 N 
HETATM   12  C21 UNL     1      12.424  -7.164  -3.060  1.00  0.00     0.149 A 
ATOM     13  H10 UNL     1      13.661  -6.762  -1.361  1.00  0.00     0.190 HD
BRANCH   9  14
HETATM   14  C5  UNL     1      15.446  -5.211  -2.749  1.00  0.00     0.216 C 
BRANCH  14  15
HETATM   15  C4  UNL     1      16.614  -5.986  -3.348  1.00  0.00     0.156 A 
HETATM   16  O2  UNL     1      17.459  -5.445  -4.130  1.00  0.00    -0.277 OA
HETATM   17  C3  UNL     1      18.522  -6.083  -4.694  1.00  0.00     0.178 A 
HETATM   18  C23 UNL     1      18.687  -7.392  -4.404  1.00  0.00     0.163 A 
HETATM   19  C22 UNL     1      17.766  -8.013  -3.539  1.00  0.00     0.272 A 
HETATM   20  C24 UNL     1      19.682  -8.239  -4.972  1.00  0.00     0.109 C 
HETATM   21  N11 UNL     1      16.769  -7.282  -3.049  1.00  0.00    -0.304 N 
HETATM   22  O10 UNL     1      17.912  -9.243  -3.254  1.00  0.00    -0.266 OA
ATOM     23  H11 UNL     1      16.097  -7.725  -2.422  1.00  0.00     0.171 HD
HETATM   24  N12 UNL     1      20.445  -8.947  -5.432  1.00  0.00    -0.191 NA
BRANCH  17  25
HETATM   25  N1  UNL     1      19.325  -5.320  -5.519  1.00  0.00    -0.306 N 
HETATM   26  C2  UNL     1      19.282  -4.274  -6.390  1.00  0.00     0.219 C 
HETATM   27  C1  UNL     1      20.606  -3.786  -7.067  1.00  0.00     0.117 C 
HETATM   28  O1  UNL     1      18.346  -3.584  -6.782  1.00  0.00    -0.274 OA
ATOM     29  H1  UNL     1      20.285  -5.659  -5.452  1.00  0.00     0.171 HD
ENDBRANCH  17  25
ENDBRANCH  14  15
BRANCH  14  30
HETATM   30  C6  UNL     1      15.703  -4.990  -1.327  1.00  0.00     0.120 C 
BRANCH  30  31
HETATM   31  C7  UNL     1      16.698  -3.874  -1.100  1.00  0.00     0.108 A 
HETATM   32  N2  UNL     1      16.476  -2.552  -1.185  1.00  0.00    -0.329 N 
HETATM   33  C8  UNL     1      17.595  -1.902  -0.913  1.00  0.00     0.131 A 
ATOM     34  H2  UNL     1      15.584  -2.117  -1.423  1.00  0.00     0.168 HD
HETATM   35  N3  UNL     1      18.530  -2.825  -0.653  1.00  0.00    -0.282 N 
HETATM   36  N4  UNL     1      17.983  -4.052  -0.766  1.00  0.00    -0.282 N 
ATOM     37  H3  UNL     1      19.501  -2.630  -0.408  1.00  0.00     0.189 HD
HETATM   38  C15 UNL     1      18.764  -5.234  -0.538  1.00  0.00     0.179 C 
BRANCH  33  39
HETATM   39  C9  UNL     1      17.834  -0.442  -0.884  1.00  0.00     0.009 A 
HETATM   40  C10 UNL     1      16.796   0.449  -1.042  1.00  0.00     0.018 A 
HETATM   41  C11 UNL     1      17.038   1.820  -1.012  1.00  0.00     0.039 A 
HETATM   42  C12 UNL     1      18.312   2.315  -0.826  1.00  0.00     0.092 A 
HETATM   43  C13 UNL     1      19.357   1.428  -0.668  1.00  0.00     0.039 A 
HETATM   44  C14 UNL     1      19.095   0.080  -0.700  1.00  0.00     0.018 A 
BRANCH  42  45
HETATM   45  O3  UNL     1      18.581   3.666  -0.793  1.00  0.00    -0.214 OA
BRANCH  45  46
HETATM   46  S1  UNL     1      19.560   4.505  -1.877  1.00  0.00     0.256 S 
HETATM   47  O4  UNL     1      19.340   3.996  -3.293  1.00  0.00    -0.572 OA
HETATM   48  O5  UNL     1      19.121   5.949  -1.867  1.00  0.00    -0.572 OA
HETATM   49  O6  UNL     1      21.189   4.396  -1.516  1.00  0.00    -0.572 OA
ENDBRANCH  45  46
ENDBRANCH  42  45
ENDBRANCH  33  39
ENDBRANCH  30  31
BRANCH  30  50
HETATM   50  C16 UNL     1      14.608  -4.870  -0.345  1.00  0.00     0.155 C 
BRANCH  50  51
HETATM   51  O7  UNL     1      13.553  -4.149  -1.040  1.00  0.00    -0.393 OA
ATOM     52  H7  UNL     1      12.943  -3.886  -0.361  1.00  0.00     0.210 HD
ENDBRANCH  50  51
BRANCH  50  53
HETATM   53  C17 UNL     1      14.880  -3.906   0.813  1.00  0.00     0.196 C 
BRANCH  53  54
HETATM   54  O8  UNL     1      15.135  -4.559   2.001  1.00  0.00    -0.398 OA
ATOM     55  H8  UNL     1      14.400  -4.528   2.602  1.00  0.00     0.209 HD
ENDBRANCH  53  54
ENDBRANCH  50  53
ENDBRANCH  30  50
ENDBRANCH  14  30
ENDBRANCH   9  14
BRANCH  12  56
HETATM   56  N9  UNL     1      11.548  -7.912  -2.524  1.00  0.00    -0.382 N 
ATOM     57  H92 UNL     1      10.635  -8.089  -2.944  1.00  0.00     0.157 HD
ATOM     58  H91 UNL     1      11.555  -8.441  -1.652  1.00  0.00     0.157 HD
ENDBRANCH  12  56
ENDBRANCH   1   7
TORSDOF 14
ENDMDL
MODEL 4
REMARK VINA RESULT: -9.794287364      2.860      5.733
REMARK  14 active torsions:
REMARK  status: ('A' for Active; 'I' for Inactive)
REMARK       I    between atoms: C2_2  and  N1_4 
REMARK    1  A    between atoms: N1_4  and  C3_6 
REMARK    2  A    between atoms: C4_8  and  C5_9 
REMARK    3  A    between atoms: C5_9  and  C6_10 
REMARK    4  A    between atoms: C5_9  and  N5_36 
REMARK    5  A    between atoms: C6_10  and  C7_11 
REMARK    6  A    between atoms: C6_10  and  C16_30 
REMARK    7  A    between atoms: C8_14  and  C9_15 
REMARK    8  A    between atoms: C12_18  and  O3_19 
REMARK    9  A    between atoms: O3_19  and  S1_20 
REMARK   10  A    between atoms: C16_30  and  O7_31 
REMARK   11  A    between atoms: C16_30  and  C17_33 
REMARK   12  A    between atoms: C17_33  and  O8_34 
REMARK   13  A    between atoms: C18_39  and  C19_40 
REMARK       I    between atoms: C19_40  and  N7_42 
REMARK   14  A    between atoms: C21_46  and  N9_47 
ROOT
HETATM    1  C19 UNL     1      11.890  -7.114  -5.678  1.00  0.00     0.286 C 
HETATM    2  O9  UNL     1      10.691  -7.587  -5.566  1.00  0.00    -0.265 OA
HETATM    3  N7  UNL     1      12.345  -6.943  -6.977  1.00  0.00    -0.258 N 
ATOM      4  H7  UNL     1      13.278  -6.577  -7.167  1.00  0.00     0.181 HD
HETATM    5  C20 UNL     1      11.449  -7.303  -8.050  1.00  0.00     0.184 C 
HETATM    6  N8  UNL     1      10.719  -7.589  -8.893  1.00  0.00    -0.172 NA
ENDROOT
BRANCH   1   7
HETATM    7  C18 UNL     1      12.632  -6.813  -4.465  1.00  0.00     0.163 A 
HETATM    8  N6  UNL     1      13.768  -6.045  -4.446  1.00  0.00    -0.275 N 
HETATM    9  N5  UNL     1      14.236  -5.934  -3.231  1.00  0.00    -0.218 N 
ATOM     10  H6  UNL     1      14.191  -5.618  -5.270  1.00  0.00     0.189 HD
HETATM   11  N10 UNL     1      13.438  -6.610  -2.442  1.00  0.00    -0.266 N 
HETATM   12  C21 UNL     1      12.411  -7.184  -3.173  1.00  0.00     0.149 A 
ATOM     13  H10 UNL     1      13.557  -6.702  -1.433  1.00  0.00     0.190 HD
BRANCH   9  14
HETATM   14  C5  UNL     1      15.427  -5.234  -2.799  1.00  0.00     0.216 C 
BRANCH  14  15
HETATM   15  C4  UNL     1      16.619  -6.002  -3.361  1.00  0.00     0.156 A 
HETATM   16  O2  UNL     1      17.468  -5.464  -4.141  1.00  0.00    -0.277 OA
HETATM   17  C3  UNL     1      18.550  -6.096  -4.674  1.00  0.00     0.178 A 
HETATM   18  C23 UNL     1      18.733  -7.395  -4.351  1.00  0.00     0.163 A 
HETATM   19  C22 UNL     1      17.809  -8.013  -3.488  1.00  0.00     0.272 A 
HETATM   20  C24 UNL     1      19.752  -8.237  -4.883  1.00  0.00     0.109 C 
HETATM   21  N11 UNL     1      16.791  -7.288  -3.031  1.00  0.00    -0.304 N 
HETATM   22  O10 UNL     1      17.970  -9.233  -3.173  1.00  0.00    -0.266 OA
ATOM     23  H11 UNL     1      16.116  -7.729  -2.406  1.00  0.00     0.171 HD
HETATM   24  N12 UNL     1      20.534  -8.942  -5.314  1.00  0.00    -0.191 NA
BRANCH  17  25
HETATM   25  N1  UNL     1      19.354  -5.338  -5.502  1.00  0.00    -0.306 N 
HETATM   26  C2  UNL     1      19.315  -4.286  -6.366  1.00  0.00     0.219 C 
HETATM   27  C1  UNL     1      20.638  -3.809  -7.053  1.00  0.00     0.117 C 
HETATM   28  O1  UNL     1      18.384  -3.582  -6.744  1.00  0.00    -0.274 OA
ATOM     29  H1  UNL     1      20.311  -5.688  -5.447  1.00  0.00     0.171 HD
ENDBRANCH  17  25
ENDBRANCH  14  15
BRANCH  14  30
HETATM   30  C6  UNL     1      15.643  -5.003  -1.372  1.00  0.00     0.120 C 
BRANCH  30  31
HETATM   31  C7  UNL     1      16.645  -3.898  -1.124  1.00  0.00     0.108 A 
HETATM   32  N2  UNL     1      16.440  -2.574  -1.220  1.00  0.00    -0.329 N 
HETATM   33  C8  UNL     1      17.559  -1.935  -0.922  1.00  0.00     0.131 A 
ATOM     34  H2  UNL     1      15.559  -2.130  -1.481  1.00  0.00     0.168 HD
HETATM   35  N3  UNL     1      18.477  -2.867  -0.635  1.00  0.00    -0.282 N 
HETATM   36  N4  UNL     1      17.919  -4.089  -0.758  1.00  0.00    -0.282 N 
ATOM     37  H3  UNL     1      19.443  -2.682  -0.366  1.00  0.00     0.189 HD
HETATM   38  C15 UNL     1      18.680  -5.279  -0.506  1.00  0.00     0.179 C 
BRANCH  33  39
HETATM   39  C9  UNL     1      17.814  -0.478  -0.892  1.00  0.00     0.009 A 
HETATM   40  C10 UNL     1      19.037   0.018  -0.500  1.00  0.00     0.018 A 
HETATM   41  C11 UNL     1      19.261   1.393  -0.477  1.00  0.00     0.039 A 
HETATM   42  C12 UNL     1      18.272   2.282  -0.842  1.00  0.00     0.092 A 
HETATM   43  C13 UNL     1      17.044   1.792  -1.235  1.00  0.00     0.039 A 
HETATM   44  C14 UNL     1      16.845   0.432  -1.251  1.00  0.00     0.018 A 
BRANCH  42  45
HETATM   45  O3  UNL     1      18.465   3.647  -0.828  1.00  0.00    -0.214 OA
BRANCH  45  46
HETATM   46  S1  UNL     1      19.484   4.510  -1.854  1.00  0.00     0.256 S 
HETATM   47  O4  UNL     1      20.937   4.293  -1.462  1.00  0.00    -0.572 OA
HETATM   48  O5  UNL     1      19.325   3.942  -3.243  1.00  0.00    -0.572 OA
HETATM   49  O6  UNL     1      19.172   6.153  -1.865  1.00  0.00    -0.572 OA
ENDBRANCH  45  46
ENDBRANCH  42  45
ENDBRANCH  33  39
ENDBRANCH  30  31
BRANCH  30  50
HETATM   50  C16 UNL     1      14.520  -4.861  -0.426  1.00  0.00     0.155 C 
BRANCH  50  51
HETATM   51  O7  UNL     1      13.501  -4.122  -1.156  1.00  0.00    -0.393 OA
ATOM     52  H7  UNL     1      13.546  -3.237  -0.814  1.00  0.00     0.210 HD
ENDBRANCH  50  51
BRANCH  50  53
HETATM   53  C17 UNL     1      14.773  -3.900   0.738  1.00  0.00     0.196 C 
BRANCH  53  54
HETATM   54  O8  UNL     1      15.171  -4.549   1.889  1.00  0.00    -0.398 OA
ATOM     55  H8  UNL     1      16.062  -4.873   1.837  1.00  0.00     0.209 HD
ENDBRANCH  53  54
ENDBRANCH  50  53
ENDBRANCH  30  50
ENDBRANCH  14  30
ENDBRANCH   9  14
BRANCH  12  56
HETATM   56  N9  UNL     1      11.500  -7.898  -2.649  1.00  0.00    -0.382 N 
ATOM     57  H92 UNL     1      11.689  -8.780  -2.172  1.00  0.00     0.157 HD
ATOM     58  H91 UNL     1      10.490  -7.769  -2.595  1.00  0.00     0.157 HD
ENDBRANCH  12  56
ENDBRANCH   1   7
TORSDOF 14
ENDMDL
MODEL 5
REMARK VINA RESULT: -9.776105275      1.466      2.163
REMARK  14 active torsions:
REMARK  status: ('A' for Active; 'I' for Inactive)
REMARK       I    between atoms: C2_2  and  N1_4 
REMARK    1  A    between atoms: N1_4  and  C3_6 
REMARK    2  A    between atoms: C4_8  and  C5_9 
REMARK    3  A    between atoms: C5_9  and  C6_10 
REMARK    4  A    between atoms: C5_9  and  N5_36 
REMARK    5  A    between atoms: C6_10  and  C7_11 
REMARK    6  A    between atoms: C6_10  and  C16_30 
REMARK    7  A    between atoms: C8_14  and  C9_15 
REMARK    8  A    between atoms: C12_18  and  O3_19 
REMARK    9  A    between atoms: O3_19  and  S1_20 
REMARK   10  A    between atoms: C16_30  and  O7_31 
REMARK   11  A    between atoms: C16_30  and  C17_33 
REMARK   12  A    between atoms: C17_33  and  O8_34 
REMARK   13  A    between atoms: C18_39  and  C19_40 
REMARK       I    between atoms: C19_40  and  N7_42 
REMARK   14  A    between atoms: C21_46  and  N9_47 
ROOT
HETATM    1  C19 UNL     1      19.448  -3.549  -7.460  1.00  0.00     0.286 C 
HETATM    2  O9  UNL     1      19.051  -3.165  -8.631  1.00  0.00    -0.265 OA
HETATM    3  N7  UNL     1      20.541  -2.865  -6.948  1.00  0.00    -0.258 N 
ATOM      4  H7  UNL     1      20.928  -3.096  -6.032  1.00  0.00     0.181 HD
HETATM    5  C20 UNL     1      21.109  -1.814  -7.757  1.00  0.00     0.184 C 
HETATM    6  N8  UNL     1      21.545  -0.975  -8.413  1.00  0.00    -0.172 NA
ENDROOT
BRANCH   1   7
HETATM    7  C18 UNL     1      18.734  -4.633  -6.808  1.00  0.00     0.163 A 
HETATM    8  N6  UNL     1      18.799  -4.876  -5.459  1.00  0.00    -0.275 N 
HETATM    9  N5  UNL     1      18.067  -5.908  -5.135  1.00  0.00    -0.218 N 
ATOM     10  H6  UNL     1      19.345  -4.324  -4.798  1.00  0.00     0.189 HD
HETATM   11  N10 UNL     1      17.517  -6.359  -6.236  1.00  0.00    -0.266 N 
HETATM   12  C21 UNL     1      17.907  -5.587  -7.319  1.00  0.00     0.149 A 
ATOM     13  H10 UNL     1      16.891  -7.162  -6.289  1.00  0.00     0.190 HD
BRANCH   9  14
HETATM   14  C5  UNL     1      17.895  -6.498  -3.825  1.00  0.00     0.216 C 
BRANCH  14  15
HETATM   15  C4  UNL     1      18.525  -7.887  -3.879  1.00  0.00     0.156 A 
HETATM   16  O2  UNL     1      18.805  -8.462  -4.979  1.00  0.00    -0.277 OA
HETATM   17  C3  UNL     1      19.368  -9.697  -5.092  1.00  0.00     0.178 A 
HETATM   18  C23 UNL     1      19.645 -10.362  -3.949  1.00  0.00     0.163 A 
HETATM   19  C22 UNL     1      19.346  -9.745  -2.720  1.00  0.00     0.272 A 
HETATM   20  C24 UNL     1      20.146 -11.694  -3.876  1.00  0.00     0.109 C 
HETATM   21  N11 UNL     1      18.798  -8.533  -2.740  1.00  0.00    -0.304 N 
HETATM   22  O10 UNL     1      19.605 -10.357  -1.637  1.00  0.00    -0.266 OA
ATOM     23  H11 UNL     1      18.578  -8.079  -1.853  1.00  0.00     0.171 HD
HETATM   24  N12 UNL     1      20.516 -12.766  -3.784  1.00  0.00    -0.191 NA
BRANCH  17  25
HETATM   25  N1  UNL     1      19.594 -10.150  -6.377  1.00  0.00    -0.306 N 
HETATM   26  C2  UNL     1      19.106 -10.065  -7.646  1.00  0.00     0.219 C 
HETATM   27  C1  UNL     1      19.834 -10.832  -8.800  1.00  0.00     0.117 C 
HETATM   28  O1  UNL     1      18.139  -9.464  -8.104  1.00  0.00    -0.274 OA
ATOM     29  H1  UNL     1      20.410 -10.762  -6.375  1.00  0.00     0.171 HD
ENDBRANCH  17  25
ENDBRANCH  14  15
BRANCH  14  30
HETATM   30  C6  UNL     1      16.551  -6.610  -3.261  1.00  0.00     0.120 C 
BRANCH  30  31
HETATM   31  C7  UNL     1      16.222  -5.448  -2.350  1.00  0.00     0.108 A 
HETATM   32  N2  UNL     1      16.524  -4.153  -2.539  1.00  0.00    -0.329 N 
HETATM   33  C8  UNL     1      16.063  -3.444  -1.522  1.00  0.00     0.131 A 
ATOM     34  H2  UNL     1      17.029  -3.775  -3.341  1.00  0.00     0.168 HD
HETATM   35  N3  UNL     1      15.465  -4.302  -0.686  1.00  0.00    -0.282 N 
HETATM   36  N4  UNL     1      15.559  -5.549  -1.191  1.00  0.00    -0.282 N 
ATOM     37  H3  UNL     1      15.011  -4.053   0.193  1.00  0.00     0.189 HD
HETATM   38  C15 UNL     1      14.998  -6.673  -0.498  1.00  0.00     0.179 C 
BRANCH  33  39
HETATM   39  C9  UNL     1      16.156  -1.986  -1.292  1.00  0.00     0.009 A 
HETATM   40  C10 UNL     1      17.227  -1.442  -0.618  1.00  0.00     0.018 A 
HETATM   41  C11 UNL     1      17.300  -0.066  -0.410  1.00  0.00     0.039 A 
HETATM   42  C12 UNL     1      16.309   0.777  -0.868  1.00  0.00     0.092 A 
HETATM   43  C13 UNL     1      15.233   0.239  -1.544  1.00  0.00     0.039 A 
HETATM   44  C14 UNL     1      15.182  -1.120  -1.739  1.00  0.00     0.018 A 
BRANCH  42  45
HETATM   45  O3  UNL     1      16.354   2.141  -0.676  1.00  0.00    -0.214 OA
BRANCH  45  46
HETATM   46  S1  UNL     1      17.668   3.142  -1.008  1.00  0.00     0.256 S 
HETATM   47  O4  UNL     1      18.646   3.133   0.156  1.00  0.00    -0.572 OA
HETATM   48  O5  UNL     1      18.401   2.558  -2.190  1.00  0.00    -0.572 OA
HETATM   49  O6  UNL     1      17.228   4.723  -1.326  1.00  0.00    -0.572 OA
ENDBRANCH  45  46
ENDBRANCH  42  45
ENDBRANCH  33  39
ENDBRANCH  30  31
BRANCH  30  50
HETATM   50  C16 UNL     1      15.376  -6.916  -4.100  1.00  0.00     0.155 C 
BRANCH  50  51
HETATM   51  O7  UNL     1      14.496  -5.767  -3.953  1.00  0.00    -0.393 OA
ATOM     52  H7  UNL     1      14.206  -5.791  -3.049  1.00  0.00     0.210 HD
ENDBRANCH  50  51
BRANCH  50  53
HETATM   53  C17 UNL     1      14.468  -8.025  -3.561  1.00  0.00     0.196 C 
BRANCH  53  54
HETATM   54  O8  UNL     1      15.177  -9.093  -3.050  1.00  0.00    -0.398 OA
ATOM     55  H8  UNL     1      14.614  -9.786  -2.727  1.00  0.00     0.209 HD
ENDBRANCH  53  54
ENDBRANCH  50  53
ENDBRANCH  30  50
ENDBRANCH  14  30
ENDBRANCH   9  14
BRANCH  12  56
HETATM   56  N9  UNL     1      17.520  -5.813  -8.508  1.00  0.00    -0.382 N 
ATOM     57  H92 UNL     1      16.538  -5.815  -8.783  1.00  0.00     0.157 HD
ATOM     58  H91 UNL     1      18.042  -6.025  -9.358  1.00  0.00     0.157 HD
ENDBRANCH  12  56
ENDBRANCH   1   7
TORSDOF 14
ENDMDL
