MODEL 1
REMARK VINA RESULT: -10.391676491      0.000      0.000
REMARK  19 active torsions:
REMARK  status: ('A' for Active; 'I' for Inactive)
REMARK    1  A    between atoms: O1_2  and  C2_3 
REMARK    2  A    between atoms: C2_3  and  C3_5 
REMARK    3  A    between atoms: C5_7  and  S1_8 
REMARK    4  A    between atoms: S1_8  and  C6_9 
REMARK    5  A    between atoms: C10_21  and  N5_22 
REMARK    6  A    between atoms: N5_22  and  C11_25 
REMARK    7  A    between atoms: C11_25  and  C12_26 
REMARK    8  A    between atoms: C11_25  and  C13_32 
REMARK    9  A    between atoms: C12_26  and  O4_28 
REMARK   10  A    between atoms: O4_28  and  N6_29 
REMARK   11  A    between atoms: C13_32  and  C14_33 
REMARK   12  A    between atoms: C13_32  and  N7_36 
REMARK   13  A    between atoms: C14_33  and  O5_34 
REMARK   14  A    between atoms: N7_36  and  C15_38 
REMARK   15  A    between atoms: C15_38  and  O6_39 
REMARK   16  A    between atoms: C15_38  and  C16_41 
REMARK   17  A    between atoms: C17_42  and  O7_43 
REMARK   18  A    between atoms: C18_45  and  C19_46 
REMARK   19  A    between atoms: C22_49  and  O8_50 
ROOT
HETATM    1  C11 UNL     1      19.767   3.602  -2.080  1.00  0.00     0.312 C 
ENDROOT
BRANCH   1   2
HETATM    2  N5  UNL     1      19.741   3.544  -3.562  1.00  0.00    -0.044 N 
ATOM      3  H52 UNL     1      18.881   3.915  -3.967  1.00  0.00     0.279 HD
ATOM      4  H51 UNL     1      19.652   2.597  -3.930  1.00  0.00     0.279 HD
BRANCH   2   5
HETATM    5  C10 UNL     1      20.895   4.207  -4.000  1.00  0.00     0.311 C 
HETATM    6  C9  UNL     1      20.654   5.469  -4.878  1.00  0.00     0.195 C 
HETATM    7  S2  UNL     1      20.345   6.994  -4.025  1.00  0.00    -0.136 SA
HETATM    8  N9  UNL     1      22.074   5.236  -5.186  1.00  0.00    -0.293 N 
HETATM    9  C8  UNL     1      21.539   8.202  -4.785  1.00  0.00     0.117 C 
HETATM   10  C4  UNL     1      22.856   7.486  -4.601  1.00  0.00    -0.009 C 
HETATM   11  C3  UNL     1      23.099   6.208  -5.277  1.00  0.00     0.121 C 
HETATM   12  C5  UNL     1      23.733   8.086  -3.781  1.00  0.00     0.063 C 
HETATM   13  C24 UNL     1      21.636   3.836  -5.216  1.00  0.00     0.259 C 
HETATM   14  O10 UNL     1      21.867   2.906  -5.969  1.00  0.00    -0.271 OA
BRANCH  11  15
HETATM   15  C2  UNL     1      23.672   6.324  -6.643  1.00  0.00     0.310 C 
HETATM   16  O2  UNL     1      23.647   5.317  -7.385  1.00  0.00    -0.258 OA
BRANCH  15  17
HETATM   17  O1  UNL     1      24.237   7.487  -7.137  1.00  0.00    -0.321 OA
HETATM   18  C1  UNL     1      23.586   8.322  -8.088  1.00  0.00     0.213 C 
ENDBRANCH  15  17
ENDBRANCH  11  15
BRANCH  12  19
HETATM   19  S1  UNL     1      25.288   7.297  -3.481  1.00  0.00    -0.062 SA
BRANCH  19  20
HETATM   20  C6  UNL     1      26.125   7.912  -2.045  1.00  0.00     0.182 A 
HETATM   21  N1  UNL     1      27.381   7.573  -1.709  1.00  0.00    -0.263 N 
HETATM   22  N2  UNL     1      27.696   8.213  -0.587  1.00  0.00    -0.226 N 
ATOM     23  H1  UNL     1      27.988   6.936  -2.226  1.00  0.00     0.190 HD
HETATM   24  N3  UNL     1      26.676   8.950  -0.201  1.00  0.00    -0.224 N 
ATOM     25  H2  UNL     1      28.589   8.144  -0.101  1.00  0.00     0.210 HD
HETATM   26  N4  UNL     1      25.700   8.762  -1.107  1.00  0.00    -0.258 N 
ATOM     27  H3  UNL     1      26.633   9.547   0.625  1.00  0.00     0.210 HD
HETATM   28  C7  UNL     1      24.400   9.424  -1.020  1.00  0.00     0.181 C 
ENDBRANCH  19  20
ENDBRANCH  12  19
ENDBRANCH   2   5
ENDBRANCH   1   2
BRANCH   1  29
HETATM   29  C12 UNL     1      20.762   2.660  -1.556  1.00  0.00     0.313 C 
HETATM   30  O3  UNL     1      21.802   3.105  -0.952  1.00  0.00    -0.261 OA
BRANCH  29  31
HETATM   31  O4  UNL     1      20.695   1.266  -1.640  1.00  0.00    -0.205 OA
BRANCH  31  32
HETATM   32  N6  UNL     1      20.986   0.497  -0.527  1.00  0.00    -0.302 N 
ATOM     33  H62 UNL     1      20.949   0.926   0.398  1.00  0.00     0.184 HD
ATOM     34  H61 UNL     1      21.233  -0.486  -0.642  1.00  0.00     0.184 HD
ENDBRANCH  31  32
ENDBRANCH  29  31
ENDBRANCH   1  29
BRANCH   1  35
HETATM   35  C13 UNL     1      18.401   3.524  -1.499  1.00  0.00     0.147 C 
BRANCH  35  36
HETATM   36  C14 UNL     1      18.007   4.820  -0.840  1.00  0.00     0.191 C 
BRANCH  36  37
HETATM   37  O5  UNL     1      18.874   5.820  -1.222  1.00  0.00    -0.399 OA
ATOM     38  H5  UNL     1      18.995   6.432  -0.505  1.00  0.00     0.209 HD
ENDBRANCH  36  37
ENDBRANCH  35  36
BRANCH  35  39
HETATM   39  N7  UNL     1      18.206   2.424  -0.541  1.00  0.00    -0.361 N 
ATOM     40  H7  UNL     1      18.990   2.096   0.024  1.00  0.00     0.162 HD
BRANCH  39  41
HETATM   41  C15 UNL     1      16.968   1.837  -0.405  1.00  0.00     0.155 C 
BRANCH  41  42
HETATM   42  O6  UNL     1      16.092   2.580   0.206  1.00  0.00    -0.345 OA
ATOM     43  H6  UNL     1      16.194   2.602   1.150  1.00  0.00     0.219 HD
ENDBRANCH  41  42
BRANCH  41  44
HETATM   44  C16 UNL     1      16.468   0.550  -0.808  1.00  0.00     0.116 A 
HETATM   45  C17 UNL     1      17.057  -0.641  -0.488  1.00  0.00     0.096 A 
HETATM   46  C18 UNL     1      16.471  -1.895  -0.876  1.00  0.00     0.030 A 
HETATM   47  C22 UNL     1      15.314  -1.867  -1.573  1.00  0.00     0.152 A 
HETATM   48  N8  UNL     1      14.728  -0.702  -1.895  1.00  0.00    -0.303 N 
HETATM   49  C23 UNL     1      15.269   0.457  -1.535  1.00  0.00     0.264 A 
ATOM     50  H8  UNL     1      13.855  -0.707  -2.422  1.00  0.00     0.171 HD
HETATM   51  O9  UNL     1      14.696   1.538  -1.852  1.00  0.00    -0.267 OA
BRANCH  45  52
HETATM   52  O7  UNL     1      18.198  -0.772   0.188  1.00  0.00    -0.359 OA
ATOM     53  H7  UNL     1      18.784  -1.517   0.129  1.00  0.00     0.217 HD
ENDBRANCH  45  52
BRANCH  46  54
HETATM   54  C19 UNL     1      17.217  -3.082  -0.426  1.00  0.00     0.017 C 
HETATM   55  C20 UNL     1      17.650  -3.972  -1.534  1.00  0.00     0.015 C 
HETATM   56  C21 UNL     1      16.470  -3.846   0.657  1.00  0.00     0.015 C 
ENDBRANCH  46  54
BRANCH  47  57
HETATM   57  O8  UNL     1      14.696  -3.065  -1.976  1.00  0.00    -0.346 OA
ATOM     58  H8  UNL     1      14.623  -3.283  -2.897  1.00  0.00     0.219 HD
ENDBRANCH  47  57
ENDBRANCH  41  44
ENDBRANCH  39  41
ENDBRANCH  35  39
ENDBRANCH   1  35
TORSDOF 19
ENDMDL
MODEL 2
REMARK VINA RESULT: -10.222894288      3.451      5.756
REMARK  19 active torsions:
REMARK  status: ('A' for Active; 'I' for Inactive)
REMARK    1  A    between atoms: O1_2  and  C2_3 
REMARK    2  A    between atoms: C2_3  and  C3_5 
REMARK    3  A    between atoms: C5_7  and  S1_8 
REMARK    4  A    between atoms: S1_8  and  C6_9 
REMARK    5  A    between atoms: C10_21  and  N5_22 
REMARK    6  A    between atoms: N5_22  and  C11_25 
REMARK    7  A    between atoms: C11_25  and  C12_26 
REMARK    8  A    between atoms: C11_25  and  C13_32 
REMARK    9  A    between atoms: C12_26  and  O4_28 
REMARK   10  A    between atoms: O4_28  and  N6_29 
REMARK   11  A    between atoms: C13_32  and  C14_33 
REMARK   12  A    between atoms: C13_32  and  N7_36 
REMARK   13  A    between atoms: C14_33  and  O5_34 
REMARK   14  A    between atoms: N7_36  and  C15_38 
REMARK   15  A    between atoms: C15_38  and  O6_39 
REMARK   16  A    between atoms: C15_38  and  C16_41 
REMARK   17  A    between atoms: C17_42  and  O7_43 
REMARK   18  A    between atoms: C18_45  and  C19_46 
REMARK   19  A    between atoms: C22_49  and  O8_50 
ROOT
HETATM    1  C11 UNL     1      16.672   0.712  -1.343  1.00  0.00     0.312 C 
ENDROOT
BRANCH   1   2
HETATM    2  N5  UNL     1      17.280   1.687  -0.404  1.00  0.00    -0.044 N 
ATOM      3  H52 UNL     1      17.832   1.250   0.333  1.00  0.00     0.279 HD
ATOM      4  H51 UNL     1      16.599   2.144   0.204  1.00  0.00     0.279 HD
BRANCH   2   5
HETATM    5  C10 UNL     1      18.013   2.584  -1.193  1.00  0.00     0.311 C 
HETATM    6  C9  UNL     1      19.412   2.978  -0.637  1.00  0.00     0.195 C 
HETATM    7  S2  UNL     1      20.757   1.878  -0.994  1.00  0.00    -0.136 SA
HETATM    8  N9  UNL     1      19.242   4.051  -1.629  1.00  0.00    -0.293 N 
HETATM    9  C8  UNL     1      22.085   2.977  -1.693  1.00  0.00     0.117 C 
HETATM   10  C4  UNL     1      21.351   3.664  -2.821  1.00  0.00    -0.009 C 
HETATM   11  C3  UNL     1      20.216   4.545  -2.529  1.00  0.00     0.121 C 
HETATM   12  C5  UNL     1      21.796   3.386  -4.056  1.00  0.00     0.063 C 
HETATM   13  C24 UNL     1      17.869   4.046  -1.111  1.00  0.00     0.259 C 
HETATM   14  O10 UNL     1      17.091   4.932  -0.802  1.00  0.00    -0.271 OA
BRANCH  11  15
HETATM   15  C2  UNL     1      20.579   5.964  -2.274  1.00  0.00     0.310 C 
HETATM   16  O2  UNL     1      19.660   6.813  -2.231  1.00  0.00    -0.258 OA
BRANCH  15  17
HETATM   17  O1  UNL     1      21.879   6.398  -2.087  1.00  0.00    -0.321 OA
HETATM   18  C1  UNL     1      22.315   7.711  -2.423  1.00  0.00     0.213 C 
ENDBRANCH  15  17
ENDBRANCH  11  15
BRANCH  12  19
HETATM   19  S1  UNL     1      20.968   4.121  -5.437  1.00  0.00    -0.062 SA
BRANCH  19  20
HETATM   20  C6  UNL     1      22.076   4.703  -6.693  1.00  0.00     0.182 A 
HETATM   21  N1  UNL     1      22.516   3.946  -7.712  1.00  0.00    -0.263 N 
HETATM   22  N2  UNL     1      23.322   4.691  -8.462  1.00  0.00    -0.226 N 
ATOM     23  H1  UNL     1      22.273   2.969  -7.880  1.00  0.00     0.190 HD
HETATM   24  N3  UNL     1      23.405   5.900  -7.950  1.00  0.00    -0.224 N 
ATOM     25  H2  UNL     1      23.801   4.374  -9.305  1.00  0.00     0.210 HD
HETATM   26  N4  UNL     1      22.631   5.907  -6.851  1.00  0.00    -0.258 N 
ATOM     27  H3  UNL     1      23.951   6.680  -8.316  1.00  0.00     0.210 HD
HETATM   28  C7  UNL     1      22.464   7.089  -6.007  1.00  0.00     0.181 C 
ENDBRANCH  19  20
ENDBRANCH  12  19
ENDBRANCH   2   5
ENDBRANCH   1   2
BRANCH   1  29
HETATM   29  C12 UNL     1      15.768   1.401  -2.270  1.00  0.00     0.313 C 
HETATM   30  O3  UNL     1      14.829   2.142  -1.809  1.00  0.00    -0.261 OA
BRANCH  29  31
HETATM   31  O4  UNL     1      15.824   1.343  -3.666  1.00  0.00    -0.205 OA
BRANCH  31  32
HETATM   32  N6  UNL     1      14.850   0.648  -4.363  1.00  0.00    -0.302 N 
ATOM     33  H62 UNL     1      14.302  -0.062  -3.878  1.00  0.00     0.184 HD
ATOM     34  H61 UNL     1      14.692   0.853  -5.350  1.00  0.00     0.184 HD
ENDBRANCH  31  32
ENDBRANCH  29  31
ENDBRANCH   1  29
BRANCH   1  35
HETATM   35  C13 UNL     1      16.125  -0.473  -0.632  1.00  0.00     0.147 C 
BRANCH  35  36
HETATM   36  C14 UNL     1      15.045  -0.081   0.344  1.00  0.00     0.191 C 
BRANCH  36  37
HETATM   37  O5  UNL     1      13.839   0.026  -0.313  1.00  0.00    -0.399 OA
ATOM     38  H5  UNL     1      13.860   0.767  -0.906  1.00  0.00     0.209 HD
ENDBRANCH  36  37
ENDBRANCH  35  36
BRANCH  35  39
HETATM   39  N7  UNL     1      17.132  -1.281   0.074  1.00  0.00    -0.361 N 
ATOM     40  H7  UNL     1      17.593  -0.909   0.904  1.00  0.00     0.162 HD
BRANCH  39  41
HETATM   41  C15 UNL     1      17.454  -2.540  -0.385  1.00  0.00     0.155 C 
BRANCH  41  42
HETATM   42  O6  UNL     1      18.694  -2.670  -0.754  1.00  0.00    -0.345 OA
ATOM     43  H6  UNL     1      18.815  -2.739  -1.693  1.00  0.00     0.219 HD
ENDBRANCH  41  42
BRANCH  41  44
HETATM   44  C16 UNL     1      16.666  -3.733  -0.539  1.00  0.00     0.116 A 
HETATM   45  C17 UNL     1      16.666  -4.518  -1.658  1.00  0.00     0.096 A 
HETATM   46  C18 UNL     1      15.897  -5.732  -1.720  1.00  0.00     0.030 A 
HETATM   47  C22 UNL     1      15.165  -6.078  -0.639  1.00  0.00     0.152 A 
HETATM   48  N8  UNL     1      15.157  -5.312   0.465  1.00  0.00    -0.303 N 
HETATM   49  C23 UNL     1      15.869  -4.191   0.524  1.00  0.00     0.264 A 
ATOM     50  H8  UNL     1      14.597  -5.595   1.268  1.00  0.00     0.171 HD
HETATM   51  O9  UNL     1      15.842  -3.490   1.574  1.00  0.00    -0.267 OA
BRANCH  45  52
HETATM   52  O7  UNL     1      17.346  -4.260  -2.774  1.00  0.00    -0.359 OA
ATOM     53  H7  UNL     1      16.956  -4.090  -3.623  1.00  0.00     0.217 HD
ENDBRANCH  45  52
BRANCH  46  54
HETATM   54  C19 UNL     1      16.031  -6.474  -2.985  1.00  0.00     0.017 C 
HETATM   55  C20 UNL     1      14.746  -6.672  -3.703  1.00  0.00     0.015 C 
HETATM   56  C21 UNL     1      16.785  -7.782  -2.799  1.00  0.00     0.015 C 
ENDBRANCH  46  54
BRANCH  47  57
HETATM   57  O8  UNL     1      14.397  -7.256  -0.646  1.00  0.00    -0.346 OA
ATOM     58  H8  UNL     1      14.414  -7.847   0.098  1.00  0.00     0.219 HD
ENDBRANCH  47  57
ENDBRANCH  41  44
ENDBRANCH  39  41
ENDBRANCH  35  39
ENDBRANCH   1  35
TORSDOF 19
ENDMDL
MODEL 3
REMARK VINA RESULT: -9.977673344      3.629      5.974
REMARK  19 active torsions:
REMARK  status: ('A' for Active; 'I' for Inactive)
REMARK    1  A    between atoms: O1_2  and  C2_3 
REMARK    2  A    between atoms: C2_3  and  C3_5 
REMARK    3  A    between atoms: C5_7  and  S1_8 
REMARK    4  A    between atoms: S1_8  and  C6_9 
REMARK    5  A    between atoms: C10_21  and  N5_22 
REMARK    6  A    between atoms: N5_22  and  C11_25 
REMARK    7  A    between atoms: C11_25  and  C12_26 
REMARK    8  A    between atoms: C11_25  and  C13_32 
REMARK    9  A    between atoms: C12_26  and  O4_28 
REMARK   10  A    between atoms: O4_28  and  N6_29 
REMARK   11  A    between atoms: C13_32  and  C14_33 
REMARK   12  A    between atoms: C13_32  and  N7_36 
REMARK   13  A    between atoms: C14_33  and  O5_34 
REMARK   14  A    between atoms: N7_36  and  C15_38 
REMARK   15  A    between atoms: C15_38  and  O6_39 
REMARK   16  A    between atoms: C15_38  and  C16_41 
REMARK   17  A    between atoms: C17_42  and  O7_43 
REMARK   18  A    between atoms: C18_45  and  C19_46 
REMARK   19  A    between atoms: C22_49  and  O8_50 
ROOT
HETATM    1  C11 UNL     1      16.955   0.794  -1.073  1.00  0.00     0.312 C 
ENDROOT
BRANCH   1   2
HETATM    2  N5  UNL     1      17.498   1.924  -0.280  1.00  0.00    -0.044 N 
ATOM      3  H52 UNL     1      18.092   1.628   0.495  1.00  0.00     0.279 HD
ATOM      4  H51 UNL     1      16.793   2.402   0.281  1.00  0.00     0.279 HD
BRANCH   2   5
HETATM    5  C10 UNL     1      18.149   2.765  -1.193  1.00  0.00     0.311 C 
HETATM    6  C9  UNL     1      19.567   3.246  -0.770  1.00  0.00     0.195 C 
HETATM    7  S2  UNL     1      20.922   2.154  -1.117  1.00  0.00    -0.136 SA
HETATM    8  N9  UNL     1      19.298   4.219  -1.840  1.00  0.00    -0.293 N 
HETATM    9  C8  UNL     1      22.165   3.221  -1.999  1.00  0.00     0.117 C 
HETATM   10  C4  UNL     1      21.337   3.781  -3.132  1.00  0.00    -0.009 C 
HETATM   11  C3  UNL     1      20.195   4.655  -2.844  1.00  0.00     0.121 C 
HETATM   12  C5  UNL     1      21.710   3.404  -4.364  1.00  0.00     0.063 C 
HETATM   13  C24 UNL     1      17.962   4.224  -1.233  1.00  0.00     0.259 C 
HETATM   14  O10 UNL     1      17.177   5.112  -0.952  1.00  0.00    -0.271 OA
BRANCH  11  15
HETATM   15  C2  UNL     1      20.526   6.100  -2.742  1.00  0.00     0.310 C 
HETATM   16  O2  UNL     1      19.789   6.921  -3.331  1.00  0.00    -0.258 OA
BRANCH  15  17
HETATM   17  O1  UNL     1      21.610   6.587  -2.032  1.00  0.00    -0.321 OA
HETATM   18  C1  UNL     1      22.713   7.239  -2.651  1.00  0.00     0.213 C 
ENDBRANCH  15  17
ENDBRANCH  11  15
BRANCH  12  19
HETATM   19  S1  UNL     1      20.771   3.987  -5.746  1.00  0.00    -0.062 SA
BRANCH  19  20
HETATM   20  C6  UNL     1      21.773   4.673  -7.039  1.00  0.00     0.182 A 
HETATM   21  N1  UNL     1      22.836   4.047  -7.572  1.00  0.00    -0.263 N 
HETATM   22  N2  UNL     1      23.350   4.835  -8.511  1.00  0.00    -0.226 N 
ATOM     23  H1  UNL     1      23.187   3.127  -7.304  1.00  0.00     0.190 HD
HETATM   24  N3  UNL     1      22.644   5.943  -8.591  1.00  0.00    -0.224 N 
ATOM     25  H2  UNL     1      24.166   4.615  -9.082  1.00  0.00     0.210 HD
HETATM   26  N4  UNL     1      21.664   5.841  -7.676  1.00  0.00    -0.258 N 
ATOM     27  H3  UNL     1      22.808   6.725  -9.224  1.00  0.00     0.210 HD
HETATM   28  C7  UNL     1      20.663   6.885  -7.467  1.00  0.00     0.181 C 
ENDBRANCH  19  20
ENDBRANCH  12  19
ENDBRANCH   2   5
ENDBRANCH   1   2
BRANCH   1  29
HETATM   29  C12 UNL     1      15.600   1.108  -1.536  1.00  0.00     0.313 C 
HETATM   30  O3  UNL     1      14.592   0.816  -0.799  1.00  0.00    -0.261 OA
BRANCH  29  31
HETATM   31  O4  UNL     1      15.269   1.725  -2.747  1.00  0.00    -0.205 OA
BRANCH  31  32
HETATM   32  N6  UNL     1      15.273   0.987  -3.917  1.00  0.00    -0.302 N 
ATOM     33  H62 UNL     1      15.376  -0.027  -3.866  1.00  0.00     0.184 HD
ATOM     34  H61 UNL     1      15.174   1.462  -4.814  1.00  0.00     0.184 HD
ENDBRANCH  31  32
ENDBRANCH  29  31
ENDBRANCH   1  29
BRANCH   1  35
HETATM   35  C13 UNL     1      17.140  -0.508  -0.378  1.00  0.00     0.147 C 
BRANCH  35  36
HETATM   36  C14 UNL     1      18.586  -0.929  -0.371  1.00  0.00     0.191 C 
BRANCH  36  37
HETATM   37  O5  UNL     1      19.259  -0.272   0.635  1.00  0.00    -0.399 OA
ATOM     38  H5  UNL     1      19.588  -0.900   1.266  1.00  0.00     0.209 HD
ENDBRANCH  36  37
ENDBRANCH  35  36
BRANCH  35  39
HETATM   39  N7  UNL     1      16.326  -1.609  -0.918  1.00  0.00    -0.361 N 
ATOM     40  H7  UNL     1      15.638  -1.423  -1.648  1.00  0.00     0.162 HD
BRANCH  39  41
HETATM   41  C15 UNL     1      16.492  -2.890  -0.438  1.00  0.00     0.155 C 
BRANCH  41  42
HETATM   42  O6  UNL     1      16.445  -2.982   0.858  1.00  0.00    -0.345 OA
ATOM     43  H6  UNL     1      16.754  -3.813   1.199  1.00  0.00     0.219 HD
ENDBRANCH  41  42
BRANCH  41  44
HETATM   44  C16 UNL     1      16.716  -4.142  -1.110  1.00  0.00     0.116 A 
HETATM   45  C17 UNL     1      15.809  -4.749  -1.933  1.00  0.00     0.096 A 
HETATM   46  C18 UNL     1      16.123  -5.973  -2.619  1.00  0.00     0.030 A 
HETATM   47  C22 UNL     1      17.345  -6.515  -2.426  1.00  0.00     0.152 A 
HETATM   48  N8  UNL     1      18.242  -5.928  -1.617  1.00  0.00    -0.303 N 
HETATM   49  C23 UNL     1      17.954  -4.796  -0.984  1.00  0.00     0.264 A 
ATOM     50  H8  UNL     1      19.158  -6.357  -1.488  1.00  0.00     0.171 HD
HETATM   51  O9  UNL     1      18.817  -4.266  -0.229  1.00  0.00    -0.267 OA
BRANCH  45  52
HETATM   52  O7  UNL     1      14.580  -4.298  -2.181  1.00  0.00    -0.359 OA
ATOM     53  H7  UNL     1      13.885  -4.229  -1.538  1.00  0.00     0.217 HD
ENDBRANCH  45  52
BRANCH  46  54
HETATM   54  C19 UNL     1      15.047  -6.477  -3.489  1.00  0.00     0.017 C 
HETATM   55  C20 UNL     1      14.448  -7.755  -3.022  1.00  0.00     0.015 C 
HETATM   56  C21 UNL     1      15.481  -6.552  -4.945  1.00  0.00     0.015 C 
ENDBRANCH  46  54
BRANCH  47  57
HETATM   57  O8  UNL     1      17.704  -7.711  -3.075  1.00  0.00    -0.346 OA
ATOM     58  H8  UNL     1      18.494  -7.755  -3.600  1.00  0.00     0.219 HD
ENDBRANCH  47  57
ENDBRANCH  41  44
ENDBRANCH  39  41
ENDBRANCH  35  39
ENDBRANCH   1  35
TORSDOF 19
ENDMDL
MODEL 4
REMARK VINA RESULT: -9.924304176      3.592      5.808
REMARK  19 active torsions:
REMARK  status: ('A' for Active; 'I' for Inactive)
REMARK    1  A    between atoms: O1_2  and  C2_3 
REMARK    2  A    between atoms: C2_3  and  C3_5 
REMARK    3  A    between atoms: C5_7  and  S1_8 
REMARK    4  A    between atoms: S1_8  and  C6_9 
REMARK    5  A    between atoms: C10_21  and  N5_22 
REMARK    6  A    between atoms: N5_22  and  C11_25 
REMARK    7  A    between atoms: C11_25  and  C12_26 
REMARK    8  A    between atoms: C11_25  and  C13_32 
REMARK    9  A    between atoms: C12_26  and  O4_28 
REMARK   10  A    between atoms: O4_28  and  N6_29 
REMARK   11  A    between atoms: C13_32  and  C14_33 
REMARK   12  A    between atoms: C13_32  and  N7_36 
REMARK   13  A    between atoms: C14_33  and  O5_34 
REMARK   14  A    between atoms: N7_36  and  C15_38 
REMARK   15  A    between atoms: C15_38  and  O6_39 
REMARK   16  A    between atoms: C15_38  and  C16_41 
REMARK   17  A    between atoms: C17_42  and  O7_43 
REMARK   18  A    between atoms: C18_45  and  C19_46 
REMARK   19  A    between atoms: C22_49  and  O8_50 
ROOT
HETATM    1  C11 UNL     1      17.177   0.827  -1.189  1.00  0.00     0.312 C 
ENDROOT
BRANCH   1   2
HETATM    2  N5  UNL     1      17.670   1.968  -0.380  1.00  0.00    -0.044 N 
ATOM      3  H52 UNL     1      18.266   1.686   0.398  1.00  0.00     0.279 HD
ATOM      4  H51 UNL     1      16.942   2.415   0.177  1.00  0.00     0.279 HD
BRANCH   2   5
HETATM    5  C10 UNL     1      18.300   2.840  -1.278  1.00  0.00     0.311 C 
HETATM    6  C9  UNL     1      19.714   3.334  -0.856  1.00  0.00     0.195 C 
HETATM    7  S2  UNL     1      21.083   2.272  -1.239  1.00  0.00    -0.136 SA
HETATM    8  N9  UNL     1      19.421   4.327  -1.900  1.00  0.00    -0.293 N 
HETATM    9  C8  UNL     1      22.301   3.379  -2.106  1.00  0.00     0.117 C 
HETATM   10  C4  UNL     1      21.455   3.953  -3.218  1.00  0.00    -0.009 C 
HETATM   11  C3  UNL     1      20.302   4.801  -2.900  1.00  0.00     0.121 C 
HETATM   12  C5  UNL     1      21.823   3.611  -4.462  1.00  0.00     0.063 C 
HETATM   13  C24 UNL     1      18.090   4.297  -1.281  1.00  0.00     0.259 C 
HETATM   14  O10 UNL     1      17.294   5.166  -0.973  1.00  0.00    -0.271 OA
BRANCH  11  15
HETATM   15  C2  UNL     1      20.612   6.248  -2.766  1.00  0.00     0.310 C 
HETATM   16  O2  UNL     1      19.858   7.072  -3.333  1.00  0.00    -0.258 OA
BRANCH  15  17
HETATM   17  O1  UNL     1      21.692   6.736  -2.052  1.00  0.00    -0.321 OA
HETATM   18  C1  UNL     1      22.771   7.438  -2.659  1.00  0.00     0.213 C 
ENDBRANCH  15  17
ENDBRANCH  11  15
BRANCH  12  19
HETATM   19  S1  UNL     1      20.864   4.212  -5.822  1.00  0.00    -0.062 SA
BRANCH  19  20
HETATM   20  C6  UNL     1      21.850   4.789  -7.179  1.00  0.00     0.182 A 
HETATM   21  N1  UNL     1      22.933   4.143  -7.643  1.00  0.00    -0.263 N 
HETATM   22  N2  UNL     1      23.427   4.844  -8.659  1.00  0.00    -0.226 N 
ATOM     23  H1  UNL     1      23.310   3.268  -7.280  1.00  0.00     0.190 HD
HETATM   24  N3  UNL     1      22.688   5.916  -8.854  1.00  0.00    -0.224 N 
ATOM     25  H2  UNL     1      24.252   4.591  -9.203  1.00  0.00     0.210 HD
HETATM   26  N4  UNL     1      21.708   5.880  -7.934  1.00  0.00    -0.258 N 
ATOM     27  H3  UNL     1      22.830   6.633  -9.565  1.00  0.00     0.210 HD
HETATM   28  C7  UNL     1      20.675   6.910  -7.836  1.00  0.00     0.181 C 
ENDBRANCH  19  20
ENDBRANCH  12  19
ENDBRANCH   2   5
ENDBRANCH   1   2
BRANCH   1  29
HETATM   29  C12 UNL     1      15.809   1.088  -1.649  1.00  0.00     0.313 C 
HETATM   30  O3  UNL     1      15.615   1.597  -2.810  1.00  0.00    -0.261 OA
BRANCH  29  31
HETATM   31  O4  UNL     1      14.638   0.825  -0.931  1.00  0.00    -0.205 OA
BRANCH  31  32
HETATM   32  N6  UNL     1      13.567   0.219  -1.565  1.00  0.00    -0.302 N 
ATOM     33  H62 UNL     1      13.319   0.510  -2.511  1.00  0.00     0.184 HD
ATOM     34  H61 UNL     1      13.039  -0.508  -1.082  1.00  0.00     0.184 HD
ENDBRANCH  31  32
ENDBRANCH  29  31
ENDBRANCH   1  29
BRANCH   1  35
HETATM   35  C13 UNL     1      17.418  -0.475  -0.513  1.00  0.00     0.147 C 
BRANCH  35  36
HETATM   36  C14 UNL     1      18.888  -0.713  -0.282  1.00  0.00     0.191 C 
BRANCH  36  37
HETATM   37  O5  UNL     1      19.302  -0.024   0.836  1.00  0.00    -0.399 OA
ATOM     38  H5  UNL     1      18.562   0.132   1.411  1.00  0.00     0.209 HD
ENDBRANCH  36  37
ENDBRANCH  35  36
BRANCH  35  39
HETATM   39  N7  UNL     1      16.851  -1.640  -1.211  1.00  0.00    -0.361 N 
ATOM     40  H7  UNL     1      17.176  -1.880  -2.148  1.00  0.00     0.162 HD
BRANCH  39  41
HETATM   41  C15 UNL     1      15.884  -2.409  -0.601  1.00  0.00     0.155 C 
BRANCH  41  42
HETATM   42  O6  UNL     1      15.086  -1.738   0.177  1.00  0.00    -0.345 OA
ATOM     43  H6  UNL     1      15.481  -1.469   0.998  1.00  0.00     0.219 HD
ENDBRANCH  41  42
BRANCH  41  44
HETATM   44  C16 UNL     1      15.601  -3.817  -0.662  1.00  0.00     0.116 A 
HETATM   45  C17 UNL     1      15.677  -4.571  -1.800  1.00  0.00     0.096 A 
HETATM   46  C18 UNL     1      15.436  -5.988  -1.776  1.00  0.00     0.030 A 
HETATM   47  C22 UNL     1      15.127  -6.562  -0.592  1.00  0.00     0.152 A 
HETATM   48  N8  UNL     1      15.048  -5.829   0.531  1.00  0.00    -0.303 N 
HETATM   49  C23 UNL     1      15.272  -4.520   0.510  1.00  0.00     0.264 A 
ATOM     50  H8  UNL     1      14.813  -6.285   1.413  1.00  0.00     0.171 HD
HETATM   51  O9  UNL     1      15.189  -3.856   1.582  1.00  0.00    -0.267 OA
BRANCH  45  52
HETATM   52  O7  UNL     1      15.966  -4.099  -3.012  1.00  0.00    -0.359 OA
ATOM     53  H7  UNL     1      16.834  -4.082  -3.397  1.00  0.00     0.217 HD
ENDBRANCH  45  52
BRANCH  46  54
HETATM   54  C19 UNL     1      15.588  -6.655  -3.081  1.00  0.00     0.017 C 
HETATM   55  C20 UNL     1      14.349  -7.319  -3.561  1.00  0.00     0.015 C 
HETATM   56  C21 UNL     1      16.782  -7.596  -3.103  1.00  0.00     0.015 C 
ENDBRANCH  46  54
BRANCH  47  57
HETATM   57  O8  UNL     1      14.885  -7.945  -0.512  1.00  0.00    -0.346 OA
ATOM     58  H8  UNL     1      15.182  -8.443   0.240  1.00  0.00     0.219 HD
ENDBRANCH  47  57
ENDBRANCH  41  44
ENDBRANCH  39  41
ENDBRANCH  35  39
ENDBRANCH   1  35
TORSDOF 19
ENDMDL
MODEL 5
REMARK VINA RESULT: -9.710152588      2.592      4.423
REMARK  19 active torsions:
REMARK  status: ('A' for Active; 'I' for Inactive)
REMARK    1  A    between atoms: O1_2  and  C2_3 
REMARK    2  A    between atoms: C2_3  and  C3_5 
REMARK    3  A    between atoms: C5_7  and  S1_8 
REMARK    4  A    between atoms: S1_8  and  C6_9 
REMARK    5  A    between atoms: C10_21  and  N5_22 
REMARK    6  A    between atoms: N5_22  and  C11_25 
REMARK    7  A    between atoms: C11_25  and  C12_26 
REMARK    8  A    between atoms: C11_25  and  C13_32 
REMARK    9  A    between atoms: C12_26  and  O4_28 
REMARK   10  A    between atoms: O4_28  and  N6_29 
REMARK   11  A    between atoms: C13_32  and  C14_33 
REMARK   12  A    between atoms: C13_32  and  N7_36 
REMARK   13  A    between atoms: C14_33  and  O5_34 
REMARK   14  A    between atoms: N7_36  and  C15_38 
REMARK   15  A    between atoms: C15_38  and  O6_39 
REMARK   16  A    between atoms: C15_38  and  C16_41 
REMARK   17  A    between atoms: C17_42  and  O7_43 
REMARK   18  A    between atoms: C18_45  and  C19_46 
REMARK   19  A    between atoms: C22_49  and  O8_50 
ROOT
HETATM    1  C11 UNL     1      19.911   3.568  -1.989  1.00  0.00     0.312 C 
ENDROOT
BRANCH   1   2
HETATM    2  N5  UNL     1      19.854   3.664  -3.468  1.00  0.00    -0.044 N 
ATOM      3  H52 UNL     1      18.931   3.464  -3.852  1.00  0.00     0.279 HD
ATOM      4  H51 UNL     1      20.353   2.911  -3.943  1.00  0.00     0.279 HD
BRANCH   2   5
HETATM    5  C10 UNL     1      20.330   4.941  -3.795  1.00  0.00     0.311 C 
HETATM    6  C9  UNL     1      21.832   5.199  -3.482  1.00  0.00     0.195 C 
HETATM    7  S2  UNL     1      23.009   4.669  -4.699  1.00  0.00    -0.136 SA
HETATM    8  N9  UNL     1      21.385   6.590  -3.653  1.00  0.00    -0.293 N 
HETATM    9  C8  UNL     1      24.080   6.162  -4.992  1.00  0.00     0.117 C 
HETATM   10  C4  UNL     1      23.052   7.212  -5.342  1.00  0.00    -0.009 C 
HETATM   11  C3  UNL     1      22.056   7.624  -4.348  1.00  0.00     0.121 C 
HETATM   12  C5  UNL     1      23.114   7.690  -6.594  1.00  0.00     0.063 C 
HETATM   13  C24 UNL     1      20.223   6.104  -2.900  1.00  0.00     0.259 C 
HETATM   14  O10 UNL     1      19.574   6.566  -1.978  1.00  0.00    -0.271 OA
BRANCH  11  15
HETATM   15  C2  UNL     1      22.484   8.739  -3.463  1.00  0.00     0.310 C 
HETATM   16  O2  UNL     1      22.334   9.912  -3.871  1.00  0.00    -0.258 OA
BRANCH  15  17
HETATM   17  O1  UNL     1      23.044   8.549  -2.212  1.00  0.00    -0.321 OA
HETATM   18  C1  UNL     1      24.444   8.402  -2.003  1.00  0.00     0.213 C 
ENDBRANCH  15  17
ENDBRANCH  11  15
BRANCH  12  19
HETATM   19  S1  UNL     1      21.923   8.898  -7.097  1.00  0.00    -0.062 SA
BRANCH  19  20
HETATM   20  C6  UNL     1      20.763   8.288  -8.291  1.00  0.00     0.182 A 
HETATM   21  N1  UNL     1      20.122   9.068  -9.178  1.00  0.00    -0.263 N 
HETATM   22  N2  UNL     1      19.336   8.293  -9.918  1.00  0.00    -0.226 N 
ATOM     23  H1  UNL     1      20.221  10.080  -9.267  1.00  0.00     0.190 HD
HETATM   24  N3  UNL     1      19.460   7.042  -9.529  1.00  0.00    -0.224 N 
ATOM     25  H2  UNL     1      18.730   8.617 -10.671  1.00  0.00     0.210 HD
HETATM   26  N4  UNL     1      20.347   7.039  -8.518  1.00  0.00    -0.258 N 
ATOM     27  H3  UNL     1      18.978   6.232  -9.918  1.00  0.00     0.210 HD
HETATM   28  C7  UNL     1      20.752   5.820  -7.822  1.00  0.00     0.181 C 
ENDBRANCH  19  20
ENDBRANCH  12  19
ENDBRANCH   2   5
ENDBRANCH   1   2
BRANCH   1  29
HETATM   29  C12 UNL     1      20.956   2.622  -1.584  1.00  0.00     0.313 C 
HETATM   30  O3  UNL     1      22.057   3.061  -1.094  1.00  0.00    -0.261 OA
BRANCH  29  31
HETATM   31  O4  UNL     1      20.880   1.228  -1.672  1.00  0.00    -0.205 OA
BRANCH  31  32
HETATM   32  N6  UNL     1      21.066   0.458  -0.537  1.00  0.00    -0.302 N 
ATOM     33  H62 UNL     1      20.915   0.879   0.380  1.00  0.00     0.184 HD
ATOM     34  H61 UNL     1      21.351  -0.517  -0.628  1.00  0.00     0.184 HD
ENDBRANCH  31  32
ENDBRANCH  29  31
ENDBRANCH   1  29
BRANCH   1  35
HETATM   35  C13 UNL     1      18.563   3.369  -1.395  1.00  0.00     0.147 C 
BRANCH  35  36
HETATM   36  C14 UNL     1      18.207   4.485  -0.448  1.00  0.00     0.191 C 
BRANCH  36  37
HETATM   37  O5  UNL     1      17.059   5.113  -0.877  1.00  0.00    -0.399 OA
ATOM     38  H5  UNL     1      16.432   5.159  -0.166  1.00  0.00     0.209 HD
ENDBRANCH  36  37
ENDBRANCH  35  36
BRANCH  35  39
HETATM   39  N7  UNL     1      18.384   2.082  -0.703  1.00  0.00    -0.361 N 
ATOM     40  H7  UNL     1      19.196   1.580  -0.344  1.00  0.00     0.162 HD
BRANCH  39  41
HETATM   41  C15 UNL     1      17.122   1.555  -0.540  1.00  0.00     0.155 C 
BRANCH  41  42
HETATM   42  O6  UNL     1      16.289   2.348   0.067  1.00  0.00    -0.345 OA
ATOM     43  H6  UNL     1      15.940   1.998   0.878  1.00  0.00     0.219 HD
ENDBRANCH  41  42
BRANCH  41  44
HETATM   44  C16 UNL     1      16.559   0.284  -0.911  1.00  0.00     0.116 A 
HETATM   45  C17 UNL     1      17.137  -0.924  -0.639  1.00  0.00     0.096 A 
HETATM   46  C18 UNL     1      16.489  -2.159  -0.989  1.00  0.00     0.030 A 
HETATM   47  C22 UNL     1      15.285  -2.096  -1.600  1.00  0.00     0.152 A 
HETATM   48  N8  UNL     1      14.710  -0.913  -1.874  1.00  0.00    -0.303 N 
HETATM   49  C23 UNL     1      15.308   0.229  -1.550  1.00  0.00     0.264 A 
ATOM     50  H8  UNL     1      13.802  -0.891  -2.336  1.00  0.00     0.171 HD
HETATM   51  O9  UNL     1      14.744   1.327  -1.819  1.00  0.00    -0.267 OA
BRANCH  45  52
HETATM   52  O7  UNL     1      18.319  -1.091  -0.049  1.00  0.00    -0.359 OA
ATOM     53  H7  UNL     1      19.077  -0.533  -0.178  1.00  0.00     0.217 HD
ENDBRANCH  45  52
BRANCH  46  54
HETATM   54  C19 UNL     1      17.232  -3.369  -0.599  1.00  0.00     0.017 C 
HETATM   55  C20 UNL     1      17.602  -4.240  -1.745  1.00  0.00     0.015 C 
HETATM   56  C21 UNL     1      16.520  -4.146   0.497  1.00  0.00     0.015 C 
ENDBRANCH  46  54
BRANCH  47  57
HETATM   57  O8  UNL     1      14.607  -3.274  -1.962  1.00  0.00    -0.346 OA
ATOM     58  H8  UNL     1      14.766  -4.084  -1.492  1.00  0.00     0.219 HD
ENDBRANCH  47  57
ENDBRANCH  41  44
ENDBRANCH  39  41
ENDBRANCH  35  39
ENDBRANCH   1  35
TORSDOF 19
ENDMDL
