MODEL 1
REMARK VINA RESULT: -2.301518068      0.000      0.000
REMARK  3 active torsions:
REMARK  status: ('A' for Active; 'I' for Inactive)
REMARK    1  A    between atoms: C2_5  and  N3_6 
REMARK    2  A    between atoms: C4_11  and  N4_12 
REMARK    3  A    between atoms: N5_15  and  N6_16 
ROOT
HETATM    1  C1  UNL     1      52.311  36.042  45.719  1.00  0.00     0.202 C 
HETATM    2  N1  UNL     1      51.258  35.082  45.435  1.00  0.00    -0.214 N 
HETATM    3  N2  UNL     1      51.305  34.301  44.360  1.00  0.00    -0.264 N 
ATOM      4  H2  UNL     1      52.101  34.387  43.728  1.00  0.00     0.190 HD
HETATM    5  C2  UNL     1      50.346  33.402  44.069  1.00  0.00     0.170 A 
HETATM    6  C3  UNL     1      49.283  33.315  44.947  1.00  0.00     0.263 A 
HETATM    7  O1  UNL     1      48.344  32.497  44.743  1.00  0.00    -0.280 OA
HETATM    8  C4  UNL     1      49.262  34.139  46.054  1.00  0.00     0.194 A 
HETATM    9  N5  UNL     1      50.249  35.028  46.304  1.00  0.00    -0.166 N 
ENDROOT
BRANCH   5  10
HETATM   10  N3  UNL     1      50.397  32.641  43.016  1.00  0.00    -0.381 N 
ATOM     11  H32 UNL     1      50.932  32.926  42.196  1.00  0.00     0.157 HD
ATOM     12  H31 UNL     1      49.916  31.744  42.965  1.00  0.00     0.157 HD
ENDBRANCH   5  10
BRANCH   8  13
HETATM   13  N4  UNL     1      48.293  34.106  46.916  1.00  0.00    -0.379 N 
ATOM     14  H42 UNL     1      48.548  34.301  47.883  1.00  0.00     0.158 HD
ATOM     15  H41 UNL     1      47.334  33.898  46.640  1.00  0.00     0.158 HD
ENDBRANCH   8  13
BRANCH   9  16
HETATM   16  N6  UNL     1      50.239  35.864  47.420  1.00  0.00    -0.321 N 
ATOM     17  H62 UNL     1      50.249  35.506  48.374  1.00  0.00     0.179 HD
ATOM     18  H61 UNL     1      50.222  36.877  47.301  1.00  0.00     0.179 HD
ENDBRANCH   9  16
TORSDOF 3
ENDMDL
MODEL 2
REMARK VINA RESULT: -2.056613458      1.977      3.194
REMARK  3 active torsions:
REMARK  status: ('A' for Active; 'I' for Inactive)
REMARK    1  A    between atoms: C2_5  and  N3_6 
REMARK    2  A    between atoms: C4_11  and  N4_12 
REMARK    3  A    between atoms: N5_15  and  N6_16 
ROOT
HETATM    1  C1  UNL     1      50.542  32.871  42.900  1.00  0.00     0.202 C 
HETATM    2  N1  UNL     1      50.488  33.680  44.107  1.00  0.00    -0.214 N 
HETATM    3  N2  UNL     1      51.435  34.570  44.386  1.00  0.00    -0.264 N 
ATOM      4  H2  UNL     1      52.211  34.679  43.733  1.00  0.00     0.190 HD
HETATM    5  C2  UNL     1      51.412  35.335  45.494  1.00  0.00     0.170 A 
HETATM    6  C3  UNL     1      50.346  35.158  46.355  1.00  0.00     0.263 A 
HETATM    7  O1  UNL     1      50.255  35.838  47.415  1.00  0.00    -0.280 OA
HETATM    8  C4  UNL     1      49.379  34.227  46.037  1.00  0.00     0.194 A 
HETATM    9  N5  UNL     1      49.444  33.481  44.912  1.00  0.00    -0.166 N 
ENDROOT
BRANCH   5  10
HETATM   10  N3  UNL     1      52.341  36.204  45.762  1.00  0.00    -0.381 N 
ATOM     11  H32 UNL     1      52.384  36.653  46.676  1.00  0.00     0.157 HD
ATOM     12  H31 UNL     1      53.054  36.470  45.083  1.00  0.00     0.157 HD
ENDBRANCH   5  10
BRANCH   8  13
HETATM   13  N4  UNL     1      48.354  34.014  46.803  1.00  0.00    -0.379 N 
ATOM     14  H42 UNL     1      48.500  34.169  47.800  1.00  0.00     0.158 HD
ATOM     15  H41 UNL     1      47.456  33.711  46.429  1.00  0.00     0.158 HD
ENDBRANCH   8  13
BRANCH   9  16
HETATM   16  N6  UNL     1      48.473  32.537  44.582  1.00  0.00    -0.321 N 
ATOM     17  H62 UNL     1      47.624  32.779  44.072  1.00  0.00     0.179 HD
ATOM     18  H61 UNL     1      48.595  31.560  44.847  1.00  0.00     0.179 HD
ENDBRANCH   9  16
TORSDOF 3
ENDMDL
MODEL 3
REMARK VINA RESULT: -1.769631876      6.533      8.489
REMARK  3 active torsions:
REMARK  status: ('A' for Active; 'I' for Inactive)
REMARK    1  A    between atoms: C2_5  and  N3_6 
REMARK    2  A    between atoms: C4_11  and  N4_12 
REMARK    3  A    between atoms: N5_15  and  N6_16 
ROOT
HETATM    1  C1  UNL     1      54.281  36.462  46.347  1.00  0.00     0.202 C 
HETATM    2  N1  UNL     1      55.121  37.645  46.254  1.00  0.00    -0.214 N 
HETATM    3  N2  UNL     1      55.189  38.526  47.248  1.00  0.00    -0.264 N 
ATOM      4  H2  UNL     1      54.635  38.358  48.088  1.00  0.00     0.190 HD
HETATM    5  C2  UNL     1      55.957  39.630  47.193  1.00  0.00     0.170 A 
HETATM    6  C3  UNL     1      56.692  39.824  46.039  1.00  0.00     0.263 A 
HETATM    7  O1  UNL     1      57.435  40.836  45.912  1.00  0.00    -0.280 OA
HETATM    8  C4  UNL     1      56.601  38.893  45.025  1.00  0.00     0.194 A 
HETATM    9  N5  UNL     1      55.814  37.798  45.126  1.00  0.00    -0.166 N 
ENDROOT
BRANCH   5  10
HETATM   10  N3  UNL     1      56.019  40.487  48.168  1.00  0.00    -0.381 N 
ATOM     11  H32 UNL     1      55.193  40.697  48.727  1.00  0.00     0.157 HD
ATOM     12  H31 UNL     1      56.879  40.976  48.413  1.00  0.00     0.157 HD
ENDBRANCH   5  10
BRANCH   8  13
HETATM   13  N4  UNL     1      57.265  39.017  43.918  1.00  0.00    -0.379 N 
ATOM     14  H42 UNL     1      56.912  38.487  43.122  1.00  0.00     0.158 HD
ATOM     15  H41 UNL     1      58.090  39.611  43.848  1.00  0.00     0.158 HD
ENDBRANCH   8  13
BRANCH   9  16
HETATM   16  N6  UNL     1      55.715  36.851  44.107  1.00  0.00    -0.321 N 
ATOM     17  H62 UNL     1      54.918  36.221  44.021  1.00  0.00     0.179 HD
ATOM     18  H61 UNL     1      56.455  36.767  43.410  1.00  0.00     0.179 HD
ENDBRANCH   9  16
TORSDOF 3
ENDMDL
MODEL 4
REMARK VINA RESULT: -1.691545496      6.373      7.437
REMARK  3 active torsions:
REMARK  status: ('A' for Active; 'I' for Inactive)
REMARK    1  A    between atoms: C2_5  and  N3_6 
REMARK    2  A    between atoms: C4_11  and  N4_12 
REMARK    3  A    between atoms: N5_15  and  N6_16 
ROOT
HETATM    1  C1  UNL     1      57.436  40.825  44.856  1.00  0.00     0.202 C 
HETATM    2  N1  UNL     1      56.703  39.664  45.335  1.00  0.00    -0.214 N 
HETATM    3  N2  UNL     1      56.465  38.621  44.546  1.00  0.00    -0.264 N 
ATOM      4  H2  UNL     1      56.807  38.647  43.585  1.00  0.00     0.190 HD
HETATM    5  C2  UNL     1      55.790  37.532  44.960  1.00  0.00     0.170 A 
HETATM    6  C3  UNL     1      55.341  37.534  46.266  1.00  0.00     0.263 A 
HETATM    7  O1  UNL     1      54.700  36.549  46.728  1.00  0.00    -0.280 OA
HETATM    8  C4  UNL     1      55.604  38.631  47.061  1.00  0.00     0.194 A 
HETATM    9  N5  UNL     1      56.286  39.703  46.601  1.00  0.00    -0.166 N 
ENDROOT
BRANCH   5  10
HETATM   10  N3  UNL     1      55.560  36.516  44.183  1.00  0.00    -0.381 N 
ATOM     11  H32 UNL     1      56.068  35.641  44.309  1.00  0.00     0.157 HD
ATOM     12  H31 UNL     1      54.875  36.547  43.429  1.00  0.00     0.157 HD
ENDBRANCH   5  10
BRANCH   8  13
HETATM   13  N4  UNL     1      55.210  38.693  48.295  1.00  0.00    -0.379 N 
ATOM     14  H42 UNL     1      54.209  38.586  48.452  1.00  0.00     0.158 HD
ATOM     15  H41 UNL     1      55.865  38.841  49.063  1.00  0.00     0.158 HD
ENDBRANCH   8  13
BRANCH   9  16
HETATM   16  N6  UNL     1      56.558  40.816  47.395  1.00  0.00    -0.321 N 
ATOM     17  H62 UNL     1      55.857  41.240  48.003  1.00  0.00     0.179 HD
ATOM     18  H61 UNL     1      57.486  41.238  47.387  1.00  0.00     0.179 HD
ENDBRANCH   9  16
TORSDOF 3
ENDMDL
MODEL 5
REMARK VINA RESULT: -1.170408612      6.197      7.808
REMARK  3 active torsions:
REMARK  status: ('A' for Active; 'I' for Inactive)
REMARK    1  A    between atoms: C2_5  and  N3_6 
REMARK    2  A    between atoms: C4_11  and  N4_12 
REMARK    3  A    between atoms: N5_15  and  N6_16 
ROOT
HETATM    1  C1  UNL     1      56.136  40.500  48.137  1.00  0.00     0.202 C 
HETATM    2  N1  UNL     1      55.967  39.503  47.093  1.00  0.00    -0.214 N 
HETATM    3  N2  UNL     1      55.191  38.438  47.271  1.00  0.00    -0.264 N 
ATOM      4  H2  UNL     1      54.709  38.329  48.164  1.00  0.00     0.190 HD
HETATM    5  C2  UNL     1      55.013  37.498  46.324  1.00  0.00     0.170 A 
HETATM    6  C3  UNL     1      55.682  37.680  45.129  1.00  0.00     0.263 A 
HETATM    7  O1  UNL     1      55.566  36.841  44.193  1.00  0.00    -0.280 OA
HETATM    8  C4  UNL     1      56.480  38.794  44.974  1.00  0.00     0.194 A 
HETATM    9  N5  UNL     1      56.629  39.712  45.955  1.00  0.00    -0.166 N 
ENDROOT
BRANCH   5  10
HETATM   10  N3  UNL     1      54.252  36.460  46.505  1.00  0.00    -0.381 N 
ATOM     11  H32 UNL     1      54.651  35.522  46.525  1.00  0.00     0.157 HD
ATOM     12  H31 UNL     1      53.243  36.535  46.633  1.00  0.00     0.157 HD
ENDBRANCH   5  10
BRANCH   8  13
HETATM   13  N4  UNL     1      57.134  39.022  43.877  1.00  0.00    -0.379 N 
ATOM     14  H42 UNL     1      56.823  39.823  43.329  1.00  0.00     0.158 HD
ATOM     15  H41 UNL     1      57.913  38.435  43.582  1.00  0.00     0.158 HD
ENDBRANCH   8  13
BRANCH   9  16
HETATM   16  N6  UNL     1      57.433  40.842  45.808  1.00  0.00    -0.321 N 
ATOM     17  H62 UNL     1      57.075  41.727  45.450  1.00  0.00     0.179 HD
ATOM     18  H61 UNL     1      58.419  40.807  46.064  1.00  0.00     0.179 HD
ENDBRANCH   9  16
TORSDOF 3
ENDMDL
