MODEL 1
REMARK VINA RESULT: -5.321202834      0.000      0.000
REMARK  5 active torsions:
REMARK  status: ('A' for Active; 'I' for Inactive)
REMARK    1  A    between atoms: N1_1  and  C1_5 
REMARK    2  A    between atoms: C1_5  and  C2_6 
REMARK    3  A    between atoms: C2_6  and  N2_7 
REMARK    4  A    between atoms: N2_7  and  N3_9 
REMARK    5  A    between atoms: N3_9  and  C3_11 
ROOT
HETATM    1  N3  UNL     1       8.717  35.487  11.315  1.00  0.00    -0.135 N 
ATOM      2  H3  UNL     1       9.613  35.749  11.728  1.00  0.00     0.205 HD
ENDROOT
BRANCH   1   3
HETATM    3  N2  UNL     1       7.642  36.379  11.311  1.00  0.00    -0.321 N 
ATOM      4  H2  UNL     1       7.140  36.548  12.183  1.00  0.00     0.180 HD
BRANCH   3   5
HETATM    5  C2  UNL     1       7.216  37.072  10.117  1.00  0.00     0.167 C 
BRANCH   5   6
HETATM    6  C1  UNL     1       5.841  37.659  10.340  1.00  0.00     0.250 C 
BRANCH   6   7
HETATM    7  N1  UNL     1       5.536  38.582   9.248  1.00  0.00    -0.078 N 
ATOM      8  H13 UNL     1       4.533  38.714   9.119  1.00  0.00     0.274 HD
ATOM      9  H12 UNL     1       5.778  39.546   9.476  1.00  0.00     0.274 HD
ATOM     10  H11 UNL     1       5.998  38.256   8.399  1.00  0.00     0.274 HD
ENDBRANCH   6   7
ENDBRANCH   5   6
ENDBRANCH   3   5
ENDBRANCH   1   3
BRANCH   1  11
HETATM   11  C3  UNL     1       8.545  34.315  10.780  1.00  0.00     0.712 A 
HETATM   12  N4  UNL     1       7.681  33.339  11.183  1.00  0.00    -0.184 N 
HETATM   13  C4  UNL     1       7.820  32.291  10.359  1.00  0.00     0.215 A 
ATOM     14  H4  UNL     1       7.040  33.398  11.974  1.00  0.00     0.185 HD
HETATM   15  N5  UNL     1       8.755  32.589   9.447  1.00  0.00    -0.281 N 
HETATM   16  N6  UNL     1       9.172  33.793   9.713  1.00  0.00    -0.130 N 
ATOM     17  H5  UNL     1       9.079  31.987   8.689  1.00  0.00     0.188 HD
ATOM     18  H6  UNL     1       9.890  34.280   9.177  1.00  0.00     0.205 HD
ENDBRANCH   1  11
TORSDOF 5
ENDMDL
MODEL 2
REMARK VINA RESULT: -4.447645126      0.512      1.145
REMARK  5 active torsions:
REMARK  status: ('A' for Active; 'I' for Inactive)
REMARK    1  A    between atoms: N1_1  and  C1_5 
REMARK    2  A    between atoms: C1_5  and  C2_6 
REMARK    3  A    between atoms: C2_6  and  N2_7 
REMARK    4  A    between atoms: N2_7  and  N3_9 
REMARK    5  A    between atoms: N3_9  and  C3_11 
ROOT
HETATM    1  N3  UNL     1       8.765  35.525  11.315  1.00  0.00    -0.135 N 
ATOM      2  H3  UNL     1       9.693  35.808  11.633  1.00  0.00     0.205 HD
ENDROOT
BRANCH   1   3
HETATM    3  N2  UNL     1       7.701  36.430  11.314  1.00  0.00    -0.321 N 
ATOM      4  H2  UNL     1       7.257  36.666  12.200  1.00  0.00     0.180 HD
BRANCH   3   5
HETATM    5  C2  UNL     1       7.209  37.043  10.102  1.00  0.00     0.167 C 
BRANCH   5   6
HETATM    6  C1  UNL     1       5.861  37.674  10.370  1.00  0.00     0.250 C 
BRANCH   6   7
HETATM    7  N1  UNL     1       5.524  38.563   9.259  1.00  0.00    -0.078 N 
ATOM      8  H13 UNL     1       4.565  38.436   8.938  1.00  0.00     0.274 HD
ATOM      9  H12 UNL     1       5.449  39.537   9.551  1.00  0.00     0.274 HD
ATOM     10  H11 UNL     1       6.206  38.432   8.512  1.00  0.00     0.274 HD
ENDBRANCH   6   7
ENDBRANCH   5   6
ENDBRANCH   3   5
ENDBRANCH   1   3
BRANCH   1  11
HETATM   11  C3  UNL     1       8.542  34.312  10.902  1.00  0.00     0.712 A 
HETATM   12  N4  UNL     1       9.143  33.670   9.859  1.00  0.00    -0.184 N 
HETATM   13  C4  UNL     1       8.626  32.437   9.772  1.00  0.00     0.215 A 
ATOM     14  H4  UNL     1       9.863  34.061   9.251  1.00  0.00     0.185 HD
HETATM   15  N5  UNL     1       7.710  32.292  10.741  1.00  0.00    -0.281 N 
HETATM   16  N6  UNL     1       7.676  33.415  11.399  1.00  0.00    -0.130 N 
ATOM     17  H5  UNL     1       7.148  31.462  10.927  1.00  0.00     0.188 HD
ATOM     18  H6  UNL     1       7.065  33.591  12.196  1.00  0.00     0.205 HD
ENDBRANCH   1  11
TORSDOF 5
ENDMDL
MODEL 3
REMARK VINA RESULT: -4.057193707      0.899      1.030
REMARK  5 active torsions:
REMARK  status: ('A' for Active; 'I' for Inactive)
REMARK    1  A    between atoms: N1_1  and  C1_5 
REMARK    2  A    between atoms: C1_5  and  C2_6 
REMARK    3  A    between atoms: C2_6  and  N2_7 
REMARK    4  A    between atoms: N2_7  and  N3_9 
REMARK    5  A    between atoms: N3_9  and  C3_11 
ROOT
HETATM    1  N3  UNL     1       9.416  34.877  10.252  1.00  0.00    -0.135 N 
ATOM      2  H3  UNL     1      10.375  34.944   9.912  1.00  0.00     0.205 HD
ENDROOT
BRANCH   1   3
HETATM    3  N2  UNL     1       8.747  36.004  10.736  1.00  0.00    -0.321 N 
ATOM      4  H2  UNL     1       9.022  36.388  11.640  1.00  0.00     0.180 HD
BRANCH   3   5
HETATM    5  C2  UNL     1       7.681  36.646  10.001  1.00  0.00     0.167 C 
BRANCH   5   6
HETATM    6  C1  UNL     1       6.617  37.115  10.967  1.00  0.00     0.250 C 
BRANCH   6   7
HETATM    7  N1  UNL     1       5.558  37.787  10.217  1.00  0.00    -0.078 N 
ATOM      8  H13 UNL     1       5.849  38.699   9.866  1.00  0.00     0.274 HD
ATOM      9  H12 UNL     1       5.375  37.341   9.318  1.00  0.00     0.274 HD
ATOM     10  H11 UNL     1       4.722  37.843  10.800  1.00  0.00     0.274 HD
ENDBRANCH   6   7
ENDBRANCH   5   6
ENDBRANCH   3   5
ENDBRANCH   1   3
BRANCH   1  11
HETATM   11  C3  UNL     1       8.783  33.741  10.249  1.00  0.00     0.712 A 
HETATM   12  N4  UNL     1       7.975  33.241  11.226  1.00  0.00    -0.184 N 
HETATM   13  C4  UNL     1       7.523  32.044  10.825  1.00  0.00     0.215 A 
ATOM     14  H4  UNL     1       7.751  33.699  12.110  1.00  0.00     0.185 HD
HETATM   15  N5  UNL     1       8.034  31.783   9.614  1.00  0.00    -0.281 N 
HETATM   16  N6  UNL     1       8.777  32.801   9.290  1.00  0.00    -0.130 N 
ATOM     17  H5  UNL     1       7.871  30.947   9.052  1.00  0.00     0.188 HD
ATOM     18  H6  UNL     1       9.294  32.876   8.413  1.00  0.00     0.205 HD
ENDBRANCH   1  11
TORSDOF 5
ENDMDL
MODEL 4
REMARK VINA RESULT: -3.997986060      3.514      4.604
REMARK  5 active torsions:
REMARK  status: ('A' for Active; 'I' for Inactive)
REMARK    1  A    between atoms: N1_1  and  C1_5 
REMARK    2  A    between atoms: C1_5  and  C2_6 
REMARK    3  A    between atoms: C2_6  and  N2_7 
REMARK    4  A    between atoms: N2_7  and  N3_9 
REMARK    5  A    between atoms: N3_9  and  C3_11 
ROOT
HETATM    1  N3  UNL     1      10.381  35.953   9.467  1.00  0.00    -0.135 N 
ATOM      2  H3  UNL     1      10.104  36.281   8.541  1.00  0.00     0.205 HD
ENDROOT
BRANCH   1   3
HETATM    3  N2  UNL     1      11.619  36.303  10.011  1.00  0.00    -0.321 N 
ATOM      4  H2  UNL     1      11.934  35.830  10.857  1.00  0.00     0.180 HD
BRANCH   3   5
HETATM    5  C2  UNL     1      12.468  37.310   9.417  1.00  0.00     0.167 C 
BRANCH   5   6
HETATM    6  C1  UNL     1      13.775  37.374  10.174  1.00  0.00     0.250 C 
BRANCH   6   7
HETATM    7  N1  UNL     1      13.985  38.743  10.643  1.00  0.00    -0.078 N 
ATOM      8  H13 UNL     1      13.118  39.277  10.685  1.00  0.00     0.274 HD
ATOM      9  H12 UNL     1      14.224  38.781  11.633  1.00  0.00     0.274 HD
ATOM     10  H11 UNL     1      14.690  39.190  10.056  1.00  0.00     0.274 HD
ENDBRANCH   6   7
ENDBRANCH   5   6
ENDBRANCH   3   5
ENDBRANCH   1   3
BRANCH   1  11
HETATM   11  C3  UNL     1       9.590  35.199  10.172  1.00  0.00     0.712 A 
HETATM   12  N4  UNL     1       9.243  33.904   9.924  1.00  0.00    -0.184 N 
HETATM   13  C4  UNL     1       8.410  33.500  10.893  1.00  0.00     0.215 A 
ATOM     14  H4  UNL     1       9.562  33.340   9.136  1.00  0.00     0.185 HD
HETATM   15  N5  UNL     1       8.227  34.518  11.745  1.00  0.00    -0.281 N 
HETATM   16  N6  UNL     1       8.935  35.515  11.301  1.00  0.00    -0.130 N 
ATOM     17  H5  UNL     1       7.644  34.512  12.583  1.00  0.00     0.188 HD
ATOM     18  H6  UNL     1       8.986  36.427  11.755  1.00  0.00     0.205 HD
ENDBRANCH   1  11
TORSDOF 5
ENDMDL
MODEL 5
REMARK VINA RESULT: -3.478877832      1.363      4.428
REMARK  5 active torsions:
REMARK  status: ('A' for Active; 'I' for Inactive)
REMARK    1  A    between atoms: N1_1  and  C1_5 
REMARK    2  A    between atoms: C1_5  and  C2_6 
REMARK    3  A    between atoms: C2_6  and  N2_7 
REMARK    4  A    between atoms: N2_7  and  N3_9 
REMARK    5  A    between atoms: N3_9  and  C3_11 
ROOT
HETATM    1  N3  UNL     1       8.953  35.774  10.959  1.00  0.00    -0.135 N 
ATOM      2  H3  UNL     1       9.508  35.790  11.815  1.00  0.00     0.205 HD
ENDROOT
BRANCH   1   3
HETATM    3  N2  UNL     1       9.373  35.039   9.848  1.00  0.00    -0.321 N 
ATOM      4  H2  UNL     1       9.996  35.483   9.173  1.00  0.00     0.180 HD
BRANCH   3   5
HETATM    5  C2  UNL     1       8.956  33.676   9.619  1.00  0.00     0.167 C 
BRANCH   5   6
HETATM    6  C1  UNL     1       8.561  33.043  10.934  1.00  0.00     0.250 C 
BRANCH   6   7
HETATM    7  N1  UNL     1       7.147  32.676  10.879  1.00  0.00    -0.078 N 
ATOM      8  H13 UNL     1       7.008  31.710  10.584  1.00  0.00     0.274 HD
ATOM      9  H12 UNL     1       6.728  32.604  11.805  1.00  0.00     0.274 HD
ATOM     10  H11 UNL     1       6.655  33.340  10.280  1.00  0.00     0.274 HD
ENDBRANCH   6   7
ENDBRANCH   5   6
ENDBRANCH   3   5
ENDBRANCH   1   3
BRANCH   1  11
HETATM   11  C3  UNL     1       7.838  36.436  10.874  1.00  0.00     0.712 A 
HETATM   12  N4  UNL     1       7.396  37.181   9.820  1.00  0.00    -0.184 N 
HETATM   13  C4  UNL     1       6.200  37.694  10.141  1.00  0.00     0.215 A 
ATOM     14  H4  UNL     1       7.890  37.322   8.939  1.00  0.00     0.185 HD
HETATM   15  N5  UNL     1       5.883  37.287  11.378  1.00  0.00    -0.281 N 
HETATM   16  N6  UNL     1       6.866  36.542  11.794  1.00  0.00    -0.130 N 
ATOM     17  H5  UNL     1       5.033  37.516  11.895  1.00  0.00     0.188 HD
ATOM     18  H6  UNL     1       6.894  36.093  12.710  1.00  0.00     0.205 HD
ENDBRANCH   1  11
TORSDOF 5
ENDMDL
