MODEL 1
REMARK VINA RESULT: -8.482716569      0.000      0.000
REMARK  6 active torsions:
REMARK  status: ('A' for Active; 'I' for Inactive)
REMARK    1  A    between atoms: C2_2  and  C3_3 
REMARK    2  A    between atoms: C3_3  and  N1_4 
REMARK       I    between atoms: C4_6  and  N2_7 
REMARK       I    between atoms: C4_6  and  N4_11 
REMARK    3  A    between atoms: N4_11  and  N5_13 
REMARK    4  A    between atoms: N6_19  and  C10_20 
REMARK    5  A    between atoms: C10_20  and  C11_21 
REMARK    6  A    between atoms: C11_21  and  C12_22 
ROOT
HETATM    1  N1  UNL     1      50.425  58.268  21.560  1.00  0.00    -0.224 N 
ATOM      2  H1  UNL     1      50.708  59.247  21.518  1.00  0.00     0.177 HD
HETATM    3  C4  UNL     1      51.287  57.410  21.167  1.00  0.00     0.701 C 
HETATM    4  N2  UNL     1      52.538  57.945  20.716  1.00  0.00    -0.125 N 
ATOM      5  H2  UNL     1      52.548  58.514  19.870  1.00  0.00     0.197 HD
HETATM    6  C5  UNL     1      53.744  57.725  21.381  1.00  0.00     0.196 C 
HETATM    7  N3  UNL     1      54.746  57.557  21.954  1.00  0.00    -0.171 NA
HETATM    8  N4  UNL     1      51.111  56.005  21.136  1.00  0.00    -0.132 N 
ATOM      9  H4  UNL     1      50.470  55.602  21.819  1.00  0.00     0.205 HD
ENDROOT
BRANCH   1  10
HETATM   10  C3  UNL     1      49.104  58.007  22.055  1.00  0.00     0.138 C 
BRANCH  10  11
HETATM   11  C2  UNL     1      48.108  58.165  20.919  1.00  0.00     0.016 C 
HETATM   12  C1  UNL     1      47.735  56.848  20.310  1.00  0.00     0.006 C 
ENDBRANCH  10  11
ENDBRANCH   1  10
BRANCH   8  13
HETATM   13  N5  UNL     1      51.735  55.132  20.259  1.00  0.00    -0.293 N 
HETATM   14  C6  UNL     1      51.920  53.870  20.547  1.00  0.00     0.032 C 
HETATM   15  C7  UNL     1      51.412  53.443  21.881  1.00  0.00     0.057 C 
HETATM   16  C17 UNL     1      52.573  52.961  19.617  1.00  0.00     0.326 C 
HETATM   17  C8  UNL     1      50.699  52.108  21.612  1.00  0.00     0.036 C 
HETATM   18  C9  UNL     1      51.774  51.220  21.043  1.00  0.00     0.273 C 
HETATM   19  N6  UNL     1      52.127  51.573  19.685  1.00  0.00     0.093 N 
ATOM     20  H5  UNL     1      52.060  55.485  19.359  1.00  0.00     0.186 HD
BRANCH  19  21
HETATM   21  C10 UNL     1      51.097  51.292  18.744  1.00  0.00     0.273 C 
BRANCH  21  22
HETATM   22  C11 UNL     1      50.418  49.997  18.968  1.00  0.00     0.034 C 
BRANCH  22  23
HETATM   23  C12 UNL     1      49.165  49.752  18.207  1.00  0.00    -0.013 C 
HETATM   24  C13 UNL     1      48.508  51.028  17.722  1.00  0.00     0.005 C 
HETATM   25  C14 UNL     1      47.115  50.582  17.335  1.00  0.00     0.000 C 
HETATM   26  C15 UNL     1      46.952  49.156  17.827  1.00  0.00     0.000 C 
HETATM   27  C16 UNL     1      48.040  49.086  18.935  1.00  0.00     0.005 C 
ENDBRANCH  22  23
ENDBRANCH  21  22
ENDBRANCH  19  21
ENDBRANCH   8  13
TORSDOF 6
ENDMDL
MODEL 2
REMARK VINA RESULT: -8.239569230      0.724      1.061
REMARK  6 active torsions:
REMARK  status: ('A' for Active; 'I' for Inactive)
REMARK    1  A    between atoms: C2_2  and  C3_3 
REMARK    2  A    between atoms: C3_3  and  N1_4 
REMARK       I    between atoms: C4_6  and  N2_7 
REMARK       I    between atoms: C4_6  and  N4_11 
REMARK    3  A    between atoms: N4_11  and  N5_13 
REMARK    4  A    between atoms: N6_19  and  C10_20 
REMARK    5  A    between atoms: C10_20  and  C11_21 
REMARK    6  A    between atoms: C11_21  and  C12_22 
ROOT
HETATM    1  N1  UNL     1      50.300  58.228  21.526  1.00  0.00    -0.224 N 
ATOM      2  H1  UNL     1      50.619  59.197  21.491  1.00  0.00     0.177 HD
HETATM    3  C4  UNL     1      51.135  57.341  21.141  1.00  0.00     0.701 C 
HETATM    4  N2  UNL     1      52.411  57.832  20.710  1.00  0.00    -0.125 N 
ATOM      5  H2  UNL     1      52.452  58.403  19.866  1.00  0.00     0.197 HD
HETATM    6  C5  UNL     1      53.599  57.566  21.390  1.00  0.00     0.196 C 
HETATM    7  N3  UNL     1      54.586  57.359  21.975  1.00  0.00    -0.171 NA
HETATM    8  N4  UNL     1      50.908  55.944  21.103  1.00  0.00    -0.132 N 
ATOM      9  H4  UNL     1      50.244  55.562  21.775  1.00  0.00     0.205 HD
ENDROOT
BRANCH   1  10
HETATM   10  C3  UNL     1      48.963  58.014  22.002  1.00  0.00     0.138 C 
BRANCH  10  11
HETATM   11  C2  UNL     1      47.994  58.145  20.839  1.00  0.00     0.016 C 
HETATM   12  C1  UNL     1      47.629  56.814  20.258  1.00  0.00     0.006 C 
ENDBRANCH  10  11
ENDBRANCH   1  10
BRANCH   8  13
HETATM   13  N5  UNL     1      51.512  55.051  20.231  1.00  0.00    -0.293 N 
HETATM   14  C6  UNL     1      51.848  53.841  20.595  1.00  0.00     0.032 C 
HETATM   15  C7  UNL     1      51.535  53.495  22.010  1.00  0.00     0.057 C 
HETATM   16  C17 UNL     1      52.478  52.911  19.671  1.00  0.00     0.326 C 
HETATM   17  C8  UNL     1      50.927  52.085  21.936  1.00  0.00     0.036 C 
HETATM   18  C9  UNL     1      52.013  51.245  21.316  1.00  0.00     0.273 C 
HETATM   19  N6  UNL     1      52.177  51.502  19.902  1.00  0.00     0.093 N 
ATOM     20  H5  UNL     1      51.700  55.347  19.274  1.00  0.00     0.186 HD
BRANCH  19  21
HETATM   21  C10 UNL     1      51.082  51.049  19.115  1.00  0.00     0.273 C 
BRANCH  21  22
HETATM   22  C11 UNL     1      50.756  51.934  17.975  1.00  0.00     0.034 C 
BRANCH  22  23
HETATM   23  C12 UNL     1      49.419  51.763  17.349  1.00  0.00    -0.013 C 
HETATM   24  C13 UNL     1      48.534  52.983  17.499  1.00  0.00     0.005 C 
HETATM   25  C14 UNL     1      47.156  52.464  17.151  1.00  0.00     0.000 C 
HETATM   26  C15 UNL     1      47.262  50.953  17.053  1.00  0.00     0.000 C 
HETATM   27  C16 UNL     1      48.542  50.679  17.892  1.00  0.00     0.005 C 
ENDBRANCH  22  23
ENDBRANCH  21  22
ENDBRANCH  19  21
ENDBRANCH   8  13
TORSDOF 6
ENDMDL
MODEL 3
REMARK VINA RESULT: -8.188384446      1.739      7.071
REMARK  6 active torsions:
REMARK  status: ('A' for Active; 'I' for Inactive)
REMARK    1  A    between atoms: C2_2  and  C3_3 
REMARK    2  A    between atoms: C3_3  and  N1_4 
REMARK       I    between atoms: C4_6  and  N2_7 
REMARK       I    between atoms: C4_6  and  N4_11 
REMARK    3  A    between atoms: N4_11  and  N5_13 
REMARK    4  A    between atoms: N6_19  and  C10_20 
REMARK    5  A    between atoms: C10_20  and  C11_21 
REMARK    6  A    between atoms: C11_21  and  C12_22 
ROOT
HETATM    1  N1  UNL     1      49.660  49.129  18.558  1.00  0.00    -0.224 N 
ATOM      2  H1  UNL     1      49.897  48.136  18.562  1.00  0.00     0.177 HD
HETATM    3  C4  UNL     1      50.352  49.881  19.325  1.00  0.00     0.701 C 
HETATM    4  N2  UNL     1      51.371  49.223  20.090  1.00  0.00    -0.125 N 
ATOM      5  H2  UNL     1      51.085  48.558  20.809  1.00  0.00     0.197 HD
HETATM    6  C5  UNL     1      52.733  49.448  19.898  1.00  0.00     0.196 C 
HETATM    7  N3  UNL     1      53.872  49.624  19.718  1.00  0.00    -0.171 NA
HETATM    8  N4  UNL     1      50.199  51.280  19.480  1.00  0.00    -0.132 N 
ATOM      9  H4  UNL     1      49.832  51.799  18.682  1.00  0.00     0.205 HD
ENDROOT
BRANCH   1  10
HETATM   10  C3  UNL     1      48.587  49.524  17.692  1.00  0.00     0.138 C 
BRANCH  10  11
HETATM   11  C2  UNL     1      47.264  49.132  18.328  1.00  0.00     0.016 C 
HETATM   12  C1  UNL     1      46.093  49.538  17.487  1.00  0.00     0.006 C 
ENDBRANCH  10  11
ENDBRANCH   1  10
BRANCH   8  13
HETATM   13  N5  UNL     1      50.505  52.005  20.621  1.00  0.00    -0.293 N 
HETATM   14  C6  UNL     1      51.308  53.036  20.597  1.00  0.00     0.032 C 
HETATM   15  C7  UNL     1      51.868  53.373  19.257  1.00  0.00     0.057 C 
HETATM   16  C17 UNL     1      51.620  53.792  21.800  1.00  0.00     0.326 C 
HETATM   17  C8  UNL     1      51.738  54.902  19.160  1.00  0.00     0.036 C 
HETATM   18  C9  UNL     1      52.549  55.417  20.320  1.00  0.00     0.273 C 
HETATM   19  N6  UNL     1      51.894  55.210  21.593  1.00  0.00     0.093 N 
ATOM     20  H5  UNL     1      50.089  51.725  21.509  1.00  0.00     0.186 HD
BRANCH  19  21
HETATM   21  C10 UNL     1      50.734  56.015  21.768  1.00  0.00     0.273 C 
BRANCH  21  22
HETATM   22  C11 UNL     1      50.821  57.341  21.119  1.00  0.00     0.034 C 
BRANCH  22  23
HETATM   23  C12 UNL     1      49.586  57.858  20.472  1.00  0.00    -0.013 C 
HETATM   24  C13 UNL     1      48.386  57.848  21.396  1.00  0.00     0.005 C 
HETATM   25  C14 UNL     1      47.216  58.035  20.456  1.00  0.00     0.000 C 
HETATM   26  C15 UNL     1      47.755  57.904  19.044  1.00  0.00     0.000 C 
HETATM   27  C16 UNL     1      49.067  57.106  19.288  1.00  0.00     0.005 C 
ENDBRANCH  22  23
ENDBRANCH  21  22
ENDBRANCH  19  21
ENDBRANCH   8  13
TORSDOF 6
ENDMDL
MODEL 4
REMARK VINA RESULT: -8.078582611      3.139      8.393
REMARK  6 active torsions:
REMARK  status: ('A' for Active; 'I' for Inactive)
REMARK    1  A    between atoms: C2_2  and  C3_3 
REMARK    2  A    between atoms: C3_3  and  N1_4 
REMARK       I    between atoms: C4_6  and  N2_7 
REMARK       I    between atoms: C4_6  and  N4_11 
REMARK    3  A    between atoms: N4_11  and  N5_13 
REMARK    4  A    between atoms: N6_19  and  C10_20 
REMARK    5  A    between atoms: C10_20  and  C11_21 
REMARK    6  A    between atoms: C11_21  and  C12_22 
ROOT
HETATM    1  N1  UNL     1      47.060  47.423  17.247  1.00  0.00    -0.224 N 
ATOM      2  H1  UNL     1      47.219  46.654  16.596  1.00  0.00     0.177 HD
HETATM    3  C4  UNL     1      47.964  48.325  17.292  1.00  0.00     0.701 C 
HETATM    4  N2  UNL     1      49.083  48.130  16.417  1.00  0.00    -0.125 N 
ATOM      5  H2  UNL     1      49.702  47.339  16.589  1.00  0.00     0.197 HD
HETATM    6  C5  UNL     1      49.365  48.972  15.342  1.00  0.00     0.196 C 
HETATM    7  N3  UNL     1      49.583  49.666  14.431  1.00  0.00    -0.171 NA
HETATM    8  N4  UNL     1      47.953  49.476  18.118  1.00  0.00    -0.132 N 
ATOM      9  H4  UNL     1      47.042  49.848  18.385  1.00  0.00     0.205 HD
ENDROOT
BRANCH   1  10
HETATM   10  C3  UNL     1      45.846  47.371  18.011  1.00  0.00     0.138 C 
BRANCH  10  11
HETATM   11  C2  UNL     1      44.763  48.141  17.275  1.00  0.00     0.016 C 
HETATM   12  C1  UNL     1      44.691  47.765  15.826  1.00  0.00     0.006 C 
ENDBRANCH  10  11
ENDBRANCH   1  10
BRANCH   8  13
HETATM   13  N5  UNL     1      49.074  50.139  18.594  1.00  0.00    -0.293 N 
HETATM   14  C6  UNL     1      49.353  51.369  18.251  1.00  0.00     0.032 C 
HETATM   15  C7  UNL     1      48.383  52.002  17.315  1.00  0.00     0.057 C 
HETATM   16  C17 UNL     1      50.531  52.056  18.760  1.00  0.00     0.326 C 
HETATM   17  C8  UNL     1      48.160  53.411  17.887  1.00  0.00     0.036 C 
HETATM   18  C9  UNL     1      49.531  54.036  17.879  1.00  0.00     0.273 C 
HETATM   19  N6  UNL     1      50.393  53.501  18.910  1.00  0.00     0.093 N 
ATOM     20  H5  UNL     1      49.701  49.651  19.234  1.00  0.00     0.186 HD
BRANCH  19  21
HETATM   21  C10 UNL     1      49.997  53.871  20.225  1.00  0.00     0.273 C 
BRANCH  21  22
HETATM   22  C11 UNL     1      50.597  55.139  20.697  1.00  0.00     0.034 C 
BRANCH  22  23
HETATM   23  C12 UNL     1      49.669  56.161  21.248  1.00  0.00    -0.013 C 
HETATM   24  C13 UNL     1      48.527  56.490  20.310  1.00  0.00     0.005 C 
HETATM   25  C14 UNL     1      47.961  57.772  20.880  1.00  0.00     0.000 C 
HETATM   26  C15 UNL     1      48.926  58.246  21.951  1.00  0.00     0.000 C 
HETATM   27  C16 UNL     1      50.234  57.517  21.532  1.00  0.00     0.005 C 
ENDBRANCH  22  23
ENDBRANCH  21  22
ENDBRANCH  19  21
ENDBRANCH   8  13
TORSDOF 6
ENDMDL
MODEL 5
REMARK VINA RESULT: -8.035872039      1.880      6.626
REMARK  6 active torsions:
REMARK  status: ('A' for Active; 'I' for Inactive)
REMARK    1  A    between atoms: C2_2  and  C3_3 
REMARK    2  A    between atoms: C3_3  and  N1_4 
REMARK       I    between atoms: C4_6  and  N2_7 
REMARK       I    between atoms: C4_6  and  N4_11 
REMARK    3  A    between atoms: N4_11  and  N5_13 
REMARK    4  A    between atoms: N6_19  and  C10_20 
REMARK    5  A    between atoms: C10_20  and  C11_21 
REMARK    6  A    between atoms: C11_21  and  C12_22 
ROOT
HETATM    1  N1  UNL     1      49.704  50.849  17.730  1.00  0.00    -0.224 N 
ATOM      2  H1  UNL     1      49.770  49.835  17.817  1.00  0.00     0.177 HD
HETATM    3  C4  UNL     1      50.077  51.531  18.744  1.00  0.00     0.701 C 
HETATM    4  N2  UNL     1      50.538  50.773  19.870  1.00  0.00    -0.125 N 
ATOM      5  H2  UNL     1      49.869  50.185  20.367  1.00  0.00     0.197 HD
HETATM    6  C5  UNL     1      51.858  50.802  20.318  1.00  0.00     0.196 C 
HETATM    7  N3  UNL     1      52.968  50.812  20.676  1.00  0.00    -0.171 NA
HETATM    8  N4  UNL     1      50.070  52.944  18.846  1.00  0.00    -0.132 N 
ATOM      9  H4  UNL     1      50.178  53.473  17.982  1.00  0.00     0.205 HD
ENDROOT
BRANCH   1  10
HETATM   10  C3  UNL     1      49.203  51.350  16.483  1.00  0.00     0.138 C 
BRANCH  10  11
HETATM   11  C2  UNL     1      47.752  51.763  16.660  1.00  0.00     0.016 C 
HETATM   12  C1  UNL     1      47.544  53.221  16.382  1.00  0.00     0.006 C 
ENDBRANCH  10  11
ENDBRANCH   1  10
BRANCH   8  13
HETATM   13  N5  UNL     1      49.929  53.668  20.020  1.00  0.00    -0.293 N 
HETATM   14  C6  UNL     1      50.817  54.546  20.407  1.00  0.00     0.032 C 
HETATM   15  C7  UNL     1      51.986  54.710  19.497  1.00  0.00     0.057 C 
HETATM   16  C17 UNL     1      50.658  55.304  21.639  1.00  0.00     0.326 C 
HETATM   17  C8  UNL     1      52.186  56.231  19.398  1.00  0.00     0.036 C 
HETATM   18  C9  UNL     1      52.438  56.665  20.817  1.00  0.00     0.273 C 
HETATM   19  N6  UNL     1      51.241  56.641  21.628  1.00  0.00     0.093 N 
ATOM     20  H5  UNL     1      49.106  53.511  20.601  1.00  0.00     0.186 HD
BRANCH  19  21
HETATM   21  C10 UNL     1      50.293  57.639  21.264  1.00  0.00     0.273 C 
BRANCH  21  22
HETATM   22  C11 UNL     1      48.897  57.150  21.218  1.00  0.00     0.034 C 
BRANCH  22  23
HETATM   23  C12 UNL     1      48.087  57.535  20.032  1.00  0.00    -0.013 C 
HETATM   24  C13 UNL     1      48.484  56.788  18.776  1.00  0.00     0.005 C 
HETATM   25  C14 UNL     1      47.829  57.584  17.670  1.00  0.00     0.000 C 
HETATM   26  C15 UNL     1      47.298  58.860  18.296  1.00  0.00     0.000 C 
HETATM   27  C16 UNL     1      48.168  58.959  19.580  1.00  0.00     0.005 C 
ENDBRANCH  22  23
ENDBRANCH  21  22
ENDBRANCH  19  21
ENDBRANCH   8  13
TORSDOF 6
ENDMDL
