MODEL 1
REMARK VINA RESULT: -7.459247562      0.000      0.000
REMARK  6 active torsions:
REMARK  status: ('A' for Active; 'I' for Inactive)
REMARK    1  A    between atoms: C2_2  and  S1_3 
REMARK    2  A    between atoms: S1_3  and  C3_4 
REMARK    3  A    between atoms: C3_4  and  C5_6 
REMARK       I    between atoms: C5_6  and  N1_8 
REMARK    4  A    between atoms: N1_8  and  C6_10 
REMARK    5  A    between atoms: C7_15  and  S2_16 
REMARK    6  A    between atoms: S2_16  and  N4_19 
REMARK       I    between atoms: N4_19  and  C8_21 
ROOT
HETATM    1  C6  UNL     1       2.334  -0.320  22.126  1.00  0.00     0.168 A 
HETATM    2  N2  UNL     1       2.418  -1.519  21.514  1.00  0.00    -0.278 N 
ATOM      3  H2  UNL     1       3.165  -1.719  20.849  1.00  0.00     0.189 HD
HETATM    4  N3  UNL     1       1.541  -2.389  21.790  1.00  0.00    -0.281 N 
ATOM      5  H3  UNL     1       1.594  -3.300  21.334  1.00  0.00     0.188 HD
HETATM    6  C7  UNL     1       0.573  -2.166  22.633  1.00  0.00     0.209 A 
HETATM    7  S3  UNL     1       0.944  -0.535  23.095  1.00  0.00    -0.020 SA
ENDROOT
BRANCH   1   8
HETATM    8  N1  UNL     1       3.124   0.691  21.971  1.00  0.00    -0.305 N 
HETATM    9  C5  UNL     1       3.560   1.452  23.089  1.00  0.00     0.237 C 
HETATM   10  O1  UNL     1       3.816   0.900  24.198  1.00  0.00    -0.272 OA
ATOM     11  H1  UNL     1       3.438   0.946  21.035  1.00  0.00     0.171 HD
BRANCH   9  12
HETATM   12  C3  UNL     1       3.736   2.927  23.014  1.00  0.00     0.135 C 
HETATM   13  C4  UNL     1       4.318   3.410  24.320  1.00  0.00     0.031 C 
BRANCH  12  14
HETATM   14  S1  UNL     1       4.646   3.481  21.573  1.00  0.00    -0.155 SA
BRANCH  14  15
HETATM   15  C2  UNL     1       3.470   4.166  20.378  1.00  0.00     0.070 C 
HETATM   16  C1  UNL     1       2.716   3.018  19.763  1.00  0.00     0.016 C 
ENDBRANCH  14  15
ENDBRANCH  12  14
ENDBRANCH   9  12
ENDBRANCH   1   8
BRANCH   6  17
HETATM   17  S2  UNL     1      -0.788  -3.148  23.149  1.00  0.00     0.289 S 
HETATM   18  O2  UNL     1      -0.318  -4.103  24.219  1.00  0.00    -0.198 OA
HETATM   19  O3  UNL     1      -1.844  -2.224  23.666  1.00  0.00    -0.198 OA
BRANCH  17  20
HETATM   20  N4  UNL     1      -1.307  -4.084  21.805  1.00  0.00    -0.249 N 
HETATM   21  C8  UNL     1      -1.633  -3.400  20.616  1.00  0.00     0.227 C 
HETATM   22  C9  UNL     1      -2.094  -4.189  19.441  1.00  0.00     0.118 C 
HETATM   23  O4  UNL     1      -1.540  -2.165  20.544  1.00  0.00    -0.273 OA
ATOM     24  H4  UNL     1      -1.376  -5.101  21.865  1.00  0.00     0.182 HD
ENDBRANCH  17  20
ENDBRANCH   6  17
TORSDOF 6
ENDMDL
MODEL 2
REMARK VINA RESULT: -7.222825271      1.526      2.409
REMARK  6 active torsions:
REMARK  status: ('A' for Active; 'I' for Inactive)
REMARK    1  A    between atoms: C2_2  and  S1_3 
REMARK    2  A    between atoms: S1_3  and  C3_4 
REMARK    3  A    between atoms: C3_4  and  C5_6 
REMARK       I    between atoms: C5_6  and  N1_8 
REMARK    4  A    between atoms: N1_8  and  C6_10 
REMARK    5  A    between atoms: C7_15  and  S2_16 
REMARK    6  A    between atoms: S2_16  and  N4_19 
REMARK       I    between atoms: N4_19  and  C8_21 
ROOT
HETATM    1  C6  UNL     1       2.412  -0.045  21.746  1.00  0.00     0.168 A 
HETATM    2  N2  UNL     1       2.480  -1.130  20.947  1.00  0.00    -0.278 N 
ATOM      3  H2  UNL     1       3.325  -1.340  20.417  1.00  0.00     0.189 HD
HETATM    4  N3  UNL     1       1.462  -1.879  20.876  1.00  0.00    -0.281 N 
ATOM      5  H3  UNL     1       1.500  -2.703  20.276  1.00  0.00     0.188 HD
HETATM    6  C7  UNL     1       0.365  -1.638  21.540  1.00  0.00     0.209 A 
HETATM    7  S3  UNL     1       0.825  -0.183  22.365  1.00  0.00    -0.020 SA
ENDROOT
BRANCH   1   8
HETATM    8  N1  UNL     1       3.336   0.836  21.943  1.00  0.00    -0.305 N 
HETATM    9  C5  UNL     1       3.355   1.618  23.130  1.00  0.00     0.237 C 
HETATM   10  O1  UNL     1       3.017   1.125  24.245  1.00  0.00    -0.272 OA
ATOM     11  H1  UNL     1       4.061   0.973  21.238  1.00  0.00     0.171 HD
BRANCH   9  12
HETATM   12  C3  UNL     1       3.772   3.046  23.123  1.00  0.00     0.135 C 
HETATM   13  C4  UNL     1       4.453   3.355  24.434  1.00  0.00     0.031 C 
BRANCH  12  14
HETATM   14  S1  UNL     1       4.731   3.519  21.685  1.00  0.00    -0.155 SA
BRANCH  14  15
HETATM   15  C2  UNL     1       3.622   4.296  20.483  1.00  0.00     0.070 C 
HETATM   16  C1  UNL     1       2.824   3.205  19.819  1.00  0.00     0.016 C 
ENDBRANCH  14  15
ENDBRANCH  12  14
ENDBRANCH   9  12
ENDBRANCH   1   8
BRANCH   6  17
HETATM   17  S2  UNL     1      -1.187  -2.456  21.583  1.00  0.00     0.289 S 
HETATM   18  O2  UNL     1      -1.933  -2.147  20.306  1.00  0.00    -0.198 OA
HETATM   19  O3  UNL     1      -0.924  -3.921  21.721  1.00  0.00    -0.198 OA
BRANCH  17  20
HETATM   20  N4  UNL     1      -2.095  -1.804  22.888  1.00  0.00    -0.249 N 
HETATM   21  C8  UNL     1      -1.736  -2.193  24.195  1.00  0.00     0.227 C 
HETATM   22  C9  UNL     1      -2.514  -1.649  25.341  1.00  0.00     0.118 C 
HETATM   23  O4  UNL     1      -0.791  -2.973  24.392  1.00  0.00    -0.273 OA
ATOM     24  H4  UNL     1      -2.867  -1.158  22.723  1.00  0.00     0.182 HD
ENDBRANCH  17  20
ENDBRANCH   6  17
TORSDOF 6
ENDMDL
MODEL 3
REMARK VINA RESULT: -7.057024063      1.345      2.279
REMARK  6 active torsions:
REMARK  status: ('A' for Active; 'I' for Inactive)
REMARK    1  A    between atoms: C2_2  and  S1_3 
REMARK    2  A    between atoms: S1_3  and  C3_4 
REMARK    3  A    between atoms: C3_4  and  C5_6 
REMARK       I    between atoms: C5_6  and  N1_8 
REMARK    4  A    between atoms: N1_8  and  C6_10 
REMARK    5  A    between atoms: C7_15  and  S2_16 
REMARK    6  A    between atoms: S2_16  and  N4_19 
REMARK       I    between atoms: N4_19  and  C8_21 
ROOT
HETATM    1  C6  UNL     1       1.702   0.373  22.581  1.00  0.00     0.168 A 
HETATM    2  N2  UNL     1       1.754  -0.571  21.618  1.00  0.00    -0.278 N 
ATOM      3  H2  UNL     1       2.339  -0.448  20.792  1.00  0.00     0.189 HD
HETATM    4  N3  UNL     1       1.052  -1.613  21.771  1.00  0.00    -0.281 N 
ATOM      5  H3  UNL     1       1.083  -2.335  21.051  1.00  0.00     0.188 HD
HETATM    6  C7  UNL     1       0.292  -1.801  22.813  1.00  0.00     0.209 A 
HETATM    7  S3  UNL     1       0.605  -0.333  23.684  1.00  0.00    -0.020 SA
ENDROOT
BRANCH   1   8
HETATM    8  N1  UNL     1       2.334   1.500  22.601  1.00  0.00    -0.305 N 
HETATM    9  C5  UNL     1       2.810   2.089  21.398  1.00  0.00     0.237 C 
HETATM   10  O1  UNL     1       2.147   2.013  20.324  1.00  0.00    -0.272 OA
ATOM     11  H1  UNL     1       2.494   1.972  23.491  1.00  0.00     0.171 HD
BRANCH   9  12
HETATM   12  C3  UNL     1       4.103   2.823  21.342  1.00  0.00     0.135 C 
HETATM   13  C4  UNL     1       4.112   3.687  20.105  1.00  0.00     0.031 C 
BRANCH  12  14
HETATM   14  S1  UNL     1       4.503   3.713  22.845  1.00  0.00    -0.155 SA
BRANCH  14  15
HETATM   15  C2  UNL     1       4.371   2.570  24.243  1.00  0.00     0.070 C 
HETATM   16  C1  UNL     1       3.969   3.368  25.455  1.00  0.00     0.016 C 
ENDBRANCH  14  15
ENDBRANCH  12  14
ENDBRANCH   9  12
ENDBRANCH   1   8
BRANCH   6  17
HETATM   17  S2  UNL     1      -0.811  -3.096  23.247  1.00  0.00     0.289 S 
HETATM   18  O2  UNL     1      -0.123  -4.007  24.236  1.00  0.00    -0.198 OA
HETATM   19  O3  UNL     1      -2.034  -2.471  23.838  1.00  0.00    -0.198 OA
BRANCH  17  20
HETATM   20  N4  UNL     1      -1.136  -4.014  21.832  1.00  0.00    -0.249 N 
HETATM   21  C8  UNL     1      -1.680  -3.336  20.722  1.00  0.00     0.227 C 
HETATM   22  C9  UNL     1      -1.979  -4.112  19.487  1.00  0.00     0.118 C 
HETATM   23  O4  UNL     1      -1.908  -2.117  20.767  1.00  0.00    -0.273 OA
ATOM     24  H4  UNL     1      -0.941  -5.015  21.795  1.00  0.00     0.182 HD
ENDBRANCH  17  20
ENDBRANCH   6  17
TORSDOF 6
ENDMDL
MODEL 4
REMARK VINA RESULT: -6.998038153      3.412      4.519
REMARK  6 active torsions:
REMARK  status: ('A' for Active; 'I' for Inactive)
REMARK    1  A    between atoms: C2_2  and  S1_3 
REMARK    2  A    between atoms: S1_3  and  C3_4 
REMARK    3  A    between atoms: C3_4  and  C5_6 
REMARK       I    between atoms: C5_6  and  N1_8 
REMARK    4  A    between atoms: N1_8  and  C6_10 
REMARK    5  A    between atoms: C7_15  and  S2_16 
REMARK    6  A    between atoms: S2_16  and  N4_19 
REMARK       I    between atoms: N4_19  and  C8_21 
ROOT
HETATM    1  C6  UNL     1       1.804  -0.051  24.951  1.00  0.00     0.168 A 
HETATM    2  N2  UNL     1       0.731  -0.843  25.152  1.00  0.00    -0.278 N 
ATOM      3  H2  UNL     1       0.426  -1.085  26.095  1.00  0.00     0.189 HD
HETATM    4  N3  UNL     1       0.114  -1.278  24.136  1.00  0.00    -0.281 N 
ATOM      5  H3  UNL     1      -0.699  -1.877  24.275  1.00  0.00     0.188 HD
HETATM    6  C7  UNL     1       0.478  -0.989  22.918  1.00  0.00     0.209 A 
HETATM    7  S3  UNL     1       1.853   0.018  23.244  1.00  0.00    -0.020 SA
ENDROOT
BRANCH   1   8
HETATM    8  N1  UNL     1       2.561   0.480  25.853  1.00  0.00    -0.305 N 
HETATM    9  C5  UNL     1       2.062   1.490  26.720  1.00  0.00     0.237 C 
HETATM   10  O1  UNL     1       0.875   1.454  27.153  1.00  0.00    -0.272 OA
ATOM     11  H1  UNL     1       3.529   0.171  25.945  1.00  0.00     0.171 HD
BRANCH   9  12
HETATM   12  C3  UNL     1       2.906   2.634  27.158  1.00  0.00     0.135 C 
HETATM   13  C4  UNL     1       3.650   3.171  25.960  1.00  0.00     0.031 C 
BRANCH  12  14
HETATM   14  S1  UNL     1       2.014   3.890  28.074  1.00  0.00    -0.155 SA
BRANCH  14  15
HETATM   15  C2  UNL     1       3.162   4.687  29.225  1.00  0.00     0.070 C 
HETATM   16  C1  UNL     1       2.388   5.070  30.457  1.00  0.00     0.016 C 
ENDBRANCH  14  15
ENDBRANCH  12  14
ENDBRANCH   9  12
ENDBRANCH   1   8
BRANCH   6  17
HETATM   17  S2  UNL     1      -0.142  -1.491  21.354  1.00  0.00     0.289 S 
HETATM   18  O2  UNL     1      -1.206  -0.512  20.918  1.00  0.00    -0.198 OA
HETATM   19  O3  UNL     1       1.006  -1.514  20.397  1.00  0.00    -0.198 OA
BRANCH  17  20
HETATM   20  N4  UNL     1      -0.892  -3.025  21.548  1.00  0.00    -0.249 N 
HETATM   21  C8  UNL     1      -1.511  -3.599  20.419  1.00  0.00     0.227 C 
HETATM   22  C9  UNL     1      -2.176  -4.922  20.564  1.00  0.00     0.118 C 
HETATM   23  O4  UNL     1      -1.505  -3.017  19.323  1.00  0.00    -0.273 OA
ATOM     24  H4  UNL     1      -0.890  -3.503  22.449  1.00  0.00     0.182 HD
ENDBRANCH  17  20
ENDBRANCH   6  17
TORSDOF 6
ENDMDL
MODEL 5
REMARK VINA RESULT: -6.798668655      3.879      7.534
REMARK  6 active torsions:
REMARK  status: ('A' for Active; 'I' for Inactive)
REMARK    1  A    between atoms: C2_2  and  S1_3 
REMARK    2  A    between atoms: S1_3  and  C3_4 
REMARK    3  A    between atoms: C3_4  and  C5_6 
REMARK       I    between atoms: C5_6  and  N1_8 
REMARK    4  A    between atoms: N1_8  and  C6_10 
REMARK    5  A    between atoms: C7_15  and  S2_16 
REMARK    6  A    between atoms: S2_16  and  N4_19 
REMARK       I    between atoms: N4_19  and  C8_21 
ROOT
HETATM    1  C6  UNL     1       3.052   0.656  23.689  1.00  0.00     0.168 A 
HETATM    2  N2  UNL     1       3.702   1.833  23.580  1.00  0.00    -0.278 N 
ATOM      3  H2  UNL     1       4.192   2.085  22.722  1.00  0.00     0.189 HD
HETATM    4  N3  UNL     1       3.687   2.615  24.576  1.00  0.00    -0.281 N 
ATOM      5  H3  UNL     1       4.174   3.508  24.506  1.00  0.00     0.188 HD
HETATM    6  C7  UNL     1       3.072   2.322  25.687  1.00  0.00     0.209 A 
HETATM    7  S3  UNL     1       2.437   0.760  25.280  1.00  0.00    -0.020 SA
ENDROOT
BRANCH   1   8
HETATM    8  N1  UNL     1       2.961  -0.270  22.793  1.00  0.00    -0.305 N 
HETATM    9  C5  UNL     1       2.040  -0.153  21.716  1.00  0.00     0.237 C 
HETATM   10  O1  UNL     1       1.804   0.965  21.174  1.00  0.00    -0.272 OA
ATOM     11  H1  UNL     1       3.557  -1.095  22.858  1.00  0.00     0.171 HD
BRANCH   9  12
HETATM   12  C3  UNL     1       1.311  -1.331  21.176  1.00  0.00     0.135 C 
HETATM   13  C4  UNL     1       2.101  -2.576  21.502  1.00  0.00     0.031 C 
BRANCH  12  14
HETATM   14  S1  UNL     1      -0.408  -1.419  21.676  1.00  0.00    -0.155 SA
BRANCH  14  15
HETATM   15  C2  UNL     1      -1.275  -2.548  20.558  1.00  0.00     0.070 C 
HETATM   16  C1  UNL     1      -1.354  -3.892  21.230  1.00  0.00     0.016 C 
ENDBRANCH  14  15
ENDBRANCH  12  14
ENDBRANCH   9  12
ENDBRANCH   1   8
BRANCH   6  17
HETATM   17  S2  UNL     1       2.940   3.173  27.217  1.00  0.00     0.289 S 
HETATM   18  O2  UNL     1       3.800   2.469  28.239  1.00  0.00    -0.198 OA
HETATM   19  O3  UNL     1       3.396   4.580  26.995  1.00  0.00    -0.198 OA
BRANCH  17  20
HETATM   20  N4  UNL     1       1.309   3.066  27.746  1.00  0.00    -0.249 N 
HETATM   21  C8  UNL     1       0.931   3.833  28.867  1.00  0.00     0.227 C 
HETATM   22  C9  UNL     1      -0.474   3.749  29.349  1.00  0.00     0.118 C 
HETATM   23  O4  UNL     1       1.750   4.565  29.445  1.00  0.00    -0.273 OA
ATOM     24  H4  UNL     1       0.636   2.469  27.264  1.00  0.00     0.182 HD
ENDBRANCH  17  20
ENDBRANCH   6  17
TORSDOF 6
ENDMDL
