MODEL 1
REMARK VINA RESULT: -7.834972027      0.000      0.000
REMARK  13 active torsions:
REMARK  status: ('A' for Active; 'I' for Inactive)
REMARK    1  A    between atoms: C2_10  and  C3_11 
REMARK    2  A    between atoms: C4_14  and  C5_15 
REMARK    3  A    between atoms: C5_15  and  N6_20 
REMARK    4  A    between atoms: N5_16  and  O2_18 
REMARK    5  A    between atoms: N6_20  and  C6_22 
REMARK    6  A    between atoms: C9_25  and  S1_26 
REMARK    7  A    between atoms: S1_26  and  N7_27 
REMARK    8  A    between atoms: S1_26  and  N8_31 
REMARK    9  A    between atoms: C15_38  and  O5_39 
REMARK   10  A    between atoms: N10_43  and  C16_44 
REMARK   11  A    between atoms: C16_44  and  C17_45 
REMARK   12  A    between atoms: C17_45  and  C18_46 
REMARK   13  A    between atoms: C18_46  and  N11_47 
ROOT
HETATM    1  C5  UNL     1      20.757  15.507  17.382  1.00  0.00     0.172 C 
HETATM    2  N5  UNL     1      19.867  14.742  16.848  1.00  0.00    -0.250 N 
ATOM      3  H5  UNL     1      20.153  13.808  16.552  1.00  0.00     0.196 HD
ENDROOT
BRANCH   1   4
HETATM    4  C4  UNL     1      20.318  16.845  17.798  1.00  0.00     0.168 A 
HETATM    5  N4  UNL     1      19.859  17.198  19.009  1.00  0.00    -0.321 N 
HETATM    6  C3  UNL     1      19.554  18.504  19.017  1.00  0.00     0.157 A 
ATOM      7  H4  UNL     1      19.758  16.568  19.805  1.00  0.00     0.169 HD
HETATM    8  N10 UNL     1      19.816  19.000  17.807  1.00  0.00    -0.273 N 
HETATM    9  N9  UNL     1      20.282  17.969  17.073  1.00  0.00    -0.278 N 
ATOM     10  H9  UNL     1      20.569  18.037  16.097  1.00  0.00     0.189 HD
BRANCH   6  11
HETATM   11  C2  UNL     1      19.030  19.240  20.157  1.00  0.00     0.147 A 
HETATM   12  C1  UNL     1      19.704  20.155  20.938  1.00  0.00     0.154 A 
HETATM   13  N1  UNL     1      20.914  20.581  20.870  1.00  0.00    -0.382 N 
HETATM   14  N2  UNL     1      18.790  20.563  21.869  1.00  0.00    -0.224 N 
ATOM     15  H12 UNL     1      21.413  21.258  21.447  1.00  0.00     0.157 HD
ATOM     16  H11 UNL     1      21.596  20.277  20.175  1.00  0.00     0.157 HD
HETATM   17  O1  UNL     1      17.700  19.955  21.660  1.00  0.00    -0.155 OA
ATOM     18  H2  UNL     1      18.959  21.244  22.609  1.00  0.00     0.198 HD
HETATM   19  N3  UNL     1      17.797  19.171  20.667  1.00  0.00    -0.234 N 
ATOM     20  H3  UNL     1      17.048  18.578  20.311  1.00  0.00     0.197 HD
ENDBRANCH   6  11
BRANCH   8  21
HETATM   21  C16 UNL     1      19.658  20.362  17.294  1.00  0.00     0.152 C 
BRANCH  21  22
HETATM   22  C17 UNL     1      20.952  21.097  17.175  1.00  0.00     0.049 C 
BRANCH  22  23
HETATM   23  C18 UNL     1      20.672  22.557  17.468  1.00  0.00     0.231 C 
BRANCH  23  24
HETATM   24  N11 UNL     1      21.285  23.374  16.464  1.00  0.00    -0.079 N 
ATOM     25 3H11 UNL     1      21.974  22.858  15.915  1.00  0.00     0.274 HD
ATOM     26 2H11 UNL     1      20.640  23.604  15.708  1.00  0.00     0.274 HD
ATOM     27 1H11 UNL     1      21.684  24.207  16.898  1.00  0.00     0.274 HD
ENDBRANCH  23  24
ENDBRANCH  22  23
ENDBRANCH  21  22
ENDBRANCH   8  21
ENDBRANCH   1   4
BRANCH   1  28
HETATM   28  N6  UNL     1      22.090  15.050  17.546  1.00  0.00    -0.336 N 
ATOM     29  H6  UNL     1      22.501  15.013  18.478  1.00  0.00     0.168 HD
BRANCH  28  30
HETATM   30  C6  UNL     1      22.862  14.641  16.411  1.00  0.00     0.067 A 
HETATM   31  C7  UNL     1      23.264  13.325  16.316  1.00  0.00     0.034 A 
HETATM   32  C8  UNL     1      24.007  12.925  15.228  1.00  0.00     0.025 A 
HETATM   33  C9  UNL     1      24.364  13.792  14.228  1.00  0.00     0.056 A 
HETATM   34  C14 UNL     1      23.948  15.106  14.351  1.00  0.00     0.062 A 
HETATM   35  C15 UNL     1      23.201  15.554  15.425  1.00  0.00     0.093 A 
BRANCH  33  36
HETATM   36  S1  UNL     1      25.295  13.352  12.838  1.00  0.00     0.117 S 
HETATM   37  O3  UNL     1      26.679  12.965  13.295  1.00  0.00    -0.229 OA
BRANCH  36  38
HETATM   38  N7  UNL     1      24.678  12.083  12.158  1.00  0.00    -0.345 N 
ATOM     39  H72 UNL     1      24.582  11.177  12.616  1.00  0.00     0.167 HD
ATOM     40  H71 UNL     1      24.392  12.302  11.203  1.00  0.00     0.167 HD
ENDBRANCH  36  38
BRANCH  36  41
HETATM   41  N8  UNL     1      25.460  14.639  11.713  1.00  0.00    -0.220 NA
HETATM   42  C10 UNL     1      26.725  14.460  11.022  1.00  0.00     0.132 C 
HETATM   43  C11 UNL     1      27.007  15.599  10.068  1.00  0.00     0.183 C 
HETATM   44  O4  UNL     1      25.842  16.284   9.723  1.00  0.00    -0.389 OA
HETATM   45  C12 UNL     1      24.877  15.319   9.426  1.00  0.00     0.183 C 
HETATM   46  C13 UNL     1      24.420  14.645  10.712  1.00  0.00     0.132 C 
ENDBRANCH  36  41
ENDBRANCH  33  36
BRANCH  35  47
HETATM   47  O5  UNL     1      22.777  16.869  15.558  1.00  0.00    -0.358 OA
ATOM     48  H5  UNL     1      22.163  17.217  14.923  1.00  0.00     0.217 HD
ENDBRANCH  35  47
ENDBRANCH  28  30
ENDBRANCH   1  28
BRANCH   2  49
HETATM   49  O2  UNL     1      18.572  15.103  16.655  1.00  0.00    -0.288 OA
ATOM     50  H2  UNL     1      17.988  14.677  16.040  1.00  0.00     0.244 HD
ENDBRANCH   2  49
TORSDOF 13
ENDMDL
MODEL 2
REMARK VINA RESULT: -7.806861806      1.799      3.507
REMARK  13 active torsions:
REMARK  status: ('A' for Active; 'I' for Inactive)
REMARK    1  A    between atoms: C2_10  and  C3_11 
REMARK    2  A    between atoms: C4_14  and  C5_15 
REMARK    3  A    between atoms: C5_15  and  N6_20 
REMARK    4  A    between atoms: N5_16  and  O2_18 
REMARK    5  A    between atoms: N6_20  and  C6_22 
REMARK    6  A    between atoms: C9_25  and  S1_26 
REMARK    7  A    between atoms: S1_26  and  N7_27 
REMARK    8  A    between atoms: S1_26  and  N8_31 
REMARK    9  A    between atoms: C15_38  and  O5_39 
REMARK   10  A    between atoms: N10_43  and  C16_44 
REMARK   11  A    between atoms: C16_44  and  C17_45 
REMARK   12  A    between atoms: C17_45  and  C18_46 
REMARK   13  A    between atoms: C18_46  and  N11_47 
ROOT
HETATM    1  C5  UNL     1      20.843  16.309  16.681  1.00  0.00     0.172 C 
HETATM    2  N5  UNL     1      19.786  15.750  16.199  1.00  0.00    -0.250 N 
ATOM      3  H5  UNL     1      19.807  14.743  16.039  1.00  0.00     0.196 HD
ENDROOT
BRANCH   1   4
HETATM    4  C4  UNL     1      20.784  17.760  16.902  1.00  0.00     0.168 A 
HETATM    5  N4  UNL     1      21.530  18.696  16.294  1.00  0.00    -0.321 N 
HETATM    6  C3  UNL     1      21.196  19.911  16.752  1.00  0.00     0.157 A 
ATOM      7  H4  UNL     1      22.243  18.510  15.590  1.00  0.00     0.169 HD
HETATM    8  N10 UNL     1      20.231  19.764  17.659  1.00  0.00    -0.273 N 
HETATM    9  N9  UNL     1      19.991  18.440  17.739  1.00  0.00    -0.278 N 
ATOM     10  H9  UNL     1      19.299  18.013  18.355  1.00  0.00     0.189 HD
BRANCH   6  11
HETATM   11  C2  UNL     1      21.793  21.166  16.321  1.00  0.00     0.147 A 
HETATM   12  C1  UNL     1      21.707  21.743  15.071  1.00  0.00     0.154 A 
HETATM   13  N1  UNL     1      21.106  21.345  14.007  1.00  0.00    -0.382 N 
HETATM   14  N2  UNL     1      22.427  22.900  15.168  1.00  0.00    -0.224 N 
ATOM     15  H12 UNL     1      21.043  21.771  13.083  1.00  0.00     0.157 HD
ATOM     16  H11 UNL     1      20.569  20.481  13.934  1.00  0.00     0.157 HD
HETATM   17  O1  UNL     1      22.886  22.995  16.344  1.00  0.00    -0.155 OA
ATOM     18  H2  UNL     1      22.570  23.576  14.418  1.00  0.00     0.198 HD
HETATM   19  N3  UNL     1      22.538  22.000  17.051  1.00  0.00    -0.234 N 
ATOM     20  H3  UNL     1      22.789  21.858  18.029  1.00  0.00     0.197 HD
ENDBRANCH   6  11
BRANCH   8  21
HETATM   21  C16 UNL     1      19.524  20.772  18.452  1.00  0.00     0.152 C 
BRANCH  21  22
HETATM   22  C17 UNL     1      20.210  21.092  19.740  1.00  0.00     0.049 C 
BRANCH  22  23
HETATM   23  C18 UNL     1      19.599  20.209  20.810  1.00  0.00     0.231 C 
BRANCH  23  24
HETATM   24  N11 UNL     1      20.500  20.108  21.919  1.00  0.00    -0.079 N 
ATOM     25 3H11 UNL     1      20.811  19.149  22.076  1.00  0.00     0.274 HD
ATOM     26 2H11 UNL     1      21.409  20.524  21.716  1.00  0.00     0.274 HD
ATOM     27 1H11 UNL     1      20.067  20.513  22.748  1.00  0.00     0.274 HD
ENDBRANCH  23  24
ENDBRANCH  22  23
ENDBRANCH  21  22
ENDBRANCH   8  21
ENDBRANCH   1   4
BRANCH   1  28
HETATM   28  N6  UNL     1      21.994  15.534  16.975  1.00  0.00    -0.336 N 
ATOM     29  H6  UNL     1      22.232  15.328  17.945  1.00  0.00     0.168 HD
BRANCH  28  30
HETATM   30  C6  UNL     1      22.824  15.039  15.918  1.00  0.00     0.067 A 
HETATM   31  C7  UNL     1      23.140  15.877  14.868  1.00  0.00     0.034 A 
HETATM   32  C8  UNL     1      23.938  15.406  13.849  1.00  0.00     0.025 A 
HETATM   33  C9  UNL     1      24.433  14.128  13.838  1.00  0.00     0.056 A 
HETATM   34  C14 UNL     1      24.098  13.311  14.903  1.00  0.00     0.062 A 
HETATM   35  C15 UNL     1      23.301  13.738  15.948  1.00  0.00     0.093 A 
BRANCH  33  36
HETATM   36  S1  UNL     1      25.438  13.479  12.588  1.00  0.00     0.117 S 
HETATM   37  O3  UNL     1      26.686  12.921  13.223  1.00  0.00    -0.229 OA
BRANCH  36  38
HETATM   38  N7  UNL     1      24.716  12.278  11.888  1.00  0.00    -0.345 N 
ATOM     39  H72 UNL     1      23.731  12.278  11.623  1.00  0.00     0.167 HD
ATOM     40  H71 UNL     1      25.373  11.512  11.742  1.00  0.00     0.167 HD
ENDBRANCH  36  38
BRANCH  36  41
HETATM   41  N8  UNL     1      25.922  14.663  11.443  1.00  0.00    -0.220 NA
HETATM   42  C10 UNL     1      27.136  14.186  10.803  1.00  0.00     0.132 C 
HETATM   43  C11 UNL     1      27.696  15.205   9.836  1.00  0.00     0.183 C 
HETATM   44  O4  UNL     1      26.726  16.122   9.433  1.00  0.00    -0.389 OA
HETATM   45  C12 UNL     1      25.579  15.389   9.121  1.00  0.00     0.183 C 
HETATM   46  C13 UNL     1      24.942  14.872  10.404  1.00  0.00     0.132 C 
ENDBRANCH  36  41
ENDBRANCH  33  36
BRANCH  35  47
HETATM   47  O5  UNL     1      22.959  12.927  17.022  1.00  0.00    -0.358 OA
ATOM     48  H5  UNL     1      22.081  12.568  17.061  1.00  0.00     0.217 HD
ENDBRANCH  35  47
ENDBRANCH  28  30
ENDBRANCH   1  28
BRANCH   2  49
HETATM   49  O2  UNL     1      18.645  16.420  15.892  1.00  0.00    -0.288 OA
ATOM     50  H2  UNL     1      18.066  16.183  15.178  1.00  0.00     0.244 HD
ENDBRANCH   2  49
TORSDOF 13
ENDMDL
MODEL 3
REMARK VINA RESULT: -7.743683089      1.250      2.438
REMARK  13 active torsions:
REMARK  status: ('A' for Active; 'I' for Inactive)
REMARK    1  A    between atoms: C2_10  and  C3_11 
REMARK    2  A    between atoms: C4_14  and  C5_15 
REMARK    3  A    between atoms: C5_15  and  N6_20 
REMARK    4  A    between atoms: N5_16  and  O2_18 
REMARK    5  A    between atoms: N6_20  and  C6_22 
REMARK    6  A    between atoms: C9_25  and  S1_26 
REMARK    7  A    between atoms: S1_26  and  N7_27 
REMARK    8  A    between atoms: S1_26  and  N8_31 
REMARK    9  A    between atoms: C15_38  and  O5_39 
REMARK   10  A    between atoms: N10_43  and  C16_44 
REMARK   11  A    between atoms: C16_44  and  C17_45 
REMARK   12  A    between atoms: C17_45  and  C18_46 
REMARK   13  A    between atoms: C18_46  and  N11_47 
ROOT
HETATM    1  C5  UNL     1      20.800  15.507  17.368  1.00  0.00     0.172 C 
HETATM    2  N5  UNL     1      19.873  14.816  16.799  1.00  0.00    -0.250 N 
ATOM      3  H5  UNL     1      20.108  13.879  16.470  1.00  0.00     0.196 HD
ENDROOT
BRANCH   1   4
HETATM    4  C4  UNL     1      20.434  16.851  17.833  1.00  0.00     0.168 A 
HETATM    5  N4  UNL     1      20.468  17.986  17.116  1.00  0.00    -0.321 N 
HETATM    6  C3  UNL     1      20.064  19.015  17.875  1.00  0.00     0.157 A 
ATOM      7  H4  UNL     1      20.758  18.055  16.141  1.00  0.00     0.169 HD
HETATM    8  N10 UNL     1      19.767  18.548  19.088  1.00  0.00    -0.273 N 
HETATM    9  N9  UNL     1      20.000  17.221  19.044  1.00  0.00    -0.278 N 
ATOM     10  H9  UNL     1      19.864  16.583  19.829  1.00  0.00     0.189 HD
BRANCH   6  11
HETATM   11  C2  UNL     1      19.970  20.399  17.435  1.00  0.00     0.147 A 
HETATM   12  C1  UNL     1      21.008  21.225  17.060  1.00  0.00     0.154 A 
HETATM   13  N1  UNL     1      22.273  21.005  17.003  1.00  0.00    -0.382 N 
HETATM   14  N2  UNL     1      20.412  22.412  16.736  1.00  0.00    -0.224 N 
ATOM     15  H12 UNL     1      23.040  21.616  16.725  1.00  0.00     0.157 HD
ATOM     16  H11 UNL     1      22.717  20.120  17.245  1.00  0.00     0.157 HD
HETATM   17  O1  UNL     1      19.163  22.297  16.901  1.00  0.00    -0.155 OA
ATOM     18  H2  UNL     1      20.895  23.251  16.413  1.00  0.00     0.198 HD
HETATM   19  N3  UNL     1      18.861  21.134  17.309  1.00  0.00    -0.234 N 
ATOM     20  H3  UNL     1      17.916  20.809  17.512  1.00  0.00     0.197 HD
ENDBRANCH   6  11
BRANCH   8  21
HETATM   21  C16 UNL     1      19.284  19.254  20.276  1.00  0.00     0.152 C 
BRANCH  21  22
HETATM   22  C17 UNL     1      20.384  19.855  21.087  1.00  0.00     0.049 C 
BRANCH  22  23
HETATM   23  C18 UNL     1      19.845  21.128  21.709  1.00  0.00     0.231 C 
BRANCH  23  24
HETATM   24  N11 UNL     1      19.340  21.987  20.680  1.00  0.00    -0.079 N 
ATOM     25 3H11 UNL     1      19.512  21.613  19.747  1.00  0.00     0.274 HD
ATOM     26 2H11 UNL     1      18.321  21.993  20.649  1.00  0.00     0.274 HD
ATOM     27 1H11 UNL     1      19.728  22.924  20.797  1.00  0.00     0.274 HD
ENDBRANCH  23  24
ENDBRANCH  22  23
ENDBRANCH  21  22
ENDBRANCH   8  21
ENDBRANCH   1   4
BRANCH   1  28
HETATM   28  N6  UNL     1      22.104  14.969  17.524  1.00  0.00    -0.336 N 
ATOM     29  H6  UNL     1      22.497  14.859  18.458  1.00  0.00     0.168 HD
BRANCH  28  30
HETATM   30  C6  UNL     1      22.870  14.580  16.378  1.00  0.00     0.067 A 
HETATM   31  C7  UNL     1      23.275  13.267  16.261  1.00  0.00     0.034 A 
HETATM   32  C8  UNL     1      24.012  12.886  15.161  1.00  0.00     0.025 A 
HETATM   33  C9  UNL     1      24.360  13.770  14.173  1.00  0.00     0.056 A 
HETATM   34  C14 UNL     1      23.940  15.080  14.318  1.00  0.00     0.062 A 
HETATM   35  C15 UNL     1      23.199  15.509  15.404  1.00  0.00     0.093 A 
BRANCH  33  36
HETATM   36  S1  UNL     1      25.283  13.354  12.770  1.00  0.00     0.117 S 
HETATM   37  O3  UNL     1      26.686  13.014  13.207  1.00  0.00    -0.229 OA
BRANCH  36  38
HETATM   38  N7  UNL     1      24.697  12.062  12.105  1.00  0.00    -0.345 N 
ATOM     39  H72 UNL     1      24.199  12.053  11.215  1.00  0.00     0.167 HD
ATOM     40  H71 UNL     1      24.889  11.249  12.690  1.00  0.00     0.167 HD
ENDBRANCH  36  38
BRANCH  36  41
HETATM   41  N8  UNL     1      25.388  14.640  11.638  1.00  0.00    -0.220 NA
HETATM   42  C10 UNL     1      26.714  14.596  11.043  1.00  0.00     0.132 C 
HETATM   43  C11 UNL     1      26.938  15.750  10.093  1.00  0.00     0.183 C 
HETATM   44  O4  UNL     1      25.734  16.298   9.652  1.00  0.00    -0.389 OA
HETATM   45  C12 UNL     1      24.906  15.230   9.302  1.00  0.00     0.183 C 
HETATM   46  C13 UNL     1      24.432  14.521  10.564  1.00  0.00     0.132 C 
ENDBRANCH  36  41
ENDBRANCH  33  36
BRANCH  35  47
HETATM   47  O5  UNL     1      22.772  16.820  15.560  1.00  0.00    -0.358 OA
ATOM     48  H5  UNL     1      22.789  17.205  16.429  1.00  0.00     0.217 HD
ENDBRANCH  35  47
ENDBRANCH  28  30
ENDBRANCH   1  28
BRANCH   2  49
HETATM   49  O2  UNL     1      18.603  15.258  16.612  1.00  0.00    -0.288 OA
ATOM     50  H2  UNL     1      18.247  16.040  17.017  1.00  0.00     0.244 HD
ENDBRANCH   2  49
TORSDOF 13
ENDMDL
MODEL 4
REMARK VINA RESULT: -7.577040141      6.780     11.167
REMARK  13 active torsions:
REMARK  status: ('A' for Active; 'I' for Inactive)
REMARK    1  A    between atoms: C2_10  and  C3_11 
REMARK    2  A    between atoms: C4_14  and  C5_15 
REMARK    3  A    between atoms: C5_15  and  N6_20 
REMARK    4  A    between atoms: N5_16  and  O2_18 
REMARK    5  A    between atoms: N6_20  and  C6_22 
REMARK    6  A    between atoms: C9_25  and  S1_26 
REMARK    7  A    between atoms: S1_26  and  N7_27 
REMARK    8  A    between atoms: S1_26  and  N8_31 
REMARK    9  A    between atoms: C15_38  and  O5_39 
REMARK   10  A    between atoms: N10_43  and  C16_44 
REMARK   11  A    between atoms: C16_44  and  C17_45 
REMARK   12  A    between atoms: C17_45  and  C18_46 
REMARK   13  A    between atoms: C18_46  and  N11_47 
ROOT
HETATM    1  C5  UNL     1      24.815  18.636  11.205  1.00  0.00     0.172 C 
HETATM    2  N5  UNL     1      23.693  19.022  10.702  1.00  0.00    -0.250 N 
ATOM      3  H5  UNL     1      23.440  20.006  10.793  1.00  0.00     0.196 HD
ENDROOT
BRANCH   1   4
HETATM    4  C4  UNL     1      25.154  17.215  11.060  1.00  0.00     0.168 A 
HETATM    5  N4  UNL     1      26.090  16.691  10.252  1.00  0.00    -0.321 N 
HETATM    6  C3  UNL     1      26.113  15.357  10.389  1.00  0.00     0.157 A 
ATOM      7  H4  UNL     1      26.692  17.227   9.628  1.00  0.00     0.169 HD
HETATM    8  N10 UNL     1      25.190  15.014  11.288  1.00  0.00    -0.273 N 
HETATM    9  N9  UNL     1      24.612  16.165  11.687  1.00  0.00    -0.278 N 
ATOM     10  H9  UNL     1      23.861  16.227  12.376  1.00  0.00     0.189 HD
BRANCH   6  11
HETATM   11  C2  UNL     1      27.001  14.453   9.674  1.00  0.00     0.147 A 
HETATM   12  C1  UNL     1      28.258  14.041  10.061  1.00  0.00     0.154 A 
HETATM   13  N1  UNL     1      28.948  14.333  11.106  1.00  0.00    -0.382 N 
HETATM   14  N2  UNL     1      28.677  13.205   9.064  1.00  0.00    -0.224 N 
ATOM     15  H12 UNL     1      29.878  14.029  11.392  1.00  0.00     0.157 HD
ATOM     16  H11 UNL     1      28.636  14.957  11.849  1.00  0.00     0.157 HD
HETATM   17  O1  UNL     1      27.767  13.132   8.188  1.00  0.00    -0.155 OA
ATOM     18  H2  UNL     1      29.573  12.720   9.033  1.00  0.00     0.198 HD
HETATM   19  N3  UNL     1      26.768  13.848   8.506  1.00  0.00    -0.234 N 
ATOM     20  H3  UNL     1      25.916  13.946   7.953  1.00  0.00     0.197 HD
ENDBRANCH   6  11
BRANCH   8  21
HETATM   21  C16 UNL     1      24.814  13.692  11.792  1.00  0.00     0.152 C 
BRANCH  21  22
HETATM   22  C17 UNL     1      25.611  13.271  12.983  1.00  0.00     0.049 C 
BRANCH  22  23
HETATM   23  C18 UNL     1      24.633  12.998  14.109  1.00  0.00     0.231 C 
BRANCH  23  24
HETATM   24  N11 UNL     1      24.022  14.226  14.520  1.00  0.00    -0.079 N 
ATOM     25 3H11 UNL     1      23.101  14.358  14.101  1.00  0.00     0.274 HD
ATOM     26 2H11 UNL     1      23.734  14.204  15.499  1.00  0.00     0.274 HD
ATOM     27 1H11 UNL     1      24.651  15.004  14.321  1.00  0.00     0.274 HD
ENDBRANCH  23  24
ENDBRANCH  22  23
ENDBRANCH  21  22
ENDBRANCH   8  21
ENDBRANCH   1   4
BRANCH   1  28
HETATM   28  N6  UNL     1      25.663  19.565  11.862  1.00  0.00    -0.336 N 
ATOM     29  H6  UNL     1      25.729  19.557  12.880  1.00  0.00     0.168 HD
BRANCH  28  30
HETATM   30  C6  UNL     1      26.427  20.511  11.107  1.00  0.00     0.067 A 
HETATM   31  C7  UNL     1      27.694  20.162  10.685  1.00  0.00     0.034 A 
HETATM   32  C8  UNL     1      28.434  21.068   9.958  1.00  0.00     0.025 A 
HETATM   33  C9  UNL     1      27.956  22.312   9.635  1.00  0.00     0.056 A 
HETATM   34  C14 UNL     1      26.683  22.633  10.072  1.00  0.00     0.062 A 
HETATM   35  C15 UNL     1      25.903  21.758  10.805  1.00  0.00     0.093 A 
BRANCH  33  36
HETATM   36  S1  UNL     1      28.836  23.492   8.727  1.00  0.00     0.117 S 
HETATM   37  O3  UNL     1      27.864  24.235   7.846  1.00  0.00    -0.229 OA
BRANCH  36  38
HETATM   38  N7  UNL     1      29.465  24.553   9.692  1.00  0.00    -0.345 N 
ATOM     39  H72 UNL     1      29.092  24.782  10.613  1.00  0.00     0.167 HD
ATOM     40  H71 UNL     1      30.291  24.970   9.263  1.00  0.00     0.167 HD
ENDBRANCH  36  38
BRANCH  36  41
HETATM   41  N8  UNL     1      30.030  22.794   7.711  1.00  0.00    -0.220 NA
HETATM   42  C10 UNL     1      30.126  23.615   6.516  1.00  0.00     0.132 C 
HETATM   43  C11 UNL     1      31.093  23.029   5.511  1.00  0.00     0.183 C 
HETATM   44  O4  UNL     1      31.989  22.145   6.112  1.00  0.00    -0.389 OA
HETATM   45  C12 UNL     1      32.449  22.761   7.277  1.00  0.00     0.183 C 
HETATM   46  C13 UNL     1      31.339  22.768   8.319  1.00  0.00     0.132 C 
ENDBRANCH  36  41
ENDBRANCH  33  36
BRANCH  35  47
HETATM   47  O5  UNL     1      24.625  22.069  11.248  1.00  0.00    -0.358 OA
ATOM     48  H5  UNL     1      24.460  22.096  12.183  1.00  0.00     0.217 HD
ENDBRANCH  35  47
ENDBRANCH  28  30
ENDBRANCH   1  28
BRANCH   2  49
HETATM   49  O2  UNL     1      22.826  18.198  10.059  1.00  0.00    -0.288 OA
ATOM     50  H2  UNL     1      21.944  18.014  10.361  1.00  0.00     0.244 HD
ENDBRANCH   2  49
TORSDOF 13
ENDMDL
MODEL 5
REMARK VINA RESULT: -7.532105896      3.763     11.042
REMARK  13 active torsions:
REMARK  status: ('A' for Active; 'I' for Inactive)
REMARK    1  A    between atoms: C2_10  and  C3_11 
REMARK    2  A    between atoms: C4_14  and  C5_15 
REMARK    3  A    between atoms: C5_15  and  N6_20 
REMARK    4  A    between atoms: N5_16  and  O2_18 
REMARK    5  A    between atoms: N6_20  and  C6_22 
REMARK    6  A    between atoms: C9_25  and  S1_26 
REMARK    7  A    between atoms: S1_26  and  N7_27 
REMARK    8  A    between atoms: S1_26  and  N8_31 
REMARK    9  A    between atoms: C15_38  and  O5_39 
REMARK   10  A    between atoms: N10_43  and  C16_44 
REMARK   11  A    between atoms: C16_44  and  C17_45 
REMARK   12  A    between atoms: C17_45  and  C18_46 
REMARK   13  A    between atoms: C18_46  and  N11_47 
ROOT
HETATM    1  C5  UNL     1      25.122  18.720  10.611  1.00  0.00     0.172 C 
HETATM    2  N5  UNL     1      26.119  19.525  10.475  1.00  0.00    -0.250 N 
ATOM      3  H5  UNL     1      25.927  20.527  10.464  1.00  0.00     0.196 HD
ENDROOT
BRANCH   1   4
HETATM    4  C4  UNL     1      25.427  17.283  10.623  1.00  0.00     0.168 A 
HETATM    5  N4  UNL     1      26.394  16.662   9.929  1.00  0.00    -0.321 N 
HETATM    6  C3  UNL     1      26.370  15.347  10.194  1.00  0.00     0.157 A 
ATOM      7  H4  UNL     1      27.048  17.121   9.295  1.00  0.00     0.169 HD
HETATM    8  N10 UNL     1      25.386  15.115  11.062  1.00  0.00    -0.273 N 
HETATM    9  N9  UNL     1      24.818  16.312  11.314  1.00  0.00    -0.278 N 
ATOM     10  H9  UNL     1      24.031  16.457  11.945  1.00  0.00     0.189 HD
BRANCH   6  11
HETATM   11  C2  UNL     1      27.272  14.358   9.624  1.00  0.00     0.147 A 
HETATM   12  C1  UNL     1      28.462  13.912  10.158  1.00  0.00     0.154 A 
HETATM   13  N1  UNL     1      29.063  14.235  11.247  1.00  0.00    -0.382 N 
HETATM   14  N2  UNL     1      28.929  12.994   9.258  1.00  0.00    -0.224 N 
ATOM     15  H12 UNL     1      29.943  13.905  11.642  1.00  0.00     0.157 HD
ATOM     16  H11 UNL     1      28.715  14.919  11.918  1.00  0.00     0.157 HD
HETATM   17  O1  UNL     1      28.105  12.910   8.301  1.00  0.00    -0.155 OA
ATOM     18  H2  UNL     1      29.796  12.466   9.344  1.00  0.00     0.198 HD
HETATM   19  N3  UNL     1      27.120  13.692   8.476  1.00  0.00    -0.234 N 
ATOM     20  H3  UNL     1      26.332  13.796   7.837  1.00  0.00     0.197 HD
ENDBRANCH   6  11
BRANCH   8  21
HETATM   21  C16 UNL     1      24.942  13.857  11.666  1.00  0.00     0.152 C 
BRANCH  21  22
HETATM   22  C17 UNL     1      24.639  13.981  13.123  1.00  0.00     0.049 C 
BRANCH  22  23
HETATM   23  C18 UNL     1      25.301  12.812  13.824  1.00  0.00     0.231 C 
BRANCH  23  24
HETATM   24  N11 UNL     1      26.677  12.735  13.434  1.00  0.00    -0.079 N 
ATOM     25 3H11 UNL     1      26.786  12.468  12.455  1.00  0.00     0.274 HD
ATOM     26 2H11 UNL     1      27.115  13.655  13.383  1.00  0.00     0.274 HD
ATOM     27 1H11 UNL     1      27.176  12.106  14.063  1.00  0.00     0.274 HD
ENDBRANCH  23  24
ENDBRANCH  22  23
ENDBRANCH  21  22
ENDBRANCH   8  21
ENDBRANCH   1   4
BRANCH   1  28
HETATM   28  N6  UNL     1      23.803  19.226  10.741  1.00  0.00    -0.336 N 
ATOM     29  H6  UNL     1      23.143  19.123   9.971  1.00  0.00     0.168 HD
BRANCH  28  30
HETATM   30  C6  UNL     1      23.392  19.880  11.948  1.00  0.00     0.067 A 
HETATM   31  C7  UNL     1      23.464  21.256  12.019  1.00  0.00     0.034 A 
HETATM   32  C8  UNL     1      23.071  21.891  13.176  1.00  0.00     0.025 A 
HETATM   33  C9  UNL     1      22.607  21.202  14.267  1.00  0.00     0.056 A 
HETATM   34  C14 UNL     1      22.547  19.824  14.166  1.00  0.00     0.062 A 
HETATM   35  C15 UNL     1      22.931  19.142  13.026  1.00  0.00     0.093 A 
BRANCH  33  36
HETATM   36  S1  UNL     1      22.100  21.941  15.746  1.00  0.00     0.117 S 
HETATM   37  O3  UNL     1      23.202  21.777  16.762  1.00  0.00    -0.229 OA
BRANCH  36  38
HETATM   38  N7  UNL     1      21.907  23.482  15.539  1.00  0.00    -0.345 N 
ATOM     39  H72 UNL     1      22.236  24.192  16.193  1.00  0.00     0.167 HD
ATOM     40  H71 UNL     1      21.412  23.658  14.666  1.00  0.00     0.167 HD
ENDBRANCH  36  38
BRANCH  36  41
HETATM   41  N8  UNL     1      20.683  21.222  16.396  1.00  0.00    -0.220 NA
HETATM   42  C10 UNL     1      21.100  20.229  17.372  1.00  0.00     0.132 C 
HETATM   43  C11 UNL     1      19.921  19.472  17.938  1.00  0.00     0.183 C 
HETATM   44  O4  UNL     1      18.727  20.176  17.773  1.00  0.00    -0.389 OA
HETATM   45  C12 UNL     1      18.980  21.497  18.146  1.00  0.00     0.183 C 
HETATM   46  C13 UNL     1      19.837  22.169  17.083  1.00  0.00     0.132 C 
ENDBRANCH  36  41
ENDBRANCH  33  36
BRANCH  35  47
HETATM   47  O5  UNL     1      22.875  17.760  12.913  1.00  0.00    -0.358 OA
ATOM     48  H5  UNL     1      23.643  17.251  13.147  1.00  0.00     0.217 HD
ENDBRANCH  35  47
ENDBRANCH  28  30
ENDBRANCH   1  28
BRANCH   2  49
HETATM   49  O2  UNL     1      27.409  19.122  10.344  1.00  0.00    -0.288 OA
ATOM     50  H2  UNL     1      28.103  19.358  10.948  1.00  0.00     0.244 HD
ENDBRANCH   2  49
TORSDOF 13
ENDMDL
