MODEL 1
REMARK VINA RESULT: -8.273073402      0.000      0.000
REMARK  16 active torsions:
REMARK  status: ('A' for Active; 'I' for Inactive)
REMARK    1  A    between atoms: C2_2  and  C3_3 
REMARK    2  A    between atoms: C11_11  and  N1_12 
REMARK    3  A    between atoms: N1_12  and  C12_13 
REMARK    4  A    between atoms: N1_12  and  C14_17 
REMARK    5  A    between atoms: C12_13  and  C13_14 
REMARK    6  A    between atoms: C13_14  and  O1_15 
REMARK    7  A    between atoms: C14_17  and  C15_18 
REMARK    8  A    between atoms: C15_18  and  C16_19 
REMARK    9  A    between atoms: C16_19  and  N2_20 
REMARK   10  A    between atoms: C18_22  and  O2_23 
REMARK   11  A    between atoms: C19_25  and  O3_26 
REMARK   12  A    between atoms: C20_28  and  O4_29 
REMARK   13  A    between atoms: C21_31  and  C22_32 
REMARK   14  A    between atoms: C22_32  and  O5_33 
REMARK   15  A    between atoms: C23_35  and  O6_36 
REMARK   16  A    between atoms: C24_38  and  O7_39 
ROOT
HETATM    1  N1  UNL     1     -10.201  77.289 119.427  1.00  0.00    -0.376 N 
ENDROOT
BRANCH   1   2
HETATM    2  C11 UNL     1     -10.245  77.360 118.016  1.00  0.00     0.067 A 
HETATM    3  C10 UNL     1     -11.500  77.328 117.394  1.00  0.00     0.040 A 
HETATM    4  C9  UNL     1     -11.592  77.395 116.043  1.00  0.00    -0.042 A 
HETATM    5  C5  UNL     1     -12.791  77.384 115.161  1.00  0.00     0.021 C 
HETATM    6  C8  UNL     1     -10.482  77.496 115.233  1.00  0.00    -0.011 A 
HETATM    7  C4  UNL     1     -12.786  76.089 114.409  1.00  0.00     0.018 C 
HETATM    8  C6  UNL     1     -12.284  78.338 114.060  1.00  0.00     0.019 C 
HETATM    9  C3  UNL     1     -11.546  76.199 113.510  1.00  0.00     0.017 C 
HETATM   10  C7  UNL     1     -10.985  77.544 113.831  1.00  0.00     0.030 C 
HETATM   11  C24 UNL     1      -9.260  77.528 115.835  1.00  0.00     0.108 A 
HETATM   12  C23 UNL     1      -9.154  77.460 117.219  1.00  0.00     0.126 A 
BRANCH   9  13
HETATM   13  C2  UNL     1     -11.888  76.022 112.077  1.00  0.00    -0.032 C 
HETATM   14  C1  UNL     1     -11.575  74.953 111.368  1.00  0.00     0.007 C 
ENDBRANCH   9  13
BRANCH  11  15
HETATM   15  O7  UNL     1      -8.121  77.630 115.034  1.00  0.00    -0.357 OA
ATOM     16  H7  UNL     1      -7.524  76.891 114.993  1.00  0.00     0.217 HD
ENDBRANCH  11  15
BRANCH  12  17
HETATM   17  O6  UNL     1      -7.854  77.502 117.719  1.00  0.00    -0.356 OA
ATOM     18  H6  UNL     1      -7.440  78.305 118.011  1.00  0.00     0.218 HD
ENDBRANCH  12  17
ENDBRANCH   1   2
BRANCH   1  19
HETATM   19  C12 UNL     1     -10.897  78.229 120.241  1.00  0.00     0.149 C 
BRANCH  19  20
HETATM   20  C13 UNL     1     -12.079  77.706 120.988  1.00  0.00     0.183 C 
BRANCH  20  21
HETATM   21  O1  UNL     1     -12.004  78.235 122.297  1.00  0.00    -0.399 OA
ATOM     22  H1  UNL     1     -12.839  78.058 122.715  1.00  0.00     0.209 HD
ENDBRANCH  20  21
ENDBRANCH  19  20
ENDBRANCH   1  19
BRANCH   1  23
HETATM   23  C14 UNL     1      -9.469  76.231 120.060  1.00  0.00     0.125 C 
BRANCH  23  24
HETATM   24  C15 UNL     1      -9.929  74.832 119.915  1.00  0.00     0.040 C 
BRANCH  24  25
HETATM   25  C16 UNL     1      -9.582  74.141 118.649  1.00  0.00     0.124 C 
BRANCH  25  26
HETATM   26  N2  UNL     1      -8.788  72.941 118.858  1.00  0.00    -0.381 N 
HETATM   27  C17 UNL     1      -8.820  72.555 120.206  1.00  0.00     0.093 C 
HETATM   28  C18 UNL     1      -9.064  71.131 120.538  1.00  0.00     0.187 C 
HETATM   29  C19 UNL     1      -8.960  70.148 119.429  1.00  0.00     0.182 C 
HETATM   30  C20 UNL     1      -9.589  70.712 118.191  1.00  0.00     0.174 C 
HETATM   31  C21 UNL     1      -8.874  71.973 117.843  1.00  0.00     0.138 C 
BRANCH  28  32
HETATM   32  O2  UNL     1     -10.380  71.022 121.049  1.00  0.00    -0.388 OA
ATOM     33  H2  UNL     1     -10.319  70.766 121.962  1.00  0.00     0.210 HD
ENDBRANCH  28  32
BRANCH  29  34
HETATM   34  O3  UNL     1      -9.597  68.938 119.783  1.00  0.00    -0.390 OA
ATOM     35  H3  UNL     1     -10.189  68.661 119.094  1.00  0.00     0.210 HD
ENDBRANCH  29  34
BRANCH  30  36
HETATM   36  O4  UNL     1      -9.497  69.821 117.124  1.00  0.00    -0.391 OA
ATOM     37  H4  UNL     1      -8.785  69.205 117.248  1.00  0.00     0.210 HD
ENDBRANCH  30  36
BRANCH  31  38
HETATM   38  C22 UNL     1      -7.445  71.633 117.412  1.00  0.00     0.192 C 
BRANCH  38  39
HETATM   39  O5  UNL     1      -7.212  71.867 116.081  1.00  0.00    -0.399 OA
ATOM     40  H5  UNL     1      -7.493  72.730 115.798  1.00  0.00     0.209 HD
ENDBRANCH  38  39
ENDBRANCH  31  38
ENDBRANCH  25  26
ENDBRANCH  24  25
ENDBRANCH  23  24
ENDBRANCH   1  23
TORSDOF 16
ENDMDL
MODEL 2
REMARK VINA RESULT: -8.100401792      1.102      1.989
REMARK  16 active torsions:
REMARK  status: ('A' for Active; 'I' for Inactive)
REMARK    1  A    between atoms: C2_2  and  C3_3 
REMARK    2  A    between atoms: C11_11  and  N1_12 
REMARK    3  A    between atoms: N1_12  and  C12_13 
REMARK    4  A    between atoms: N1_12  and  C14_17 
REMARK    5  A    between atoms: C12_13  and  C13_14 
REMARK    6  A    between atoms: C13_14  and  O1_15 
REMARK    7  A    between atoms: C14_17  and  C15_18 
REMARK    8  A    between atoms: C15_18  and  C16_19 
REMARK    9  A    between atoms: C16_19  and  N2_20 
REMARK   10  A    between atoms: C18_22  and  O2_23 
REMARK   11  A    between atoms: C19_25  and  O3_26 
REMARK   12  A    between atoms: C20_28  and  O4_29 
REMARK   13  A    between atoms: C21_31  and  C22_32 
REMARK   14  A    between atoms: C22_32  and  O5_33 
REMARK   15  A    between atoms: C23_35  and  O6_36 
REMARK   16  A    between atoms: C24_38  and  O7_39 
ROOT
HETATM    1  N1  UNL     1      -9.937  76.983 119.489  1.00  0.00    -0.376 N 
ENDROOT
BRANCH   1   2
HETATM    2  C11 UNL     1     -10.073  77.132 118.090  1.00  0.00     0.067 A 
HETATM    3  C10 UNL     1     -11.358  77.041 117.540  1.00  0.00     0.040 A 
HETATM    4  C9  UNL     1     -11.538  77.179 116.204  1.00  0.00    -0.042 A 
HETATM    5  C5  UNL     1     -12.785  77.128 115.392  1.00  0.00     0.021 C 
HETATM    6  C8  UNL     1     -10.491  77.413 115.340  1.00  0.00    -0.011 A 
HETATM    7  C4  UNL     1     -12.731  75.884 114.562  1.00  0.00     0.018 C 
HETATM    8  C6  UNL     1     -12.418  78.182 114.327  1.00  0.00     0.019 C 
HETATM    9  C3  UNL     1     -11.561  76.141 113.602  1.00  0.00     0.017 C 
HETATM   10  C7  UNL     1     -11.081  77.505 113.974  1.00  0.00     0.030 C 
HETATM   11  C24 UNL     1      -9.239  77.503 115.871  1.00  0.00     0.108 A 
HETATM   12  C23 UNL     1      -9.043  77.362 117.240  1.00  0.00     0.126 A 
BRANCH   9  13
HETATM   13  C2  UNL     1     -11.977  76.023 112.182  1.00  0.00    -0.032 C 
HETATM   14  C1  UNL     1     -11.672  75.000 111.404  1.00  0.00     0.007 C 
ENDBRANCH   9  13
BRANCH  11  15
HETATM   15  O7  UNL     1      -8.162  77.739 115.015  1.00  0.00    -0.357 OA
ATOM     16  H7  UNL     1      -7.343  77.285 115.176  1.00  0.00     0.217 HD
ENDBRANCH  11  15
BRANCH  12  17
HETATM   17  O6  UNL     1      -7.722  77.475 117.667  1.00  0.00    -0.356 OA
ATOM     18  H6  UNL     1      -7.246  76.757 118.066  1.00  0.00     0.218 HD
ENDBRANCH  12  17
ENDBRANCH   1   2
BRANCH   1  19
HETATM   19  C12 UNL     1     -10.456  77.952 120.395  1.00  0.00     0.149 C 
BRANCH  19  20
HETATM   20  C13 UNL     1     -11.848  77.721 120.883  1.00  0.00     0.183 C 
BRANCH  20  21
HETATM   21  O1  UNL     1     -11.900  78.190 122.215  1.00  0.00    -0.399 OA
ATOM     22  H1  UNL     1     -12.298  77.502 122.735  1.00  0.00     0.209 HD
ENDBRANCH  20  21
ENDBRANCH  19  20
ENDBRANCH   1  19
BRANCH   1  23
HETATM   23  C14 UNL     1      -9.293  75.815 120.016  1.00  0.00     0.125 C 
BRANCH  23  24
HETATM   24  C15 UNL     1     -10.089  74.595 120.282  1.00  0.00     0.040 C 
BRANCH  24  25
HETATM   25  C16 UNL     1      -9.332  73.351 120.564  1.00  0.00     0.124 C 
BRANCH  25  26
HETATM   26  N2  UNL     1      -9.845  72.199 119.842  1.00  0.00    -0.381 N 
HETATM   27  C17 UNL     1     -10.965  72.554 119.075  1.00  0.00     0.093 C 
HETATM   28  C18 UNL     1     -11.042  72.098 117.667  1.00  0.00     0.187 C 
HETATM   29  C19 UNL     1     -10.086  71.044 117.241  1.00  0.00     0.182 C 
HETATM   30  C20 UNL     1      -8.735  71.318 117.830  1.00  0.00     0.174 C 
HETATM   31  C21 UNL     1      -8.873  71.331 119.315  1.00  0.00     0.138 C 
BRANCH  28  32
HETATM   32  O2  UNL     1     -10.807  73.217 116.832  1.00  0.00    -0.388 OA
ATOM     33  H2  UNL     1      -9.870  73.378 116.817  1.00  0.00     0.210 HD
ENDBRANCH  28  32
BRANCH  29  34
HETATM   34  O3  UNL     1      -9.996  71.002 115.832  1.00  0.00    -0.390 OA
ATOM     35  H3  UNL     1      -9.549  70.212 115.553  1.00  0.00     0.210 HD
ENDBRANCH  29  34
BRANCH  30  36
HETATM   36  O4  UNL     1      -7.814  70.340 117.463  1.00  0.00    -0.391 OA
ATOM     37  H4  UNL     1      -7.633  69.747 118.183  1.00  0.00     0.210 HD
ENDBRANCH  30  36
BRANCH  31  38
HETATM   38  C22 UNL     1      -9.210  69.919 119.798  1.00  0.00     0.192 C 
BRANCH  38  39
HETATM   39  O5  UNL     1      -9.326  69.828 121.161  1.00  0.00    -0.399 OA
ATOM     40  H5  UNL     1      -9.720  70.597 121.555  1.00  0.00     0.209 HD
ENDBRANCH  38  39
ENDBRANCH  31  38
ENDBRANCH  25  26
ENDBRANCH  24  25
ENDBRANCH  23  24
ENDBRANCH   1  23
TORSDOF 16
ENDMDL
MODEL 3
REMARK VINA RESULT: -7.861243587      0.853      2.006
REMARK  16 active torsions:
REMARK  status: ('A' for Active; 'I' for Inactive)
REMARK    1  A    between atoms: C2_2  and  C3_3 
REMARK    2  A    between atoms: C11_11  and  N1_12 
REMARK    3  A    between atoms: N1_12  and  C12_13 
REMARK    4  A    between atoms: N1_12  and  C14_17 
REMARK    5  A    between atoms: C12_13  and  C13_14 
REMARK    6  A    between atoms: C13_14  and  O1_15 
REMARK    7  A    between atoms: C14_17  and  C15_18 
REMARK    8  A    between atoms: C15_18  and  C16_19 
REMARK    9  A    between atoms: C16_19  and  N2_20 
REMARK   10  A    between atoms: C18_22  and  O2_23 
REMARK   11  A    between atoms: C19_25  and  O3_26 
REMARK   12  A    between atoms: C20_28  and  O4_29 
REMARK   13  A    between atoms: C21_31  and  C22_32 
REMARK   14  A    between atoms: C22_32  and  O5_33 
REMARK   15  A    between atoms: C23_35  and  O6_36 
REMARK   16  A    between atoms: C24_38  and  O7_39 
ROOT
HETATM    1  N1  UNL     1      -9.992  77.293 119.471  1.00  0.00    -0.376 N 
ENDROOT
BRANCH   1   2
HETATM    2  C11 UNL     1     -10.081  77.361 118.062  1.00  0.00     0.067 A 
HETATM    3  C10 UNL     1     -11.355  77.355 117.481  1.00  0.00     0.040 A 
HETATM    4  C9  UNL     1     -11.490  77.420 116.134  1.00  0.00    -0.042 A 
HETATM    5  C5  UNL     1     -12.718  77.433 115.291  1.00  0.00     0.021 C 
HETATM    6  C8  UNL     1     -10.406  77.495 115.288  1.00  0.00    -0.011 A 
HETATM    7  C4  UNL     1     -12.765  76.137 114.544  1.00  0.00     0.018 C 
HETATM    8  C6  UNL     1     -12.226  78.373 114.172  1.00  0.00     0.019 C 
HETATM    9  C3  UNL     1     -11.554  76.217 113.605  1.00  0.00     0.017 C 
HETATM   10  C7  UNL     1     -10.953  77.551 113.902  1.00  0.00     0.030 C 
HETATM   11  C24 UNL     1      -9.165  77.502 115.849  1.00  0.00     0.108 A 
HETATM   12  C23 UNL     1      -9.014  77.435 117.229  1.00  0.00     0.126 A 
BRANCH   9  13
HETATM   13  C2  UNL     1     -11.946  76.044 112.184  1.00  0.00    -0.032 C 
HETATM   14  C1  UNL     1     -13.173  75.761 111.784  1.00  0.00     0.007 C 
ENDBRANCH   9  13
BRANCH  11  15
HETATM   15  O7  UNL     1      -8.050  77.576 115.011  1.00  0.00    -0.357 OA
ATOM     16  H7  UNL     1      -8.153  77.956 114.146  1.00  0.00     0.217 HD
ENDBRANCH  11  15
BRANCH  12  17
HETATM   17  O6  UNL     1      -7.699  77.450 117.686  1.00  0.00    -0.356 OA
ATOM     18  H6  UNL     1      -7.251  78.247 117.941  1.00  0.00     0.218 HD
ENDBRANCH  12  17
ENDBRANCH   1   2
BRANCH   1  19
HETATM   19  C12 UNL     1     -10.834  78.080 120.308  1.00  0.00     0.149 C 
BRANCH  19  20
HETATM   20  C13 UNL     1     -11.871  77.340 121.084  1.00  0.00     0.183 C 
BRANCH  20  21
HETATM   21  O1  UNL     1     -12.009  78.004 122.324  1.00  0.00    -0.399 OA
ATOM     22  H1  UNL     1     -12.283  77.351 122.958  1.00  0.00     0.209 HD
ENDBRANCH  20  21
ENDBRANCH  19  20
ENDBRANCH   1  19
BRANCH   1  23
HETATM   23  C14 UNL     1      -9.060  76.389 120.078  1.00  0.00     0.125 C 
BRANCH  23  24
HETATM   24  C15 UNL     1      -9.393  74.951 120.181  1.00  0.00     0.040 C 
BRANCH  24  25
HETATM   25  C16 UNL     1      -8.504  74.004 119.463  1.00  0.00     0.124 C 
BRANCH  25  26
HETATM   26  N2  UNL     1      -9.228  72.916 118.829  1.00  0.00    -0.381 N 
HETATM   27  C17 UNL     1      -8.631  72.571 117.606  1.00  0.00     0.093 C 
HETATM   28  C18 UNL     1      -8.398  71.139 117.302  1.00  0.00     0.187 C 
HETATM   29  C19 UNL     1      -9.079  70.142 118.166  1.00  0.00     0.182 C 
HETATM   30  C20 UNL     1      -9.022  70.587 119.596  1.00  0.00     0.174 C 
HETATM   31  C21 UNL     1      -9.697  71.913 119.694  1.00  0.00     0.138 C 
BRANCH  28  32
HETATM   32  O2  UNL     1      -7.009  70.890 117.417  1.00  0.00    -0.388 OA
ATOM     33  H2  UNL     1      -6.565  71.395 116.746  1.00  0.00     0.210 HD
ENDBRANCH  28  32
BRANCH  29  34
HETATM   34  O3  UNL     1      -8.468  68.875 118.032  1.00  0.00    -0.390 OA
ATOM     35  H3  UNL     1      -7.949  68.841 117.238  1.00  0.00     0.210 HD
ENDBRANCH  29  34
BRANCH  30  36
HETATM   36  O4  UNL     1      -9.666  69.680 120.436  1.00  0.00    -0.391 OA
ATOM     37  H4  UNL     1     -10.240  70.125 121.049  1.00  0.00     0.210 HD
ENDBRANCH  30  36
BRANCH  31  38
HETATM   38  C22 UNL     1     -11.192  71.734 119.420  1.00  0.00     0.192 C 
BRANCH  38  39
HETATM   39  O5  UNL     1     -11.967  71.862 120.544  1.00  0.00    -0.399 OA
ATOM     40  H5  UNL     1     -11.715  71.268 121.241  1.00  0.00     0.209 HD
ENDBRANCH  38  39
ENDBRANCH  31  38
ENDBRANCH  25  26
ENDBRANCH  24  25
ENDBRANCH  23  24
ENDBRANCH   1  23
TORSDOF 16
ENDMDL
MODEL 4
REMARK VINA RESULT: -7.774211595      2.954      7.725
REMARK  16 active torsions:
REMARK  status: ('A' for Active; 'I' for Inactive)
REMARK    1  A    between atoms: C2_2  and  C3_3 
REMARK    2  A    between atoms: C11_11  and  N1_12 
REMARK    3  A    between atoms: N1_12  and  C12_13 
REMARK    4  A    between atoms: N1_12  and  C14_17 
REMARK    5  A    between atoms: C12_13  and  C13_14 
REMARK    6  A    between atoms: C13_14  and  O1_15 
REMARK    7  A    between atoms: C14_17  and  C15_18 
REMARK    8  A    between atoms: C15_18  and  C16_19 
REMARK    9  A    between atoms: C16_19  and  N2_20 
REMARK   10  A    between atoms: C18_22  and  O2_23 
REMARK   11  A    between atoms: C19_25  and  O3_26 
REMARK   12  A    between atoms: C20_28  and  O4_29 
REMARK   13  A    between atoms: C21_31  and  C22_32 
REMARK   14  A    between atoms: C22_32  and  O5_33 
REMARK   15  A    between atoms: C23_35  and  O6_36 
REMARK   16  A    between atoms: C24_38  and  O7_39 
ROOT
HETATM    1  N1  UNL     1      -9.922  72.010 118.327  1.00  0.00    -0.376 N 
ENDROOT
BRANCH   1   2
HETATM    2  C11 UNL     1      -9.683  70.698 117.859  1.00  0.00     0.067 A 
HETATM    3  C10 UNL     1      -9.614  70.494 116.475  1.00  0.00     0.040 A 
HETATM    4  C9  UNL     1      -9.385  69.254 115.979  1.00  0.00    -0.042 A 
HETATM    5  C5  UNL     1      -9.266  68.789 114.570  1.00  0.00     0.021 C 
HETATM    6  C8  UNL     1      -9.212  68.156 116.793  1.00  0.00    -0.011 A 
HETATM    7  C4  UNL     1     -10.462  67.939 114.273  1.00  0.00     0.018 C 
HETATM    8  C6  UNL     1      -8.199  67.694 114.771  1.00  0.00     0.019 C 
HETATM    9  C3  UNL     1     -10.272  66.718 115.184  1.00  0.00     0.017 C 
HETATM   10  C7  UNL     1      -8.986  66.991 115.891  1.00  0.00     0.030 C 
HETATM   11  C24 UNL     1      -9.277  68.350 118.140  1.00  0.00     0.108 A 
HETATM   12  C23 UNL     1      -9.511  69.618 118.659  1.00  0.00     0.126 A 
BRANCH   9  13
HETATM   13  C2  UNL     1     -10.270  65.451 114.412  1.00  0.00    -0.032 C 
HETATM   14  C1  UNL     1     -11.321  64.662 114.281  1.00  0.00     0.007 C 
ENDBRANCH   9  13
BRANCH  11  15
HETATM   15  O7  UNL     1      -9.105  67.252 118.985  1.00  0.00    -0.357 OA
ATOM     16  H7  UNL     1      -8.345  66.694 118.861  1.00  0.00     0.217 HD
ENDBRANCH  11  15
BRANCH  12  17
HETATM   17  O6  UNL     1      -9.556  69.693 120.049  1.00  0.00    -0.356 OA
ATOM     18  H6  UNL     1     -10.058  69.088 120.582  1.00  0.00     0.218 HD
ENDBRANCH  12  17
ENDBRANCH   1   2
BRANCH   1  19
HETATM   19  C12 UNL     1      -8.922  72.743 119.029  1.00  0.00     0.149 C 
BRANCH  19  20
HETATM   20  C13 UNL     1      -9.316  73.284 120.363  1.00  0.00     0.183 C 
BRANCH  20  21
HETATM   21  O1  UNL     1      -9.350  72.191 121.257  1.00  0.00    -0.399 OA
ATOM     22  H1  UNL     1      -8.779  72.410 121.984  1.00  0.00     0.209 HD
ENDBRANCH  20  21
ENDBRANCH  19  20
ENDBRANCH   1  19
BRANCH   1  23
HETATM   23  C14 UNL     1     -11.184  72.636 118.063  1.00  0.00     0.125 C 
BRANCH  23  24
HETATM   24  C15 UNL     1     -11.222  73.985 117.456  1.00  0.00     0.040 C 
BRANCH  24  25
HETATM   25  C16 UNL     1     -12.091  74.991 118.114  1.00  0.00     0.124 C 
BRANCH  25  26
HETATM   26  N2  UNL     1     -11.454  76.290 118.251  1.00  0.00    -0.381 N 
HETATM   27  C17 UNL     1     -12.017  77.007 119.318  1.00  0.00     0.093 C 
HETATM   28  C18 UNL     1     -11.116  77.682 120.282  1.00  0.00     0.187 C 
HETATM   29  C19 UNL     1      -9.687  77.814 119.898  1.00  0.00     0.182 C 
HETATM   30  C20 UNL     1      -9.218  76.549 119.247  1.00  0.00     0.174 C 
HETATM   31  C21 UNL     1     -10.064  76.309 118.042  1.00  0.00     0.138 C 
BRANCH  28  32
HETATM   32  O2  UNL     1     -11.141  76.944 121.491  1.00  0.00    -0.388 OA
ATOM     33  H2  UNL     1     -10.283  77.014 121.894  1.00  0.00     0.210 HD
ENDBRANCH  28  32
BRANCH  29  34
HETATM   34  O3  UNL     1      -8.896  78.091 121.035  1.00  0.00    -0.390 OA
ATOM     35  H3  UNL     1      -8.010  78.315 120.775  1.00  0.00     0.210 HD
ENDBRANCH  29  34
BRANCH  30  36
HETATM   36  O4  UNL     1      -7.883  76.643 118.859  1.00  0.00    -0.391 OA
ATOM     37  H4  UNL     1      -7.603  75.864 118.392  1.00  0.00     0.210 HD
ENDBRANCH  30  36
BRANCH  31  38
HETATM   38  C22 UNL     1      -9.773  77.393 117.003  1.00  0.00     0.192 C 
BRANCH  38  39
HETATM   39  O5  UNL     1      -8.620  77.166 116.295  1.00  0.00    -0.399 OA
ATOM     40  H5  UNL     1      -7.866  77.618 116.654  1.00  0.00     0.209 HD
ENDBRANCH  38  39
ENDBRANCH  31  38
ENDBRANCH  25  26
ENDBRANCH  24  25
ENDBRANCH  23  24
ENDBRANCH   1  23
TORSDOF 16
ENDMDL
MODEL 5
REMARK VINA RESULT: -7.582902869      3.171      4.792
REMARK  16 active torsions:
REMARK  status: ('A' for Active; 'I' for Inactive)
REMARK    1  A    between atoms: C2_2  and  C3_3 
REMARK    2  A    between atoms: C11_11  and  N1_12 
REMARK    3  A    between atoms: N1_12  and  C12_13 
REMARK    4  A    between atoms: N1_12  and  C14_17 
REMARK    5  A    between atoms: C12_13  and  C13_14 
REMARK    6  A    between atoms: C13_14  and  O1_15 
REMARK    7  A    between atoms: C14_17  and  C15_18 
REMARK    8  A    between atoms: C15_18  and  C16_19 
REMARK    9  A    between atoms: C16_19  and  N2_20 
REMARK   10  A    between atoms: C18_22  and  O2_23 
REMARK   11  A    between atoms: C19_25  and  O3_26 
REMARK   12  A    between atoms: C20_28  and  O4_29 
REMARK   13  A    between atoms: C21_31  and  C22_32 
REMARK   14  A    between atoms: C22_32  and  O5_33 
REMARK   15  A    between atoms: C23_35  and  O6_36 
REMARK   16  A    between atoms: C24_38  and  O7_39 
ROOT
HETATM    1  N1  UNL     1     -10.854  76.793 120.178  1.00  0.00    -0.376 N 
ENDROOT
BRANCH   1   2
HETATM    2  C11 UNL     1     -12.055  77.537 120.165  1.00  0.00     0.067 A 
HETATM    3  C10 UNL     1     -12.726  77.685 118.944  1.00  0.00     0.040 A 
HETATM    4  C9  UNL     1     -13.882  78.388 118.883  1.00  0.00    -0.042 A 
HETATM    5  C5  UNL     1     -14.770  78.679 117.723  1.00  0.00     0.021 C 
HETATM    6  C8  UNL     1     -14.444  78.980 119.993  1.00  0.00    -0.011 A 
HETATM    7  C4  UNL     1     -14.665  80.143 117.431  1.00  0.00     0.018 C 
HETATM    8  C6  UNL     1     -16.129  78.644 118.451  1.00  0.00     0.019 C 
HETATM    9  C3  UNL     1     -15.286  80.804 118.671  1.00  0.00     0.017 C 
HETATM   10  C7  UNL     1     -15.691  79.652 119.529  1.00  0.00     0.030 C 
HETATM   11  C24 UNL     1     -13.796  78.838 121.183  1.00  0.00     0.108 A 
HETATM   12  C23 UNL     1     -12.609  78.119 121.257  1.00  0.00     0.126 A 
BRANCH   9  13
HETATM   13  C2  UNL     1     -16.411  81.702 118.310  1.00  0.00    -0.032 C 
HETATM   14  C1  UNL     1     -16.742  82.784 118.992  1.00  0.00     0.007 C 
ENDBRANCH   9  13
BRANCH  11  15
HETATM   15  O7  UNL     1     -14.345  79.429 122.322  1.00  0.00    -0.357 OA
ATOM     16  H7  UNL     1     -14.802  78.879 122.947  1.00  0.00     0.217 HD
ENDBRANCH  11  15
BRANCH  12  17
HETATM   17  O6  UNL     1     -12.038  78.042 122.525  1.00  0.00    -0.356 OA
ATOM     18  H6  UNL     1     -12.548  77.889 123.311  1.00  0.00     0.218 HD
ENDBRANCH  12  17
ENDBRANCH   1   2
BRANCH   1  19
HETATM   19  C12 UNL     1      -9.596  77.405 119.911  1.00  0.00     0.149 C 
BRANCH  19  20
HETATM   20  C13 UNL     1      -8.421  76.845 120.641  1.00  0.00     0.183 C 
BRANCH  20  21
HETATM   21  O1  UNL     1      -7.882  77.895 121.419  1.00  0.00    -0.399 OA
ATOM     22  H1  UNL     1      -7.347  77.493 122.094  1.00  0.00     0.209 HD
ENDBRANCH  20  21
ENDBRANCH  19  20
ENDBRANCH   1  19
BRANCH   1  23
HETATM   23  C14 UNL     1     -10.891  75.396 120.500  1.00  0.00     0.125 C 
BRANCH  23  24
HETATM   24  C15 UNL     1     -11.037  74.397 119.418  1.00  0.00     0.040 C 
BRANCH  24  25
HETATM   25  C16 UNL     1      -9.907  74.272 118.466  1.00  0.00     0.124 C 
BRANCH  25  26
HETATM   26  N2  UNL     1      -9.022  73.162 118.779  1.00  0.00    -0.381 N 
HETATM   27  C17 UNL     1      -9.073  72.860 120.149  1.00  0.00     0.093 C 
HETATM   28  C18 UNL     1      -9.208  71.444 120.565  1.00  0.00     0.187 C 
HETATM   29  C19 UNL     1      -8.978  70.406 119.528  1.00  0.00     0.182 C 
HETATM   30  C20 UNL     1      -9.604  70.833 118.236  1.00  0.00     0.174 C 
HETATM   31  C21 UNL     1      -8.986  72.127 117.829  1.00  0.00     0.138 C 
BRANCH  28  32
HETATM   32  O2  UNL     1     -10.529  71.253 121.039  1.00  0.00    -0.388 OA
ATOM     33  H2  UNL     1     -10.689  70.318 121.089  1.00  0.00     0.210 HD
ENDBRANCH  28  32
BRANCH  29  34
HETATM   34  O3  UNL     1      -9.523  69.169 119.940  1.00  0.00    -0.390 OA
ATOM     35  H3  UNL     1     -10.447  69.263 120.135  1.00  0.00     0.210 HD
ENDBRANCH  29  34
BRANCH  30  36
HETATM   36  O4  UNL     1      -9.395  69.888 117.234  1.00  0.00    -0.391 OA
ATOM     37  H4  UNL     1     -10.215  69.503 116.945  1.00  0.00     0.210 HD
ENDBRANCH  30  36
BRANCH  31  38
HETATM   38  C22 UNL     1      -7.518  71.888 117.469  1.00  0.00     0.192 C 
BRANCH  38  39
HETATM   39  O5  UNL     1      -7.286  71.886 116.117  1.00  0.00    -0.399 OA
ATOM     40  H5  UNL     1      -7.658  71.132 115.675  1.00  0.00     0.209 HD
ENDBRANCH  38  39
ENDBRANCH  31  38
ENDBRANCH  25  26
ENDBRANCH  24  25
ENDBRANCH  23  24
ENDBRANCH   1  23
TORSDOF 16
ENDMDL
