MODEL 1
REMARK VINA RESULT: -8.431614508      0.000      0.000
REMARK  10 active torsions:
REMARK  status: ('A' for Active; 'I' for Inactive)
REMARK    1  A    between atoms: C4_4  and  C5_5 
REMARK    2  A    between atoms: C8_12  and  N3_13 
REMARK    3  A    between atoms: C10_20  and  C11_21 
REMARK    4  A    between atoms: C11_21  and  N5_22 
REMARK    5  A    between atoms: C11_21  and  N6_26 
REMARK    6  A    between atoms: N6_26  and  C12_28 
REMARK    7  A    between atoms: C12_28  and  O2_29 
REMARK    8  A    between atoms: C13_31  and  N7_32 
REMARK    9  A    between atoms: C13_31  and  C14_35 
REMARK   10  A    between atoms: C14_35  and  C15_36 
ROOT
HETATM    1  C11 UNL     1      30.179  47.231   5.214  1.00  0.00     0.323 C 
ENDROOT
BRANCH   1   2
HETATM    2  C10 UNL     1      29.932  45.934   4.618  1.00  0.00     0.065 A 
HETATM    3  C2  UNL     1      28.687  45.630   4.099  1.00  0.00    -0.044 A 
HETATM    4  C1  UNL     1      27.569  46.606   4.181  1.00  0.00     0.049 C 
HETATM    5  C3  UNL     1      28.442  44.391   3.499  1.00  0.00     0.038 A 
HETATM    6  C4  UNL     1      29.424  43.430   3.402  1.00  0.00     0.051 A 
HETATM    7  N4  UNL     1      30.620  43.730   3.905  1.00  0.00    -0.322 N 
HETATM    8  C9  UNL     1      30.871  44.942   4.496  1.00  0.00     0.256 A 
ATOM      9  H4  UNL     1      31.369  43.040   3.850  1.00  0.00     0.169 HD
HETATM   10  O1  UNL     1      32.007  45.187   4.959  1.00  0.00    -0.267 OA
BRANCH   6  11
HETATM   11  C5  UNL     1      29.102  42.099   2.834  1.00  0.00     0.059 A 
HETATM   12  C6  UNL     1      28.920  41.768   1.514  1.00  0.00     0.038 A 
HETATM   13  C7  UNL     1      29.098  42.624   0.295  1.00  0.00     0.071 C 
HETATM   14  N1  UNL     1      28.567  40.473   1.426  1.00  0.00    -0.303 N 
HETATM   15  N2  UNL     1      28.519  39.970   2.625  1.00  0.00    -0.285 N 
ATOM     16  H1  UNL     1      28.368  39.969   0.562  1.00  0.00     0.186 HD
HETATM   17  C8  UNL     1      28.842  40.936   3.552  1.00  0.00     0.128 A 
ATOM     18  H2  UNL     1      28.277  39.004   2.845  1.00  0.00     0.188 HD
BRANCH  17  19
HETATM   19  N3  UNL     1      28.823  40.708   4.788  1.00  0.00    -0.384 N 
ATOM     20  H32 UNL     1      28.776  41.459   5.476  1.00  0.00     0.157 HD
ATOM     21  H31 UNL     1      28.887  39.837   5.315  1.00  0.00     0.157 HD
ENDBRANCH  17  19
ENDBRANCH   6  11
ENDBRANCH   1   2
BRANCH   1  22
HETATM   22  N5  UNL     1      31.055  48.108   4.497  1.00  0.00    -0.054 N 
ATOM     23  H53 UNL     1      31.889  48.291   5.055  1.00  0.00     0.277 HD
ATOM     24  H52 UNL     1      31.464  47.612   3.706  1.00  0.00     0.277 HD
ATOM     25  H51 UNL     1      30.655  48.991   4.178  1.00  0.00     0.277 HD
ENDBRANCH   1  22
BRANCH   1  26
HETATM   26  N6  UNL     1      30.581  47.275   6.605  1.00  0.00    -0.338 N 
ATOM     27  H6  UNL     1      31.331  46.656   6.913  1.00  0.00     0.164 HD
BRANCH  26  28
HETATM   28  C12 UNL     1      29.986  48.127   7.551  1.00  0.00     0.168 C 
HETATM   29  C13 UNL     1      29.439  47.915   8.871  1.00  0.00     0.150 C 
BRANCH  28  30
HETATM   30  O2  UNL     1      29.926  49.365   7.144  1.00  0.00    -0.345 OA
ATOM     31  H2  UNL     1      29.326  49.891   7.661  1.00  0.00     0.219 HD
ENDBRANCH  28  30
BRANCH  29  32
HETATM   32  N7  UNL     1      28.914  49.135   9.477  1.00  0.00    -0.114 N 
HETATM   33  O3  UNL     1      27.812  49.636   9.190  1.00  0.00    -0.532 OA
HETATM   34  O4  UNL     1      29.622  49.840  10.443  1.00  0.00    -0.532 OA
ENDBRANCH  29  32
BRANCH  29  35
HETATM   35  C14 UNL     1      28.575  46.734   9.125  1.00  0.00     0.101 C 
HETATM   36  C16 UNL     1      27.718  46.823  10.345  1.00  0.00     0.027 C 
HETATM   37  C17 UNL     1      28.087  45.703  11.285  1.00  0.00     0.002 C 
HETATM   38  C18 UNL     1      29.427  45.218  10.846  1.00  0.00     0.002 C 
HETATM   39  C19 UNL     1      29.467  45.504   9.390  1.00  0.00     0.027 C 
BRANCH  35  40
HETATM   40  C15 UNL     1      27.741  46.393   7.956  1.00  0.00     0.188 C 
HETATM   41  O5  UNL     1      27.940  45.315   7.299  1.00  0.00    -0.647 OA
HETATM   42  O6  UNL     1      26.710  47.201   7.514  1.00  0.00    -0.647 OA
ENDBRANCH  35  40
ENDBRANCH  29  35
ENDBRANCH  26  28
ENDBRANCH   1  26
TORSDOF 10
ENDMDL
MODEL 2
REMARK VINA RESULT: -8.238708483      2.749      8.491
REMARK  10 active torsions:
REMARK  status: ('A' for Active; 'I' for Inactive)
REMARK    1  A    between atoms: C4_4  and  C5_5 
REMARK    2  A    between atoms: C8_12  and  N3_13 
REMARK    3  A    between atoms: C10_20  and  C11_21 
REMARK    4  A    between atoms: C11_21  and  N5_22 
REMARK    5  A    between atoms: C11_21  and  N6_26 
REMARK    6  A    between atoms: N6_26  and  C12_28 
REMARK    7  A    between atoms: C12_28  and  O2_29 
REMARK    8  A    between atoms: C13_31  and  N7_32 
REMARK    9  A    between atoms: C13_31  and  C14_35 
REMARK   10  A    between atoms: C14_35  and  C15_36 
ROOT
HETATM    1  C11 UNL     1      31.025  46.726   4.670  1.00  0.00     0.323 C 
ENDROOT
BRANCH   1   2
HETATM    2  C10 UNL     1      30.931  47.561   5.849  1.00  0.00     0.065 A 
HETATM    3  C2  UNL     1      31.945  47.557   6.790  1.00  0.00    -0.044 A 
HETATM    4  C1  UNL     1      33.125  46.668   6.633  1.00  0.00     0.049 C 
HETATM    5  C3  UNL     1      31.878  48.377   7.921  1.00  0.00     0.038 A 
HETATM    6  C4  UNL     1      30.808  49.215   8.142  1.00  0.00     0.051 A 
HETATM    7  N4  UNL     1      29.835  49.212   7.233  1.00  0.00    -0.322 N 
HETATM    8  C9  UNL     1      29.890  48.412   6.120  1.00  0.00     0.256 A 
ATOM      9  H4  UNL     1      29.028  49.820   7.367  1.00  0.00     0.169 HD
HETATM   10  O1  UNL     1      28.957  48.436   5.288  1.00  0.00    -0.267 OA
BRANCH   6  11
HETATM   11  C5  UNL     1      30.735  50.006   9.394  1.00  0.00     0.059 A 
HETATM   12  C6  UNL     1      31.650  50.911   9.873  1.00  0.00     0.038 A 
HETATM   13  C7  UNL     1      32.901  51.419   9.221  1.00  0.00     0.071 C 
HETATM   14  N1  UNL     1      31.247  51.353  11.078  1.00  0.00    -0.303 N 
HETATM   15  N2  UNL     1      30.122  50.773  11.383  1.00  0.00    -0.285 N 
ATOM     16  H1  UNL     1      31.741  52.031  11.658  1.00  0.00     0.186 HD
HETATM   17  C8  UNL     1      29.748  49.917  10.371  1.00  0.00     0.128 A 
ATOM     18  H2  UNL     1      29.597  50.929  12.243  1.00  0.00     0.188 HD
BRANCH  17  19
HETATM   19  N3  UNL     1      28.716  49.202  10.448  1.00  0.00    -0.384 N 
ATOM     20  H32 UNL     1      28.014  49.184   9.709  1.00  0.00     0.157 HD
ATOM     21  H31 UNL     1      28.371  48.594  11.189  1.00  0.00     0.157 HD
ENDBRANCH  17  19
ENDBRANCH   6  11
ENDBRANCH   1   2
BRANCH   1  22
HETATM   22  N5  UNL     1      31.390  47.381   3.450  1.00  0.00    -0.054 N 
ATOM     23  H53 UNL     1      31.796  46.703   2.805  1.00  0.00     0.277 HD
ATOM     24  H52 UNL     1      30.549  47.645   2.938  1.00  0.00     0.277 HD
ATOM     25  H51 UNL     1      32.008  48.188   3.532  1.00  0.00     0.277 HD
ENDBRANCH   1  22
BRANCH   1  26
HETATM   26  N6  UNL     1      29.911  45.852   4.365  1.00  0.00    -0.338 N 
ATOM     27  H6  UNL     1      29.006  46.274   4.157  1.00  0.00     0.164 HD
BRANCH  26  28
HETATM   28  C12 UNL     1      30.016  44.450   4.343  1.00  0.00     0.168 C 
HETATM   29  C13 UNL     1      29.921  43.466   3.291  1.00  0.00     0.150 C 
BRANCH  28  30
HETATM   30  O2  UNL     1      30.255  43.945   5.522  1.00  0.00    -0.345 OA
ATOM     31  H2  UNL     1      30.977  43.328   5.517  1.00  0.00     0.219 HD
ENDBRANCH  28  30
BRANCH  29  32
HETATM   32  N7  UNL     1      30.096  42.097   3.768  1.00  0.00    -0.114 N 
HETATM   33  O3  UNL     1      29.304  41.520   4.534  1.00  0.00    -0.532 OA
HETATM   34  O4  UNL     1      31.186  41.321   3.390  1.00  0.00    -0.532 OA
ENDBRANCH  29  32
BRANCH  29  35
HETATM   35  C14 UNL     1      28.844  43.581   2.275  1.00  0.00     0.101 C 
HETATM   36  C16 UNL     1      28.498  42.313   1.566  1.00  0.00     0.027 C 
HETATM   37  C17 UNL     1      28.754  42.491   0.090  1.00  0.00     0.002 C 
HETATM   38  C18 UNL     1      29.646  43.680  -0.034  1.00  0.00     0.002 C 
HETATM   39  C19 UNL     1      29.314  44.519   1.144  1.00  0.00     0.027 C 
BRANCH  35  40
HETATM   40  C15 UNL     1      27.618  44.189   2.829  1.00  0.00     0.188 C 
HETATM   41  O5  UNL     1      26.802  43.499   3.530  1.00  0.00    -0.647 OA
HETATM   42  O6  UNL     1      27.289  45.518   2.633  1.00  0.00    -0.647 OA
ENDBRANCH  35  40
ENDBRANCH  29  35
ENDBRANCH  26  28
ENDBRANCH   1  26
TORSDOF 10
ENDMDL
MODEL 3
REMARK VINA RESULT: -8.220417245      2.577      8.465
REMARK  10 active torsions:
REMARK  status: ('A' for Active; 'I' for Inactive)
REMARK    1  A    between atoms: C4_4  and  C5_5 
REMARK    2  A    between atoms: C8_12  and  N3_13 
REMARK    3  A    between atoms: C10_20  and  C11_21 
REMARK    4  A    between atoms: C11_21  and  N5_22 
REMARK    5  A    between atoms: C11_21  and  N6_26 
REMARK    6  A    between atoms: N6_26  and  C12_28 
REMARK    7  A    between atoms: C12_28  and  O2_29 
REMARK    8  A    between atoms: C13_31  and  N7_32 
REMARK    9  A    between atoms: C13_31  and  C14_35 
REMARK   10  A    between atoms: C14_35  and  C15_36 
ROOT
HETATM    1  C11 UNL     1      31.258  46.827   4.456  1.00  0.00     0.323 C 
ENDROOT
BRANCH   1   2
HETATM    2  C10 UNL     1      31.111  47.593   5.676  1.00  0.00     0.065 A 
HETATM    3  C2  UNL     1      32.111  47.585   6.631  1.00  0.00    -0.044 A 
HETATM    4  C1  UNL     1      33.333  46.760   6.447  1.00  0.00     0.049 C 
HETATM    5  C3  UNL     1      31.991  48.340   7.802  1.00  0.00     0.038 A 
HETATM    6  C4  UNL     1      30.881  49.116   8.050  1.00  0.00     0.051 A 
HETATM    7  N4  UNL     1      29.921  49.117   7.127  1.00  0.00    -0.322 N 
HETATM    8  C9  UNL     1      30.028  48.380   5.974  1.00  0.00     0.256 A 
ATOM      9  H4  UNL     1      29.086  49.680   7.280  1.00  0.00     0.169 HD
HETATM   10  O1  UNL     1      29.106  48.406   5.130  1.00  0.00    -0.267 OA
BRANCH   6  11
HETATM   11  C5  UNL     1      30.755  49.836   9.340  1.00  0.00     0.059 A 
HETATM   12  C6  UNL     1      29.761  49.714  10.279  1.00  0.00     0.038 A 
HETATM   13  C7  UNL     1      28.605  48.760  10.309  1.00  0.00     0.071 C 
HETATM   14  N1  UNL     1      29.977  50.599  11.269  1.00  0.00    -0.303 N 
HETATM   15  N2  UNL     1      31.058  51.271  11.003  1.00  0.00    -0.285 N 
ATOM     16  H1  UNL     1      29.389  50.723  12.094  1.00  0.00     0.186 HD
HETATM   17  C8  UNL     1      31.593  50.842   9.808  1.00  0.00     0.128 A 
ATOM     18  H2  UNL     1      31.451  52.006  11.591  1.00  0.00     0.188 HD
BRANCH  17  19
HETATM   19  N3  UNL     1      32.619  51.370   9.309  1.00  0.00    -0.384 N 
ATOM     20  H32 UNL     1      33.320  51.839   9.881  1.00  0.00     0.157 HD
ATOM     21  H31 UNL     1      32.921  51.474   8.340  1.00  0.00     0.157 HD
ENDBRANCH  17  19
ENDBRANCH   6  11
ENDBRANCH   1   2
BRANCH   1  22
HETATM   22  N5  UNL     1      31.649  47.555   3.286  1.00  0.00    -0.054 N 
ATOM     23  H53 UNL     1      31.494  46.981   2.457  1.00  0.00     0.277 HD
ATOM     24  H52 UNL     1      30.985  48.311   3.116  1.00  0.00     0.277 HD
ATOM     25  H51 UNL     1      32.599  47.925   3.275  1.00  0.00     0.277 HD
ENDBRANCH   1  22
BRANCH   1  26
HETATM   26  N6  UNL     1      30.173  45.950   4.067  1.00  0.00    -0.338 N 
ATOM     27  H6  UNL     1      29.308  46.371   3.726  1.00  0.00     0.164 HD
BRANCH  26  28
HETATM   28  C12 UNL     1      30.252  44.549   4.138  1.00  0.00     0.168 C 
HETATM   29  C13 UNL     1      29.988  43.493   3.189  1.00  0.00     0.150 C 
BRANCH  28  30
HETATM   30  O2  UNL     1      30.652  44.126   5.305  1.00  0.00    -0.345 OA
ATOM     31  H2  UNL     1      31.211  43.360   5.245  1.00  0.00     0.219 HD
ENDBRANCH  28  30
BRANCH  29  32
HETATM   32  N7  UNL     1      30.211  42.158   3.739  1.00  0.00    -0.114 N 
HETATM   33  O3  UNL     1      29.482  41.630   4.598  1.00  0.00    -0.532 OA
HETATM   34  O4  UNL     1      31.275  41.363   3.331  1.00  0.00    -0.532 OA
ENDBRANCH  29  32
BRANCH  29  35
HETATM   35  C14 UNL     1      28.776  43.562   2.333  1.00  0.00     0.101 C 
HETATM   36  C16 UNL     1      28.282  42.249   1.821  1.00  0.00     0.027 C 
HETATM   37  C17 UNL     1      28.322  42.265   0.313  1.00  0.00     0.002 C 
HETATM   38  C18 UNL     1      29.228  43.387  -0.065  1.00  0.00     0.002 C 
HETATM   39  C19 UNL     1      29.106  44.356   1.053  1.00  0.00     0.027 C 
BRANCH  35  40
HETATM   40  C15 UNL     1      27.671  44.285   2.991  1.00  0.00     0.188 C 
HETATM   41  O5  UNL     1      27.339  45.461   2.615  1.00  0.00    -0.647 OA
HETATM   42  O6  UNL     1      26.938  43.742   4.031  1.00  0.00    -0.647 OA
ENDBRANCH  35  40
ENDBRANCH  29  35
ENDBRANCH  26  28
ENDBRANCH   1  26
TORSDOF 10
ENDMDL
MODEL 4
REMARK VINA RESULT: -8.172513721      1.627      2.129
REMARK  10 active torsions:
REMARK  status: ('A' for Active; 'I' for Inactive)
REMARK    1  A    between atoms: C4_4  and  C5_5 
REMARK    2  A    between atoms: C8_12  and  N3_13 
REMARK    3  A    between atoms: C10_20  and  C11_21 
REMARK    4  A    between atoms: C11_21  and  N5_22 
REMARK    5  A    between atoms: C11_21  and  N6_26 
REMARK    6  A    between atoms: N6_26  and  C12_28 
REMARK    7  A    between atoms: C12_28  and  O2_29 
REMARK    8  A    between atoms: C13_31  and  N7_32 
REMARK    9  A    between atoms: C13_31  and  C14_35 
REMARK   10  A    between atoms: C14_35  and  C15_36 
ROOT
HETATM    1  C11 UNL     1      30.659  47.058   5.500  1.00  0.00     0.323 C 
ENDROOT
BRANCH   1   2
HETATM    2  C10 UNL     1      30.280  45.821   4.850  1.00  0.00     0.065 A 
HETATM    3  C2  UNL     1      28.958  45.414   4.840  1.00  0.00    -0.044 A 
HETATM    4  C1  UNL     1      27.911  46.210   5.532  1.00  0.00     0.049 C 
HETATM    5  C3  UNL     1      28.575  44.234   4.194  1.00  0.00     0.038 A 
HETATM    6  C4  UNL     1      29.492  43.436   3.547  1.00  0.00     0.051 A 
HETATM    7  N4  UNL     1      30.762  43.834   3.562  1.00  0.00    -0.322 N 
HETATM    8  C9  UNL     1      31.149  44.989   4.192  1.00  0.00     0.256 A 
ATOM      9  H4  UNL     1      31.466  43.265   3.092  1.00  0.00     0.169 HD
HETATM   10  O1  UNL     1      32.353  45.330   4.186  1.00  0.00    -0.267 OA
BRANCH   6  11
HETATM   11  C5  UNL     1      29.059  42.151   2.945  1.00  0.00     0.059 A 
HETATM   12  C6  UNL     1      28.798  41.885   1.624  1.00  0.00     0.038 A 
HETATM   13  C7  UNL     1      28.980  42.775   0.431  1.00  0.00     0.071 C 
HETATM   14  N1  UNL     1      28.357  40.620   1.505  1.00  0.00    -0.303 N 
HETATM   15  N2  UNL     1      28.328  40.074   2.686  1.00  0.00    -0.285 N 
ATOM     16  H1  UNL     1      28.090  40.164   0.633  1.00  0.00     0.186 HD
HETATM   17  C8  UNL     1      28.754  40.980   3.632  1.00  0.00     0.128 A 
ATOM     18  H2  UNL     1      28.033  39.117   2.882  1.00  0.00     0.188 HD
BRANCH  17  19
HETATM   19  N3  UNL     1      28.774  40.706   4.859  1.00  0.00    -0.384 N 
ATOM     20  H32 UNL     1      28.234  41.237   5.541  1.00  0.00     0.157 HD
ATOM     21  H31 UNL     1      29.299  40.009   5.386  1.00  0.00     0.157 HD
ENDBRANCH  17  19
ENDBRANCH   6  11
ENDBRANCH   1   2
BRANCH   1  22
HETATM   22  N5  UNL     1      30.967  48.163   4.643  1.00  0.00    -0.054 N 
ATOM     23  H53 UNL     1      31.872  48.557   4.903  1.00  0.00     0.277 HD
ATOM     24  H52 UNL     1      31.174  47.822   3.705  1.00  0.00     0.277 HD
ATOM     25  H51 UNL     1      30.271  48.908   4.592  1.00  0.00     0.277 HD
ENDBRANCH   1  22
BRANCH   1  26
HETATM   26  N6  UNL     1      31.694  47.005   6.512  1.00  0.00    -0.338 N 
ATOM     27  H6  UNL     1      32.345  46.219   6.499  1.00  0.00     0.164 HD
BRANCH  26  28
HETATM   28  C12 UNL     1      31.845  47.981   7.512  1.00  0.00     0.168 C 
HETATM   29  C13 UNL     1      31.459  48.044   8.902  1.00  0.00     0.150 C 
BRANCH  28  30
HETATM   30  O2  UNL     1      32.467  49.045   7.085  1.00  0.00    -0.345 OA
ATOM     31  H2  UNL     1      32.763  49.605   7.794  1.00  0.00     0.219 HD
ENDBRANCH  28  30
BRANCH  29  32
HETATM   32  N7  UNL     1      31.835  49.300   9.546  1.00  0.00    -0.114 N 
HETATM   33  O3  UNL     1      32.567  49.376  10.548  1.00  0.00    -0.532 OA
HETATM   34  O4  UNL     1      31.392  50.529   9.073  1.00  0.00    -0.532 OA
ENDBRANCH  29  32
BRANCH  29  35
HETATM   35  C14 UNL     1      30.111  47.574   9.311  1.00  0.00     0.101 C 
HETATM   36  C16 UNL     1      28.980  48.083   8.479  1.00  0.00     0.027 C 
HETATM   37  C17 UNL     1      28.047  48.880   9.357  1.00  0.00     0.002 C 
HETATM   38  C18 UNL     1      28.820  49.214  10.587  1.00  0.00     0.002 C 
HETATM   39  C19 UNL     1      29.798  48.107  10.724  1.00  0.00     0.027 C 
BRANCH  35  40
HETATM   40  C15 UNL     1      30.037  46.103   9.401  1.00  0.00     0.188 C 
HETATM   41  O5  UNL     1      29.771  45.394   8.371  1.00  0.00    -0.647 OA
HETATM   42  O6  UNL     1      30.253  45.415  10.581  1.00  0.00    -0.647 OA
ENDBRANCH  35  40
ENDBRANCH  29  35
ENDBRANCH  26  28
ENDBRANCH   1  26
TORSDOF 10
ENDMDL
MODEL 5
REMARK VINA RESULT: -8.158463547      1.463      1.947
REMARK  10 active torsions:
REMARK  status: ('A' for Active; 'I' for Inactive)
REMARK    1  A    between atoms: C4_4  and  C5_5 
REMARK    2  A    between atoms: C8_12  and  N3_13 
REMARK    3  A    between atoms: C10_20  and  C11_21 
REMARK    4  A    between atoms: C11_21  and  N5_22 
REMARK    5  A    between atoms: C11_21  and  N6_26 
REMARK    6  A    between atoms: N6_26  and  C12_28 
REMARK    7  A    between atoms: C12_28  and  O2_29 
REMARK    8  A    between atoms: C13_31  and  N7_32 
REMARK    9  A    between atoms: C13_31  and  C14_35 
REMARK   10  A    between atoms: C14_35  and  C15_36 
ROOT
HETATM    1  C11 UNL     1      30.551  47.081   5.818  1.00  0.00     0.323 C 
ENDROOT
BRANCH   1   2
HETATM    2  C10 UNL     1      30.202  45.852   5.136  1.00  0.00     0.065 A 
HETATM    3  C2  UNL     1      28.907  45.367   5.191  1.00  0.00    -0.044 A 
HETATM    4  C1  UNL     1      27.864  46.069   5.983  1.00  0.00     0.049 C 
HETATM    5  C3  UNL     1      28.551  44.195   4.517  1.00  0.00     0.038 A 
HETATM    6  C4  UNL     1      29.468  43.481   3.777  1.00  0.00     0.051 A 
HETATM    7  N4  UNL     1      30.712  43.954   3.730  1.00  0.00    -0.322 N 
HETATM    8  C9  UNL     1      31.073  45.103   4.387  1.00  0.00     0.256 A 
ATOM      9  H4  UNL     1      31.415  43.449   3.191  1.00  0.00     0.169 HD
HETATM   10  O1  UNL     1      32.251  45.515   4.321  1.00  0.00    -0.267 OA
BRANCH   6  11
HETATM   11  C5  UNL     1      29.071  42.199   3.146  1.00  0.00     0.059 A 
HETATM   12  C6  UNL     1      28.818  41.957   1.818  1.00  0.00     0.038 A 
HETATM   13  C7  UNL     1      28.975  42.879   0.647  1.00  0.00     0.071 C 
HETATM   14  N1  UNL     1      28.413  40.683   1.670  1.00  0.00    -0.303 N 
HETATM   15  N2  UNL     1      28.399  40.109   2.838  1.00  0.00    -0.285 N 
ATOM     16  H1  UNL     1      28.158  40.240   0.788  1.00  0.00     0.186 HD
HETATM   17  C8  UNL     1      28.799  41.005   3.804  1.00  0.00     0.128 A 
ATOM     18  H2  UNL     1      28.131  39.141   3.011  1.00  0.00     0.188 HD
BRANCH  17  19
HETATM   19  N3  UNL     1      28.826  40.702   5.025  1.00  0.00    -0.384 N 
ATOM     20  H32 UNL     1      29.144  41.358   5.738  1.00  0.00     0.157 HD
ATOM     21  H31 UNL     1      28.608  39.832   5.509  1.00  0.00     0.157 HD
ENDBRANCH  17  19
ENDBRANCH   6  11
ENDBRANCH   1   2
BRANCH   1  22
HETATM   22  N5  UNL     1      30.870  48.205   4.988  1.00  0.00    -0.054 N 
ATOM     23  H53 UNL     1      31.630  48.739   5.411  1.00  0.00     0.277 HD
ATOM     24  H52 UNL     1      31.323  47.882   4.134  1.00  0.00     0.277 HD
ATOM     25  H51 UNL     1      30.100  48.831   4.753  1.00  0.00     0.277 HD
ENDBRANCH   1  22
BRANCH   1  26
HETATM   26  N6  UNL     1      31.560  47.021   6.856  1.00  0.00    -0.338 N 
ATOM     27  H6  UNL     1      32.114  46.169   6.944  1.00  0.00     0.164 HD
BRANCH  26  28
HETATM   28  C12 UNL     1      31.812  48.077   7.748  1.00  0.00     0.168 C 
HETATM   29  C13 UNL     1      31.432  48.329   9.118  1.00  0.00     0.150 C 
BRANCH  28  30
HETATM   30  O2  UNL     1      32.545  49.017   7.219  1.00  0.00    -0.345 OA
ATOM     31  H2  UNL     1      33.004  49.534   7.871  1.00  0.00     0.219 HD
ENDBRANCH  28  30
BRANCH  29  32
HETATM   32  N7  UNL     1      31.938  49.600   9.629  1.00  0.00    -0.114 N 
HETATM   33  O3  UNL     1      32.869  49.699  10.449  1.00  0.00    -0.532 OA
HETATM   34  O4  UNL     1      31.405  50.819   9.226  1.00  0.00    -0.532 OA
ENDBRANCH  29  32
BRANCH  29  35
HETATM   35  C14 UNL     1      30.041  48.052   9.556  1.00  0.00     0.101 C 
HETATM   36  C16 UNL     1      29.798  48.176  11.024  1.00  0.00     0.027 C 
HETATM   37  C17 UNL     1      29.338  46.843  11.559  1.00  0.00     0.002 C 
HETATM   38  C18 UNL     1      29.717  45.832  10.531  1.00  0.00     0.002 C 
HETATM   39  C19 UNL     1      29.698  46.580   9.249  1.00  0.00     0.027 C 
BRANCH  35  40
HETATM   40  C15 UNL     1      29.053  48.866   8.820  1.00  0.00     0.188 C 
HETATM   41  O5  UNL     1      28.014  49.325   9.405  1.00  0.00    -0.647 OA
HETATM   42  O6  UNL     1      29.193  49.178   7.481  1.00  0.00    -0.647 OA
ENDBRANCH  35  40
ENDBRANCH  29  35
ENDBRANCH  26  28
ENDBRANCH   1  26
TORSDOF 10
ENDMDL
