MODEL 1
REMARK VINA RESULT: -5.580592539      0.000      0.000
REMARK  3 active torsions:
REMARK  status: ('A' for Active; 'I' for Inactive)
REMARK       I    between atoms: C1_4  and  N3_6 
REMARK    1  A    between atoms: N3_6  and  S1_8 
REMARK    2  A    between atoms: S1_8  and  N4_9 
REMARK    3  A    between atoms: S1_8  and  N5_13 
ROOT
HETATM    1  S1  UNL     1      26.237  40.195  72.416  1.00  0.00     0.178 S 
HETATM    2  O1  UNL     1      25.896  38.757  72.186  1.00  0.00    -0.211 OA
ENDROOT
BRANCH   1   3
HETATM    3  N3  UNL     1      24.838  41.206  72.429  1.00  0.00    -0.263 N 
HETATM    4  C1  UNL     1      24.995  42.563  72.054  1.00  0.00     0.195 C 
HETATM    5  N1  UNL     1      24.608  43.057  70.933  1.00  0.00    -0.373 N 
HETATM    6  N2  UNL     1      25.621  43.438  72.977  1.00  0.00    -0.063 NA
ATOM      7  H12 UNL     1      24.722  44.034  70.663  1.00  0.00     0.158 HD
ATOM      8  H11 UNL     1      24.157  42.428  70.269  1.00  0.00     0.158 HD
ATOM      9  H3  UNL     1      23.926  40.837  72.698  1.00  0.00     0.181 HD
ENDBRANCH   1   3
BRANCH   1  10
HETATM   10  N4  UNL     1      26.892  40.287  73.839  1.00  0.00    -0.332 N 
ATOM     11  H42 UNL     1      26.423  40.086  74.723  1.00  0.00     0.168 HD
ATOM     12  H41 UNL     1      27.860  40.582  73.709  1.00  0.00     0.168 HD
ENDBRANCH   1  10
BRANCH   1  13
HETATM   13  N5  UNL     1      27.345  40.726  71.191  1.00  0.00    -0.211 NA
HETATM   14  C2  UNL     1      27.417  39.784  70.094  1.00  0.00     0.107 C 
HETATM   15  C3  UNL     1      28.832  39.900  69.532  1.00  0.00     0.017 C 
HETATM   16  C4  UNL     1      29.592  40.709  70.561  1.00  0.00     0.017 C 
HETATM   17  C5  UNL     1      28.689  40.615  71.762  1.00  0.00     0.107 C 
ENDBRANCH   1  13
TORSDOF 3
ENDMDL
MODEL 2
REMARK VINA RESULT: -5.483377397      0.719      1.321
REMARK  3 active torsions:
REMARK  status: ('A' for Active; 'I' for Inactive)
REMARK       I    between atoms: C1_4  and  N3_6 
REMARK    1  A    between atoms: N3_6  and  S1_8 
REMARK    2  A    between atoms: S1_8  and  N4_9 
REMARK    3  A    between atoms: S1_8  and  N5_13 
ROOT
HETATM    1  S1  UNL     1      26.116  39.841  72.693  1.00  0.00     0.178 S 
HETATM    2  O1  UNL     1      25.428  38.542  72.975  1.00  0.00    -0.211 OA
ENDROOT
BRANCH   1   3
HETATM    3  N3  UNL     1      25.081  40.969  71.895  1.00  0.00    -0.263 N 
HETATM    4  C1  UNL     1      25.466  42.332  71.887  1.00  0.00     0.195 C 
HETATM    5  N1  UNL     1      25.936  42.949  70.863  1.00  0.00    -0.373 N 
HETATM    6  N2  UNL     1      25.323  43.069  73.091  1.00  0.00    -0.063 NA
ATOM      7  H12 UNL     1      26.213  43.931  70.857  1.00  0.00     0.158 HD
ATOM      8  H11 UNL     1      26.038  42.419  69.998  1.00  0.00     0.158 HD
ATOM      9  H3  UNL     1      24.219  40.664  71.444  1.00  0.00     0.181 HD
ENDBRANCH   1   3
BRANCH   1  10
HETATM   10  N4  UNL     1      26.505  40.463  74.080  1.00  0.00    -0.332 N 
ATOM     11  H42 UNL     1      26.095  41.303  74.490  1.00  0.00     0.168 HD
ATOM     12  H41 UNL     1      27.234  39.874  74.483  1.00  0.00     0.168 HD
ENDBRANCH   1  10
BRANCH   1  13
HETATM   13  N5  UNL     1      27.529  39.545  71.731  1.00  0.00    -0.211 NA
HETATM   14  C2  UNL     1      28.533  40.568  71.933  1.00  0.00     0.107 C 
HETATM   15  C3  UNL     1      29.299  40.672  70.615  1.00  0.00     0.017 C 
HETATM   16  C4  UNL     1      28.467  39.889  69.621  1.00  0.00     0.017 C 
HETATM   17  C5  UNL     1      27.146  39.781  70.336  1.00  0.00     0.107 C 
ENDBRANCH   1  13
TORSDOF 3
ENDMDL
MODEL 3
REMARK VINA RESULT: -5.468842233      2.174      3.077
REMARK  3 active torsions:
REMARK  status: ('A' for Active; 'I' for Inactive)
REMARK       I    between atoms: C1_4  and  N3_6 
REMARK    1  A    between atoms: N3_6  and  S1_8 
REMARK    2  A    between atoms: S1_8  and  N4_9 
REMARK    3  A    between atoms: S1_8  and  N5_13 
ROOT
HETATM    1  S1  UNL     1      26.049  42.208  72.390  1.00  0.00     0.178 S 
HETATM    2  O1  UNL     1      25.910  43.573  72.988  1.00  0.00    -0.211 OA
ENDROOT
BRANCH   1   3
HETATM    3  N3  UNL     1      26.762  41.083  73.487  1.00  0.00    -0.263 N 
HETATM    4  C1  UNL     1      26.534  39.703  73.265  1.00  0.00     0.195 C 
HETATM    5  N1  UNL     1      27.408  38.887  72.795  1.00  0.00    -0.373 N 
HETATM    6  N2  UNL     1      25.253  39.182  73.583  1.00  0.00    -0.063 NA
ATOM      7  H12 UNL     1      27.244  37.893  72.636  1.00  0.00     0.158 HD
ATOM      8  H11 UNL     1      28.330  39.261  72.568  1.00  0.00     0.158 HD
ATOM      9  H3  UNL     1      27.331  41.402  74.271  1.00  0.00     0.181 HD
ENDBRANCH   1   3
BRANCH   1  10
HETATM   10  N4  UNL     1      24.599  41.698  72.075  1.00  0.00    -0.332 N 
ATOM     11  H42 UNL     1      24.252  40.753  72.244  1.00  0.00     0.168 HD
ATOM     12  H41 UNL     1      24.081  42.481  71.675  1.00  0.00     0.168 HD
ENDBRANCH   1  10
BRANCH   1  13
HETATM   13  N5  UNL     1      26.996  42.310  70.941  1.00  0.00    -0.211 NA
HETATM   14  C2  UNL     1      26.674  41.243  70.018  1.00  0.00     0.107 C 
HETATM   15  C3  UNL     1      27.955  40.960  69.236  1.00  0.00     0.017 C 
HETATM   16  C4  UNL     1      29.039  41.701  69.989  1.00  0.00     0.017 C 
HETATM   17  C5  UNL     1      28.373  41.971  71.312  1.00  0.00     0.107 C 
ENDBRANCH   1  13
TORSDOF 3
ENDMDL
MODEL 4
REMARK VINA RESULT: -5.356576818      2.487      3.547
REMARK  3 active torsions:
REMARK  status: ('A' for Active; 'I' for Inactive)
REMARK       I    between atoms: C1_4  and  N3_6 
REMARK    1  A    between atoms: N3_6  and  S1_8 
REMARK    2  A    between atoms: S1_8  and  N4_9 
REMARK    3  A    between atoms: S1_8  and  N5_13 
ROOT
HETATM    1  S1  UNL     1      25.844  41.899  72.266  1.00  0.00     0.178 S 
HETATM    2  O1  UNL     1      26.068  43.356  72.524  1.00  0.00    -0.211 OA
ENDROOT
BRANCH   1   3
HETATM    3  N3  UNL     1      26.367  40.913  73.583  1.00  0.00    -0.263 N 
HETATM    4  C1  UNL     1      26.521  39.524  73.353  1.00  0.00     0.195 C 
HETATM    5  N1  UNL     1      27.654  38.928  73.237  1.00  0.00    -0.373 N 
HETATM    6  N2  UNL     1      25.348  38.735  73.243  1.00  0.00    -0.063 NA
ATOM      7  H12 UNL     1      27.765  37.928  73.072  1.00  0.00     0.158 HD
ATOM      8  H11 UNL     1      28.497  39.496  73.317  1.00  0.00     0.158 HD
ATOM      9  H3  UNL     1      26.558  41.319  74.499  1.00  0.00     0.181 HD
ENDBRANCH   1   3
BRANCH   1  10
HETATM   10  N4  UNL     1      24.295  41.694  72.115  1.00  0.00    -0.332 N 
ATOM     11  H42 UNL     1      23.703  41.157  72.749  1.00  0.00     0.168 HD
ATOM     12  H41 UNL     1      24.004  42.193  71.275  1.00  0.00     0.168 HD
ENDBRANCH   1  10
BRANCH   1  13
HETATM   13  N5  UNL     1      26.672  41.440  70.813  1.00  0.00    -0.211 NA
HETATM   14  C2  UNL     1      26.810  42.557  69.903  1.00  0.00     0.107 C 
HETATM   15  C3  UNL     1      26.811  41.958  68.498  1.00  0.00     0.017 C 
HETATM   16  C4  UNL     1      26.363  40.524  68.688  1.00  0.00     0.017 C 
HETATM   17  C5  UNL     1      25.763  40.565  70.068  1.00  0.00     0.107 C 
ENDBRANCH   1  13
TORSDOF 3
ENDMDL
MODEL 5
REMARK VINA RESULT: -5.351995780      2.444      3.332
REMARK  3 active torsions:
REMARK  status: ('A' for Active; 'I' for Inactive)
REMARK       I    between atoms: C1_4  and  N3_6 
REMARK    1  A    between atoms: N3_6  and  S1_8 
REMARK    2  A    between atoms: S1_8  and  N4_9 
REMARK    3  A    between atoms: S1_8  and  N5_13 
ROOT
HETATM    1  S1  UNL     1      25.529  41.596  71.690  1.00  0.00     0.178 S 
HETATM    2  O1  UNL     1      24.317  42.455  71.869  1.00  0.00    -0.211 OA
ENDROOT
BRANCH   1   3
HETATM    3  N3  UNL     1      26.057  40.890  73.174  1.00  0.00    -0.263 N 
HETATM    4  C1  UNL     1      26.318  39.498  73.191  1.00  0.00     0.195 C 
HETATM    5  N1  UNL     1      27.493  38.979  73.218  1.00  0.00    -0.373 N 
HETATM    6  N2  UNL     1      25.209  38.614  73.178  1.00  0.00    -0.063 NA
ATOM      7  H12 UNL     1      27.680  37.976  73.231  1.00  0.00     0.158 HD
ATOM      8  H11 UNL     1      28.290  39.614  73.228  1.00  0.00     0.158 HD
ATOM      9  H3  UNL     1      26.177  41.458  74.013  1.00  0.00     0.181 HD
ENDBRANCH   1   3
BRANCH   1  10
HETATM   10  N4  UNL     1      25.120  40.421  70.733  1.00  0.00    -0.332 N 
ATOM     11  H42 UNL     1      25.620  40.142  69.888  1.00  0.00     0.168 HD
ATOM     12  H41 UNL     1      24.272  40.001  71.114  1.00  0.00     0.168 HD
ENDBRANCH   1  10
BRANCH   1  13
HETATM   13  N5  UNL     1      26.805  42.543  70.994  1.00  0.00    -0.211 NA
HETATM   14  C2  UNL     1      26.483  42.961  69.646  1.00  0.00     0.107 C 
HETATM   15  C3  UNL     1      27.816  43.071  68.909  1.00  0.00     0.017 C 
HETATM   16  C4  UNL     1      28.821  42.403  69.824  1.00  0.00     0.017 C 
HETATM   17  C5  UNL     1      27.927  41.630  70.758  1.00  0.00     0.107 C 
ENDBRANCH   1  13
TORSDOF 3
ENDMDL
