MODEL 1
REMARK VINA RESULT: -7.856538288      0.000      0.000
REMARK  8 active torsions:
REMARK  status: ('A' for Active; 'I' for Inactive)
REMARK    1  A    between atoms: C2_2  and  C3_3 
REMARK    2  A    between atoms: C3_3  and  C4_4 
REMARK    3  A    between atoms: C4_4  and  O1_5 
REMARK    4  A    between atoms: O1_5  and  C5_6 
REMARK    5  A    between atoms: C7_10  and  C8_11 
REMARK    6  A    between atoms: C13_16  and  C14_17 
REMARK    7  A    between atoms: C14_17  and  N2_18 
REMARK    8  A    between atoms: N3_21  and  C17_22 
ROOT
HETATM    1  C5  UNL     1     -74.396 -66.398  52.718  1.00  0.00     0.153 A 
HETATM    2  N1  UNL     1     -73.595 -66.256  53.770  1.00  0.00    -0.346 N 
ATOM      3  H1  UNL     1     -72.594 -66.151  53.601  1.00  0.00     0.167 HD
HETATM    4  C6  UNL     1     -74.027 -66.243  55.048  1.00  0.00     0.098 A 
HETATM    5  C7  UNL     1     -75.367 -66.383  55.341  1.00  0.00    -0.034 A 
HETATM    6  C12 UNL     1     -76.215 -66.534  54.244  1.00  0.00     0.026 A 
HETATM    7  C13 UNL     1     -75.771 -66.546  52.950  1.00  0.00     0.026 A 
ENDROOT
BRANCH   7   8
HETATM    8  C14 UNL     1     -76.591 -66.774  51.784  1.00  0.00     0.075 C 
BRANCH   8   9
HETATM    9  N2  UNL     1     -77.912 -66.260  51.726  1.00  0.00    -0.288 NA
HETATM   10  C15 UNL     1     -78.663 -67.207  50.887  1.00  0.00     0.125 C 
HETATM   11  C16 UNL     1     -79.115 -66.678  49.587  1.00  0.00     0.287 C 
HETATM   12  N3  UNL     1     -79.936 -65.461  49.740  1.00  0.00     0.097 N 
HETATM   13  C21 UNL     1     -79.449 -64.658  50.806  1.00  0.00     0.287 C 
HETATM   14  C22 UNL     1     -77.991 -64.976  51.046  1.00  0.00     0.125 C 
BRANCH  12  15
HETATM   15  C17 UNL     1     -79.914 -64.858  48.431  1.00  0.00     0.250 C 
HETATM   16  C18 UNL     1     -79.909 -63.326  48.568  1.00  0.00     0.065 C 
HETATM   17  C19 UNL     1     -79.359 -62.916  47.227  1.00  0.00     0.234 C 
HETATM   18  N4  UNL     1     -78.596 -63.993  46.692  1.00  0.00    -0.073 N 
HETATM   19  C20 UNL     1     -78.677 -65.091  47.640  1.00  0.00     0.268 C 
ATOM     20  H42 UNL     1     -78.883 -64.257  45.750  1.00  0.00     0.277 HD
ATOM     21  H41 UNL     1     -77.636 -63.729  46.467  1.00  0.00     0.277 HD
ENDBRANCH  12  15
ENDBRANCH   8   9
ENDBRANCH   7   8
BRANCH   1  22
HETATM   22  O1  UNL     1     -73.956 -66.401  51.463  1.00  0.00    -0.335 OA
BRANCH  22  23
HETATM   23  C4  UNL     1     -72.893 -66.893  50.769  1.00  0.00     0.177 C 
BRANCH  23  24
HETATM   24  C3  UNL     1     -71.803 -65.894  50.441  1.00  0.00     0.026 C 
BRANCH  24  25
HETATM   25  C2  UNL     1     -70.886 -66.564  49.414  1.00  0.00    -0.002 C 
HETATM   26  C1  UNL     1     -70.932 -65.850  48.081  1.00  0.00     0.005 C 
ENDBRANCH  24  25
ENDBRANCH  23  24
ENDBRANCH  22  23
ENDBRANCH   1  22
BRANCH   5  27
HETATM   27  C8  UNL     1     -75.835 -66.384  56.741  1.00  0.00    -0.023 C 
HETATM   28  C9  UNL     1     -77.348 -66.615  56.766  1.00  0.00     0.019 C 
HETATM   29  C10 UNL     1     -75.242 -67.569  57.520  1.00  0.00     0.019 C 
HETATM   30  C11 UNL     1     -75.458 -65.142  57.512  1.00  0.00     0.019 C 
ENDBRANCH   5  27
TORSDOF 8
ENDMDL
MODEL 2
REMARK VINA RESULT: -7.840475674      1.086      1.557
REMARK  8 active torsions:
REMARK  status: ('A' for Active; 'I' for Inactive)
REMARK    1  A    between atoms: C2_2  and  C3_3 
REMARK    2  A    between atoms: C3_3  and  C4_4 
REMARK    3  A    between atoms: C4_4  and  O1_5 
REMARK    4  A    between atoms: O1_5  and  C5_6 
REMARK    5  A    between atoms: C7_10  and  C8_11 
REMARK    6  A    between atoms: C13_16  and  C14_17 
REMARK    7  A    between atoms: C14_17  and  N2_18 
REMARK    8  A    between atoms: N3_21  and  C17_22 
ROOT
HETATM    1  C5  UNL     1     -74.795 -66.254  52.621  1.00  0.00     0.153 A 
HETATM    2  N1  UNL     1     -73.947 -66.349  53.641  1.00  0.00    -0.346 N 
ATOM      3  H1  UNL     1     -72.949 -66.401  53.432  1.00  0.00     0.167 HD
HETATM    4  C6  UNL     1     -74.327 -66.381  54.935  1.00  0.00     0.098 A 
HETATM    5  C7  UNL     1     -75.660 -66.317  55.280  1.00  0.00    -0.034 A 
HETATM    6  C12 UNL     1     -76.558 -66.218  54.217  1.00  0.00     0.026 A 
HETATM    7  C13 UNL     1     -76.166 -66.185  52.906  1.00  0.00     0.026 A 
ENDROOT
BRANCH   7   8
HETATM    8  C14 UNL     1     -77.052 -66.160  51.767  1.00  0.00     0.075 C 
BRANCH   8   9
HETATM    9  N2  UNL     1     -77.482 -64.922  51.221  1.00  0.00    -0.288 NA
HETATM   10  C15 UNL     1     -78.905 -64.813  51.576  1.00  0.00     0.125 C 
HETATM   11  C16 UNL     1     -79.846 -64.876  50.442  1.00  0.00     0.287 C 
HETATM   12  N3  UNL     1     -79.554 -63.848  49.424  1.00  0.00     0.097 N 
HETATM   13  C21 UNL     1     -78.153 -63.655  49.293  1.00  0.00     0.287 C 
HETATM   14  C22 UNL     1     -77.430 -64.894  49.767  1.00  0.00     0.125 C 
BRANCH  12  15
HETATM   15  C17 UNL     1     -80.242 -64.317  48.247  1.00  0.00     0.250 C 
HETATM   16  C18 UNL     1     -79.348 -64.115  47.012  1.00  0.00     0.065 C 
HETATM   17  C19 UNL     1     -79.957 -65.099  46.048  1.00  0.00     0.234 C 
HETATM   18  N4  UNL     1     -80.630 -66.114  46.788  1.00  0.00    -0.073 N 
HETATM   19  C20 UNL     1     -80.496 -65.780  48.195  1.00  0.00     0.268 C 
ATOM     20  H42 UNL     1     -81.599 -66.243  46.499  1.00  0.00     0.277 HD
ATOM     21  H41 UNL     1     -80.301 -67.053  46.566  1.00  0.00     0.277 HD
ENDBRANCH  12  15
ENDBRANCH   8   9
ENDBRANCH   7   8
BRANCH   1  22
HETATM   22  O1  UNL     1     -74.404 -66.214  51.350  1.00  0.00    -0.335 OA
BRANCH  22  23
HETATM   23  C4  UNL     1     -73.338 -66.629  50.611  1.00  0.00     0.177 C 
BRANCH  23  24
HETATM   24  C3  UNL     1     -72.118 -65.732  50.659  1.00  0.00     0.026 C 
BRANCH  24  25
HETATM   25  C2  UNL     1     -71.023 -66.437  49.854  1.00  0.00    -0.002 C 
HETATM   26  C1  UNL     1     -70.980 -65.943  48.424  1.00  0.00     0.005 C 
ENDBRANCH  24  25
ENDBRANCH  23  24
ENDBRANCH  22  23
ENDBRANCH   1  22
BRANCH   5  27
HETATM   27  C8  UNL     1     -76.074 -66.368  56.695  1.00  0.00    -0.023 C 
HETATM   28  C9  UNL     1     -75.471 -67.612  57.353  1.00  0.00     0.019 C 
HETATM   29  C10 UNL     1     -75.491 -65.183  57.484  1.00  0.00     0.019 C 
HETATM   30  C11 UNL     1     -77.569 -66.311  56.897  1.00  0.00     0.019 C 
ENDBRANCH   5  27
TORSDOF 8
ENDMDL
MODEL 3
REMARK VINA RESULT: -7.590218606      1.622      2.480
REMARK  8 active torsions:
REMARK  status: ('A' for Active; 'I' for Inactive)
REMARK    1  A    between atoms: C2_2  and  C3_3 
REMARK    2  A    between atoms: C3_3  and  C4_4 
REMARK    3  A    between atoms: C4_4  and  O1_5 
REMARK    4  A    between atoms: O1_5  and  C5_6 
REMARK    5  A    between atoms: C7_10  and  C8_11 
REMARK    6  A    between atoms: C13_16  and  C14_17 
REMARK    7  A    between atoms: C14_17  and  N2_18 
REMARK    8  A    between atoms: N3_21  and  C17_22 
ROOT
HETATM    1  C5  UNL     1     -75.025 -66.241  52.513  1.00  0.00     0.153 A 
HETATM    2  N1  UNL     1     -74.129 -66.337  53.492  1.00  0.00    -0.346 N 
ATOM      3  H1  UNL     1     -73.145 -66.420  53.236  1.00  0.00     0.167 HD
HETATM    4  C6  UNL     1     -74.445 -66.331  54.804  1.00  0.00     0.098 A 
HETATM    5  C7  UNL     1     -75.758 -66.224  55.212  1.00  0.00    -0.034 A 
HETATM    6  C12 UNL     1     -76.705 -66.125  54.193  1.00  0.00     0.026 A 
HETATM    7  C13 UNL     1     -76.378 -66.131  52.863  1.00  0.00     0.026 A 
ENDROOT
BRANCH   7   8
HETATM    8  C14 UNL     1     -77.318 -66.107  51.768  1.00  0.00     0.075 C 
BRANCH   8   9
HETATM    9  N2  UNL     1     -77.710 -64.872  51.188  1.00  0.00    -0.288 NA
HETATM   10  C15 UNL     1     -79.154 -64.761  51.448  1.00  0.00     0.125 C 
HETATM   11  C16 UNL     1     -80.018 -64.830  50.255  1.00  0.00     0.287 C 
HETATM   12  N3  UNL     1     -79.659 -63.809  49.252  1.00  0.00     0.097 N 
HETATM   13  C21 UNL     1     -78.252 -63.617  49.213  1.00  0.00     0.287 C 
HETATM   14  C22 UNL     1     -77.563 -64.853  49.741  1.00  0.00     0.125 C 
BRANCH  12  15
HETATM   15  C17 UNL     1     -80.268 -64.284  48.035  1.00  0.00     0.250 C 
HETATM   16  C18 UNL     1     -79.268 -64.159  46.874  1.00  0.00     0.065 C 
HETATM   17  C19 UNL     1     -79.839 -65.146  45.890  1.00  0.00     0.234 C 
HETATM   18  N4  UNL     1     -80.614 -66.108  46.599  1.00  0.00    -0.073 N 
HETATM   19  C20 UNL     1     -80.581 -65.737  48.003  1.00  0.00     0.268 C 
ATOM     20  H42 UNL     1     -81.561 -66.205  46.234  1.00  0.00     0.277 HD
ATOM     21  H41 UNL     1     -80.310 -67.067  46.431  1.00  0.00     0.277 HD
ENDBRANCH  12  15
ENDBRANCH   8   9
ENDBRANCH   7   8
BRANCH   1  22
HETATM   22  O1  UNL     1     -74.696 -66.240  51.224  1.00  0.00    -0.335 OA
BRANCH  22  23
HETATM   23  C4  UNL     1     -74.148 -67.101  50.323  1.00  0.00     0.177 C 
BRANCH  23  24
HETATM   24  C3  UNL     1     -74.251 -68.571  50.674  1.00  0.00     0.026 C 
BRANCH  24  25
HETATM   25  C2  UNL     1     -75.587 -69.065  50.114  1.00  0.00    -0.002 C 
HETATM   26  C1  UNL     1     -76.454 -69.668  51.198  1.00  0.00     0.005 C 
ENDBRANCH  24  25
ENDBRANCH  23  24
ENDBRANCH  22  23
ENDBRANCH   1  22
BRANCH   5  27
HETATM   27  C8  UNL     1     -76.103 -66.234  56.647  1.00  0.00    -0.023 C 
HETATM   28  C9  UNL     1     -75.618 -67.544  57.273  1.00  0.00     0.019 C 
HETATM   29  C10 UNL     1     -75.344 -65.130  57.404  1.00  0.00     0.019 C 
HETATM   30  C11 UNL     1     -77.568 -66.003  56.925  1.00  0.00     0.019 C 
ENDBRANCH   5  27
TORSDOF 8
ENDMDL
MODEL 4
REMARK VINA RESULT: -7.428953684      1.360      1.856
REMARK  8 active torsions:
REMARK  status: ('A' for Active; 'I' for Inactive)
REMARK    1  A    between atoms: C2_2  and  C3_3 
REMARK    2  A    between atoms: C3_3  and  C4_4 
REMARK    3  A    between atoms: C4_4  and  O1_5 
REMARK    4  A    between atoms: O1_5  and  C5_6 
REMARK    5  A    between atoms: C7_10  and  C8_11 
REMARK    6  A    between atoms: C13_16  and  C14_17 
REMARK    7  A    between atoms: C14_17  and  N2_18 
REMARK    8  A    between atoms: N3_21  and  C17_22 
ROOT
HETATM    1  C5  UNL     1     -75.559 -67.450  52.475  1.00  0.00     0.153 A 
HETATM    2  N1  UNL     1     -74.668 -67.765  53.411  1.00  0.00    -0.346 N 
ATOM      3  H1  UNL     1     -73.857 -68.320  53.136  1.00  0.00     0.167 HD
HETATM    4  C6  UNL     1     -74.773 -67.395  54.705  1.00  0.00     0.098 A 
HETATM    5  C7  UNL     1     -75.847 -66.647  55.139  1.00  0.00    -0.034 A 
HETATM    6  C12 UNL     1     -76.788 -66.313  54.164  1.00  0.00     0.026 A 
HETATM    7  C13 UNL     1     -76.675 -66.691  52.854  1.00  0.00     0.026 A 
ENDROOT
BRANCH   7   8
HETATM    8  C14 UNL     1     -77.652 -66.440  51.821  1.00  0.00     0.075 C 
BRANCH   8   9
HETATM    9  N2  UNL     1     -77.774 -65.146  51.251  1.00  0.00    -0.288 NA
HETATM   10  C15 UNL     1     -79.181 -64.764  51.448  1.00  0.00     0.125 C 
HETATM   11  C16 UNL     1     -79.984 -64.653  50.216  1.00  0.00     0.287 C 
HETATM   12  N3  UNL     1     -79.389 -63.706  49.253  1.00  0.00     0.097 N 
HETATM   13  C21 UNL     1     -77.971 -63.785  49.281  1.00  0.00     0.287 C 
HETATM   14  C22 UNL     1     -77.556 -65.137  49.813  1.00  0.00     0.125 C 
BRANCH  12  15
HETATM   15  C17 UNL     1     -80.018 -64.041  48.000  1.00  0.00     0.250 C 
HETATM   16  C18 UNL     1     -80.712 -62.796  47.421  1.00  0.00     0.065 C 
HETATM   17  C19 UNL     1     -80.816 -63.171  45.966  1.00  0.00     0.234 C 
HETATM   18  N4  UNL     1     -79.808 -64.130  45.664  1.00  0.00    -0.073 N 
HETATM   19  C20 UNL     1     -79.090 -64.404  46.896  1.00  0.00     0.268 C 
ATOM     20  H42 UNL     1     -80.178 -64.972  45.222  1.00  0.00     0.277 HD
ATOM     21  H41 UNL     1     -79.197 -63.840  44.901  1.00  0.00     0.277 HD
ENDBRANCH  12  15
ENDBRANCH   8   9
ENDBRANCH   7   8
BRANCH   1  22
HETATM   22  O1  UNL     1     -75.436 -67.816  51.202  1.00  0.00    -0.335 OA
BRANCH  22  23
HETATM   23  C4  UNL     1     -74.437 -68.170  50.347  1.00  0.00     0.177 C 
BRANCH  23  24
HETATM   24  C3  UNL     1     -73.821 -67.037  49.551  1.00  0.00     0.026 C 
BRANCH  24  25
HETATM   25  C2  UNL     1     -72.433 -66.788  50.144  1.00  0.00    -0.002 C 
HETATM   26  C1  UNL     1     -72.429 -65.585  51.063  1.00  0.00     0.005 C 
ENDBRANCH  24  25
ENDBRANCH  23  24
ENDBRANCH  22  23
ENDBRANCH   1  22
BRANCH   5  27
HETATM   27  C8  UNL     1     -75.968 -66.257  56.557  1.00  0.00    -0.023 C 
HETATM   28  C9  UNL     1     -75.113 -67.195  57.413  1.00  0.00     0.019 C 
HETATM   29  C10 UNL     1     -75.377 -64.857  56.796  1.00  0.00     0.019 C 
HETATM   30  C11 UNL     1     -77.391 -66.203  57.056  1.00  0.00     0.019 C 
ENDBRANCH   5  27
TORSDOF 8
ENDMDL
MODEL 5
REMARK VINA RESULT: -7.333018400      1.666      4.951
REMARK  8 active torsions:
REMARK  status: ('A' for Active; 'I' for Inactive)
REMARK    1  A    between atoms: C2_2  and  C3_3 
REMARK    2  A    between atoms: C3_3  and  C4_4 
REMARK    3  A    between atoms: C4_4  and  O1_5 
REMARK    4  A    between atoms: O1_5  and  C5_6 
REMARK    5  A    between atoms: C7_10  and  C8_11 
REMARK    6  A    between atoms: C13_16  and  C14_17 
REMARK    7  A    between atoms: C14_17  and  N2_18 
REMARK    8  A    between atoms: N3_21  and  C17_22 
ROOT
HETATM    1  C5  UNL     1     -76.154 -66.195  53.535  1.00  0.00     0.153 A 
HETATM    2  N1  UNL     1     -74.904 -66.332  53.967  1.00  0.00    -0.346 N 
ATOM      3  H1  UNL     1     -74.740 -66.330  54.974  1.00  0.00     0.167 HD
HETATM    4  C6  UNL     1     -73.838 -66.472  53.151  1.00  0.00     0.098 A 
HETATM    5  C7  UNL     1     -73.994 -66.480  51.782  1.00  0.00    -0.034 A 
HETATM    6  C12 UNL     1     -75.302 -66.335  51.319  1.00  0.00     0.026 A 
HETATM    7  C13 UNL     1     -76.380 -66.193  52.151  1.00  0.00     0.026 A 
ENDROOT
BRANCH   7   8
HETATM    8  C14 UNL     1     -77.741 -65.965  51.729  1.00  0.00     0.075 C 
BRANCH   8   9
HETATM    9  N2  UNL     1     -78.100 -64.746  51.097  1.00  0.00    -0.288 NA
HETATM   10  C15 UNL     1     -79.565 -64.791  50.969  1.00  0.00     0.125 C 
HETATM   11  C16 UNL     1     -80.075 -64.881  49.588  1.00  0.00     0.287 C 
HETATM   12  N3  UNL     1     -79.580 -63.777  48.742  1.00  0.00     0.097 N 
HETATM   13  C21 UNL     1     -78.242 -63.446  49.082  1.00  0.00     0.287 C 
HETATM   14  C22 UNL     1     -77.584 -64.636  49.742  1.00  0.00     0.125 C 
BRANCH  12  15
HETATM   15  C17 UNL     1     -79.796 -64.245  47.396  1.00  0.00     0.250 C 
HETATM   16  C18 UNL     1     -79.873 -65.780  47.388  1.00  0.00     0.065 C 
HETATM   17  C19 UNL     1     -80.605 -66.029  46.096  1.00  0.00     0.234 C 
HETATM   18  N4  UNL     1     -81.364 -64.870  45.765  1.00  0.00    -0.073 N 
HETATM   19  C20 UNL     1     -81.105 -63.878  46.794  1.00  0.00     0.268 C 
ATOM     20  H42 UNL     1     -81.179 -64.525  44.823  1.00  0.00     0.277 HD
ATOM     21  H41 UNL     1     -82.357 -65.066  45.640  1.00  0.00     0.277 HD
ENDBRANCH  12  15
ENDBRANCH   8   9
ENDBRANCH   7   8
BRANCH   1  22
HETATM   22  O1  UNL     1     -77.196 -66.065  54.352  1.00  0.00    -0.335 OA
BRANCH  22  23
HETATM   23  C4  UNL     1     -77.443 -65.580  55.600  1.00  0.00     0.177 C 
BRANCH  23  24
HETATM   24  C3  UNL     1     -77.385 -66.595  56.723  1.00  0.00     0.026 C 
BRANCH  24  25
HETATM   25  C2  UNL     1     -75.957 -66.560  57.273  1.00  0.00    -0.002 C 
HETATM   26  C1  UNL     1     -75.428 -65.145  57.356  1.00  0.00     0.005 C 
ENDBRANCH  24  25
ENDBRANCH  23  24
ENDBRANCH  22  23
ENDBRANCH   1  22
BRANCH   5  27
HETATM   27  C8  UNL     1     -72.825 -66.618  50.891  1.00  0.00    -0.023 C 
HETATM   28  C9  UNL     1     -73.307 -66.908  49.468  1.00  0.00     0.019 C 
HETATM   29  C10 UNL     1     -72.054 -65.291  50.784  1.00  0.00     0.019 C 
HETATM   30  C11 UNL     1     -71.824 -67.649  51.353  1.00  0.00     0.019 C 
ENDBRANCH   5  27
TORSDOF 8
ENDMDL
