MODEL 1
REMARK VINA RESULT: -6.970738432      0.000      0.000
REMARK  6 active torsions:
REMARK  status: ('A' for Active; 'I' for Inactive)
REMARK       I    between atoms: C2_2  and  N1_4 
REMARK    1  A    between atoms: N1_4  and  C3_6 
REMARK    2  A    between atoms: C3_6  and  C4_7 
REMARK    3  A    between atoms: C4_7  and  O2_8 
REMARK    4  A    between atoms: O2_8  and  C5_9 
REMARK    5  A    between atoms: C9_13  and  N2_14 
REMARK    6  A    between atoms: N2_14  and  C10_16 
ROOT
HETATM    1  C5  UNL     1      68.331  53.734  23.269  1.00  0.00     0.075 A 
HETATM    2  C6  UNL     1      69.245  54.055  22.264  1.00  0.00     0.046 A 
HETATM    3  C7  UNL     1      70.576  53.732  22.404  1.00  0.00    -0.032 A 
HETATM    4  C8  UNL     1      71.552  54.082  21.315  1.00  0.00     0.050 C 
HETATM    5  C9  UNL     1      70.976  53.089  23.554  1.00  0.00     0.055 A 
HETATM    6  C16 UNL     1      70.060  52.777  24.545  1.00  0.00     0.040 A 
HETATM    7  C17 UNL     1      68.723  53.093  24.420  1.00  0.00    -0.026 A 
HETATM    8  C18 UNL     1      67.720  52.779  25.447  1.00  0.00     0.051 C 
ENDROOT
BRANCH   5   9
HETATM    9  N2  UNL     1      72.328  52.761  23.697  1.00  0.00    -0.191 N 
ATOM     10  H2  UNL     1      72.989  53.519  23.867  1.00  0.00     0.184 HD
BRANCH   9  11
HETATM   11  C10 UNL     1      72.792  51.550  23.627  1.00  0.00     0.683 A 
HETATM   12  N3  UNL     1      73.890  51.174  24.303  1.00  0.00    -0.196 N 
HETATM   13  C11 UNL     1      74.403  49.948  24.263  1.00  0.00     0.024 A 
ATOM     14  H3  UNL     1      74.358  51.872  24.883  1.00  0.00     0.184 HD
HETATM   15  C12 UNL     1      75.618  49.569  25.024  1.00  0.00     0.068 C 
HETATM   16  C13 UNL     1      73.782  48.988  23.484  1.00  0.00     0.050 A 
HETATM   17  C14 UNL     1      72.653  49.348  22.781  1.00  0.00     0.024 A 
HETATM   18  C15 UNL     1      71.981  48.316  21.941  1.00  0.00     0.068 C 
HETATM   19  N4  UNL     1      72.194  50.609  22.872  1.00  0.00    -0.196 N 
ATOM     20  H4  UNL     1      71.357  50.863  22.347  1.00  0.00     0.184 HD
ENDBRANCH   9  11
ENDBRANCH   5   9
BRANCH   1  21
HETATM   21  O2  UNL     1      66.992  54.063  23.121  1.00  0.00    -0.349 OA
BRANCH  21  22
HETATM   22  C4  UNL     1      66.090  53.163  22.496  1.00  0.00     0.195 C 
BRANCH  22  23
HETATM   23  C3  UNL     1      66.213  53.284  21.004  1.00  0.00     0.149 C 
BRANCH  23  24
HETATM   24  N1  UNL     1      66.491  51.976  20.451  1.00  0.00    -0.359 N 
HETATM   25  C2  UNL     1      67.578  51.762  19.575  1.00  0.00     0.213 C 
HETATM   26  C1  UNL     1      67.828  50.412  19.031  1.00  0.00     0.117 C 
HETATM   27  O1  UNL     1      68.332  52.705  19.254  1.00  0.00    -0.274 OA
ATOM     28  H1  UNL     1      65.888  51.191  20.699  1.00  0.00     0.162 HD
ENDBRANCH  23  24
ENDBRANCH  22  23
ENDBRANCH  21  22
ENDBRANCH   1  21
TORSDOF 6
ENDMDL
MODEL 2
REMARK VINA RESULT: -6.965111014      2.912      8.116
REMARK  6 active torsions:
REMARK  status: ('A' for Active; 'I' for Inactive)
REMARK       I    between atoms: C2_2  and  N1_4 
REMARK    1  A    between atoms: N1_4  and  C3_6 
REMARK    2  A    between atoms: C3_6  and  C4_7 
REMARK    3  A    between atoms: C4_7  and  O2_8 
REMARK    4  A    between atoms: O2_8  and  C5_9 
REMARK    5  A    between atoms: C9_13  and  N2_14 
REMARK    6  A    between atoms: N2_14  and  C10_16 
ROOT
HETATM    1  C5  UNL     1      69.020  52.530  21.578  1.00  0.00     0.075 A 
HETATM    2  C6  UNL     1      68.967  51.432  20.719  1.00  0.00     0.046 A 
HETATM    3  C7  UNL     1      67.922  51.289  19.833  1.00  0.00    -0.032 A 
HETATM    4  C8  UNL     1      67.876  50.102  18.912  1.00  0.00     0.050 C 
HETATM    5  C9  UNL     1      66.939  52.253  19.822  1.00  0.00     0.055 A 
HETATM    6  C16 UNL     1      67.002  53.338  20.680  1.00  0.00     0.040 A 
HETATM    7  C17 UNL     1      68.042  53.496  21.572  1.00  0.00    -0.026 A 
HETATM    8  C18 UNL     1      68.145  54.633  22.499  1.00  0.00     0.051 C 
ENDROOT
BRANCH   5   9
HETATM    9  N2  UNL     1      65.877  52.109  18.923  1.00  0.00    -0.191 N 
ATOM     10  H2  UNL     1      66.096  52.026  17.931  1.00  0.00     0.184 HD
BRANCH   9  11
HETATM   11  C10 UNL     1      64.628  52.074  19.277  1.00  0.00     0.683 A 
HETATM   12  N3  UNL     1      64.127  51.058  20.001  1.00  0.00    -0.196 N 
HETATM   13  C11 UNL     1      62.858  50.977  20.387  1.00  0.00     0.024 A 
ATOM     14  H3  UNL     1      64.760  50.304  20.270  1.00  0.00     0.184 HD
HETATM   15  C12 UNL     1      62.340  49.840  21.185  1.00  0.00     0.068 C 
HETATM   16  C13 UNL     1      61.984  51.990  20.033  1.00  0.00     0.050 A 
HETATM   17  C14 UNL     1      62.474  53.044  19.292  1.00  0.00     0.024 A 
HETATM   18  C15 UNL     1      61.536  54.138  18.909  1.00  0.00     0.068 C 
HETATM   19  N4  UNL     1      63.771  53.055  18.938  1.00  0.00    -0.196 N 
ATOM     20  H4  UNL     1      64.121  53.841  18.390  1.00  0.00     0.184 HD
ENDBRANCH   9  11
ENDBRANCH   5   9
BRANCH   1  21
HETATM   21  O2  UNL     1      70.075  52.667  22.467  1.00  0.00    -0.349 OA
BRANCH  21  22
HETATM   22  C4  UNL     1      71.401  52.855  21.995  1.00  0.00     0.195 C 
BRANCH  22  23
HETATM   23  C3  UNL     1      72.308  53.158  23.153  1.00  0.00     0.149 C 
BRANCH  23  24
HETATM   24  N1  UNL     1      73.335  52.141  23.220  1.00  0.00    -0.359 N 
HETATM   25  C2  UNL     1      73.118  50.919  23.894  1.00  0.00     0.213 C 
HETATM   26  C1  UNL     1      74.192  49.907  23.941  1.00  0.00     0.117 C 
HETATM   27  O1  UNL     1      72.025  50.685  24.453  1.00  0.00    -0.274 OA
ATOM     28  H1  UNL     1      74.235  52.311  22.772  1.00  0.00     0.162 HD
ENDBRANCH  23  24
ENDBRANCH  22  23
ENDBRANCH  21  22
ENDBRANCH   1  21
TORSDOF 6
ENDMDL
MODEL 3
REMARK VINA RESULT: -6.944709622      2.926      8.153
REMARK  6 active torsions:
REMARK  status: ('A' for Active; 'I' for Inactive)
REMARK       I    between atoms: C2_2  and  N1_4 
REMARK    1  A    between atoms: N1_4  and  C3_6 
REMARK    2  A    between atoms: C3_6  and  C4_7 
REMARK    3  A    between atoms: C4_7  and  O2_8 
REMARK    4  A    between atoms: O2_8  and  C5_9 
REMARK    5  A    between atoms: C9_13  and  N2_14 
REMARK    6  A    between atoms: N2_14  and  C10_16 
ROOT
HETATM    1  C5  UNL     1      69.025  52.515  21.577  1.00  0.00     0.075 A 
HETATM    2  C6  UNL     1      68.963  51.423  20.710  1.00  0.00     0.046 A 
HETATM    3  C7  UNL     1      67.918  51.296  19.823  1.00  0.00    -0.032 A 
HETATM    4  C8  UNL     1      67.861  50.116  18.893  1.00  0.00     0.050 C 
HETATM    5  C9  UNL     1      66.944  52.269  19.817  1.00  0.00     0.055 A 
HETATM    6  C16 UNL     1      67.015  53.347  20.683  1.00  0.00     0.040 A 
HETATM    7  C17 UNL     1      68.055  53.489  21.577  1.00  0.00    -0.026 A 
HETATM    8  C18 UNL     1      68.168  54.618  22.512  1.00  0.00     0.051 C 
ENDROOT
BRANCH   5   9
HETATM    9  N2  UNL     1      65.881  52.140  18.916  1.00  0.00    -0.191 N 
ATOM     10  H2  UNL     1      66.099  52.091  17.921  1.00  0.00     0.184 HD
BRANCH   9  11
HETATM   11  C10 UNL     1      64.633  52.081  19.272  1.00  0.00     0.683 A 
HETATM   12  N3  UNL     1      63.760  53.049  18.946  1.00  0.00    -0.196 N 
HETATM   13  C11 UNL     1      62.474  53.034  19.287  1.00  0.00     0.024 A 
ATOM     14  H3  UNL     1      64.104  53.844  18.406  1.00  0.00     0.184 HD
HETATM   15  C12 UNL     1      61.539  54.120  18.910  1.00  0.00     0.068 C 
HETATM   16  C13 UNL     1      61.988  51.965  20.018  1.00  0.00     0.050 A 
HETATM   17  C14 UNL     1      62.864  50.958  20.363  1.00  0.00     0.024 A 
HETATM   18  C15 UNL     1      62.344  49.805  21.152  1.00  0.00     0.068 C 
HETATM   19  N4  UNL     1      64.151  51.045  19.983  1.00  0.00    -0.196 N 
ATOM     20  H4  UNL     1      64.789  50.293  20.244  1.00  0.00     0.184 HD
ENDBRANCH   9  11
ENDBRANCH   5   9
BRANCH   1  21
HETATM   21  O2  UNL     1      70.080  52.635  22.468  1.00  0.00    -0.349 OA
BRANCH  21  22
HETATM   22  C4  UNL     1      71.408  52.815  21.999  1.00  0.00     0.195 C 
BRANCH  22  23
HETATM   23  C3  UNL     1      72.317  53.101  23.160  1.00  0.00     0.149 C 
BRANCH  23  24
HETATM   24  N1  UNL     1      73.358  52.097  23.197  1.00  0.00    -0.359 N 
HETATM   25  C2  UNL     1      73.170  50.866  23.865  1.00  0.00     0.213 C 
HETATM   26  C1  UNL     1      74.257  49.867  23.880  1.00  0.00     0.117 C 
HETATM   27  O1  UNL     1      72.093  50.613  24.444  1.00  0.00    -0.274 OA
ATOM     28  H1  UNL     1      74.246  52.281  22.731  1.00  0.00     0.162 HD
ENDBRANCH  23  24
ENDBRANCH  22  23
ENDBRANCH  21  22
ENDBRANCH   1  21
TORSDOF 6
ENDMDL
MODEL 4
REMARK VINA RESULT: -6.877097754      2.441      3.755
REMARK  6 active torsions:
REMARK  status: ('A' for Active; 'I' for Inactive)
REMARK       I    between atoms: C2_2  and  N1_4 
REMARK    1  A    between atoms: N1_4  and  C3_6 
REMARK    2  A    between atoms: C3_6  and  C4_7 
REMARK    3  A    between atoms: C4_7  and  O2_8 
REMARK    4  A    between atoms: O2_8  and  C5_9 
REMARK    5  A    between atoms: C9_13  and  N2_14 
REMARK    6  A    between atoms: N2_14  and  C10_16 
ROOT
HETATM    1  C5  UNL     1      68.789  52.338  20.311  1.00  0.00     0.075 A 
HETATM    2  C6  UNL     1      69.552  52.999  21.275  1.00  0.00     0.046 A 
HETATM    3  C7  UNL     1      70.547  52.332  21.954  1.00  0.00    -0.032 A 
HETATM    4  C8  UNL     1      71.362  53.055  22.990  1.00  0.00     0.050 C 
HETATM    5  C9  UNL     1      70.764  51.006  21.658  1.00  0.00     0.055 A 
HETATM    6  C16 UNL     1      70.000  50.359  20.701  1.00  0.00     0.040 A 
HETATM    7  C17 UNL     1      69.000  51.013  20.011  1.00  0.00    -0.026 A 
HETATM    8  C18 UNL     1      68.168  50.364  18.988  1.00  0.00     0.051 C 
ENDROOT
BRANCH   5   9
HETATM    9  N2  UNL     1      71.774  50.327  22.348  1.00  0.00    -0.191 N 
ATOM     10  H2  UNL     1      72.530  50.878  22.755  1.00  0.00     0.184 HD
BRANCH   9  11
HETATM   11  C10 UNL     1      71.808  49.038  22.502  1.00  0.00     0.683 A 
HETATM   12  N3  UNL     1      72.502  48.246  21.667  1.00  0.00    -0.196 N 
HETATM   13  C11 UNL     1      72.566  46.923  21.782  1.00  0.00     0.024 A 
ATOM     14  H3  UNL     1      73.009  48.686  20.899  1.00  0.00     0.184 HD
HETATM   15  C12 UNL     1      73.342  46.079  20.842  1.00  0.00     0.068 C 
HETATM   16  C13 UNL     1      71.885  46.307  22.817  1.00  0.00     0.050 A 
HETATM   17  C14 UNL     1      71.167  47.098  23.687  1.00  0.00     0.024 A 
HETATM   18  C15 UNL     1      70.432  46.437  24.803  1.00  0.00     0.068 C 
HETATM   19  N4  UNL     1      71.149  48.430  23.505  1.00  0.00    -0.196 N 
ATOM     20  H4  UNL     1      70.614  49.004  24.157  1.00  0.00     0.184 HD
ENDBRANCH   9  11
ENDBRANCH   5   9
BRANCH   1  21
HETATM   21  O2  UNL     1      67.788  53.016  19.631  1.00  0.00    -0.349 OA
BRANCH  21  22
HETATM   22  C4  UNL     1      66.692  53.583  20.333  1.00  0.00     0.195 C 
BRANCH  22  23
HETATM   23  C3  UNL     1      65.499  52.678  20.215  1.00  0.00     0.149 C 
BRANCH  23  24
HETATM   24  N1  UNL     1      64.728  53.070  19.055  1.00  0.00    -0.359 N 
HETATM   25  C2  UNL     1      64.056  52.115  18.260  1.00  0.00     0.213 C 
HETATM   26  C1  UNL     1      63.280  52.556  17.084  1.00  0.00     0.117 C 
HETATM   27  O1  UNL     1      64.110  50.900  18.543  1.00  0.00    -0.274 OA
ATOM     28  H1  UNL     1      64.670  54.058  18.805  1.00  0.00     0.162 HD
ENDBRANCH  23  24
ENDBRANCH  22  23
ENDBRANCH  21  22
ENDBRANCH   1  21
TORSDOF 6
ENDMDL
MODEL 5
REMARK VINA RESULT: -6.824358687      2.985      8.061
REMARK  6 active torsions:
REMARK  status: ('A' for Active; 'I' for Inactive)
REMARK       I    between atoms: C2_2  and  N1_4 
REMARK    1  A    between atoms: N1_4  and  C3_6 
REMARK    2  A    between atoms: C3_6  and  C4_7 
REMARK    3  A    between atoms: C4_7  and  O2_8 
REMARK    4  A    between atoms: O2_8  and  C5_9 
REMARK    5  A    between atoms: C9_13  and  N2_14 
REMARK    6  A    between atoms: N2_14  and  C10_16 
ROOT
HETATM    1  C5  UNL     1      69.040  52.273  21.367  1.00  0.00     0.075 A 
HETATM    2  C6  UNL     1      68.798  51.098  20.653  1.00  0.00     0.046 A 
HETATM    3  C7  UNL     1      67.709  51.003  19.815  1.00  0.00    -0.032 A 
HETATM    4  C8  UNL     1      67.459  49.732  19.052  1.00  0.00     0.050 C 
HETATM    5  C9  UNL     1      66.874  52.091  19.703  1.00  0.00     0.055 A 
HETATM    6  C16 UNL     1      67.123  53.251  20.417  1.00  0.00     0.040 A 
HETATM    7  C17 UNL     1      68.209  53.363  21.260  1.00  0.00    -0.026 A 
HETATM    8  C18 UNL     1      68.509  54.576  22.034  1.00  0.00     0.051 C 
ENDROOT
BRANCH   5   9
HETATM    9  N2  UNL     1      65.767  51.995  18.853  1.00  0.00    -0.191 N 
ATOM     10  H2  UNL     1      65.939  51.907  17.851  1.00  0.00     0.184 HD
BRANCH   9  11
HETATM   11  C10 UNL     1      64.535  52.011  19.262  1.00  0.00     0.683 A 
HETATM   12  N3  UNL     1      64.035  51.031  20.034  1.00  0.00    -0.196 N 
HETATM   13  C11 UNL     1      62.782  51.002  20.477  1.00  0.00     0.024 A 
ATOM     14  H3  UNL     1      64.654  50.263  20.294  1.00  0.00     0.184 HD
HETATM   15  C12 UNL     1      62.264  49.904  21.327  1.00  0.00     0.068 C 
HETATM   16  C13 UNL     1      61.927  52.035  20.135  1.00  0.00     0.050 A 
HETATM   17  C14 UNL     1      62.416  53.052  19.345  1.00  0.00     0.024 A 
HETATM   18  C15 UNL     1      61.498  54.167  18.975  1.00  0.00     0.068 C 
HETATM   19  N4  UNL     1      63.696  53.011  18.935  1.00  0.00    -0.196 N 
ATOM     20  H4  UNL     1      64.046  53.771  18.351  1.00  0.00     0.184 HD
ENDBRANCH   9  11
ENDBRANCH   5   9
BRANCH   1  21
HETATM   21  O2  UNL     1      70.138  52.361  22.209  1.00  0.00    -0.349 OA
BRANCH  21  22
HETATM   22  C4  UNL     1      70.200  51.592  23.400  1.00  0.00     0.195 C 
BRANCH  22  23
HETATM   23  C3  UNL     1      70.306  52.510  24.585  1.00  0.00     0.149 C 
BRANCH  23  24
HETATM   24  N1  UNL     1      69.499  51.977  25.661  1.00  0.00    -0.359 N 
HETATM   25  C2  UNL     1      68.197  52.464  25.916  1.00  0.00     0.213 C 
HETATM   26  C1  UNL     1      67.405  51.895  27.025  1.00  0.00     0.117 C 
HETATM   27  O1  UNL     1      67.708  53.373  25.212  1.00  0.00    -0.274 OA
ATOM     28  H1  UNL     1      69.878  51.235  26.249  1.00  0.00     0.162 HD
ENDBRANCH  23  24
ENDBRANCH  22  23
ENDBRANCH  21  22
ENDBRANCH   1  21
TORSDOF 6
ENDMDL
