MODEL 1
REMARK VINA RESULT: -8.807920400      0.000      0.000
REMARK  17 active torsions:
REMARK  status: ('A' for Active; 'I' for Inactive)
REMARK    1  A    between atoms: C2_2  and  O2_4 
REMARK    2  A    between atoms: O2_4  and  C3_5 
REMARK    3  A    between atoms: C3_5  and  C4_6 
REMARK    4  A    between atoms: C4_6  and  O3_7 
REMARK    5  A    between atoms: C4_6  and  N1_9 
REMARK    6  A    between atoms: N1_9  and  C5_11 
REMARK    7  A    between atoms: C6_12  and  O4_13 
REMARK    8  A    between atoms: C8_16  and  O5_17 
REMARK    9  A    between atoms: C9_19  and  O6_20 
REMARK   10  A    between atoms: C10_22  and  N2_23 
REMARK   11  A    between atoms: N2_23  and  C11_25 
REMARK   12  A    between atoms: C12_28  and  O7_29 
REMARK   13  A    between atoms: C13_31  and  O8_32 
REMARK   14  A    between atoms: C14_34  and  O9_35 
REMARK   15  A    between atoms: C14_34  and  C15_37 
REMARK   16  A    between atoms: C15_37  and  O10_38 
REMARK   17  A    between atoms: C16_41  and  O12_42 
ROOT
HETATM    1  C5  UNL     1      19.223  25.411  -2.337  1.00  0.00     0.141 A 
HETATM    2  C6  UNL     1      19.262  25.682  -0.975  1.00  0.00     0.114 A 
HETATM    3  C7  UNL     1      20.359  26.362  -0.479  1.00  0.00     0.072 A 
HETATM    4  C8  UNL     1      20.427  26.649   0.878  1.00  0.00     0.117 A 
HETATM    5  C9  UNL     1      21.535  27.335   1.378  1.00  0.00     0.129 A 
HETATM    6  C10 UNL     1      22.561  27.734   0.553  1.00  0.00     0.104 A 
HETATM    7  C16 UNL     1      22.477  27.442  -0.782  1.00  0.00     0.130 A 
HETATM    8  C17 UNL     1      21.374  26.756  -1.301  1.00  0.00     0.131 A 
HETATM    9  O13 UNL     1      21.321  26.486  -2.603  1.00  0.00    -0.270 OA
HETATM   10  C18 UNL     1      20.291  25.844  -3.092  1.00  0.00     0.318 A 
HETATM   11  O14 UNL     1      20.234  25.584  -4.340  1.00  0.00    -0.257 OA
ENDROOT
BRANCH   6  12
HETATM   12  N2  UNL     1      23.666  28.421   1.067  1.00  0.00    -0.343 N 
ATOM     13  H2  UNL     1      24.413  28.641   0.408  1.00  0.00     0.164 HD
BRANCH  12  14
HETATM   14  C11 UNL     1      23.859  28.843   2.409  1.00  0.00     0.335 C 
HETATM   15  N3  UNL     1      24.230  30.259   2.514  1.00  0.00    -0.329 N 
HETATM   16  C12 UNL     1      24.403  30.671   3.738  1.00  0.00     0.149 C 
ATOM     17  H3  UNL     1      24.343  30.865   1.702  1.00  0.00     0.165 HD
HETATM   18  C13 UNL     1      24.194  29.641   4.792  1.00  0.00     0.256 C 
HETATM   19  C14 UNL     1      24.962  28.410   4.374  1.00  0.00     0.221 C 
HETATM   20  O11 UNL     1      24.898  28.154   3.024  1.00  0.00    -0.308 OA
BRANCH  16  21
HETATM   21  O7  UNL     1      24.751  31.948   4.076  1.00  0.00    -0.347 OA
ATOM     22  H7  UNL     1      24.172  32.561   4.513  1.00  0.00     0.219 HD
ENDBRANCH  16  21
BRANCH  18  23
HETATM   23  O8  UNL     1      24.710  30.051   6.019  1.00  0.00    -0.382 OA
ATOM     24  H8  UNL     1      24.436  29.475   6.724  1.00  0.00     0.210 HD
ENDBRANCH  18  23
BRANCH  19  25
HETATM   25  O9  UNL     1      26.297  28.630   4.706  1.00  0.00    -0.361 OA
ATOM     26  H9  UNL     1      26.823  28.244   4.015  1.00  0.00     0.213 HD
ENDBRANCH  19  25
BRANCH  19  27
HETATM   27  C15 UNL     1      24.431  27.173   5.092  1.00  0.00     0.235 C 
BRANCH  27  28
HETATM   28  O10 UNL     1      23.106  27.411   5.477  1.00  0.00    -0.395 OA
ATOM     29  H10 UNL     1      22.582  26.650   5.253  1.00  0.00     0.209 HD
ENDBRANCH  27  28
ENDBRANCH  19  27
ENDBRANCH  12  14
ENDBRANCH   6  12
BRANCH   5  30
HETATM   30  O6  UNL     1      21.651  27.642   2.709  1.00  0.00    -0.356 OA
ATOM     31  H6  UNL     1      22.398  27.359   3.223  1.00  0.00     0.218 HD
ENDBRANCH   5  30
BRANCH   7  32
HETATM   32  O12 UNL     1      23.459  27.796  -1.702  1.00  0.00    -0.356 OA
ATOM     33  H12 UNL     1      23.311  27.812  -2.641  1.00  0.00     0.218 HD
ENDBRANCH   7  32
BRANCH   4  34
HETATM   34  O5  UNL     1      19.381  26.233   1.675  1.00  0.00    -0.357 OA
ATOM     35  H5  UNL     1      19.222  26.712   2.480  1.00  0.00     0.217 HD
ENDBRANCH   4  34
BRANCH   2  36
HETATM   36  O4  UNL     1      18.261  25.305  -0.114  1.00  0.00    -0.357 OA
ATOM     37  H4  UNL     1      17.596  25.909   0.196  1.00  0.00     0.217 HD
ENDBRANCH   2  36
BRANCH   1  38
HETATM   38  N1  UNL     1      18.122  24.723  -2.868  1.00  0.00    -0.355 N 
ATOM     39  H1  UNL     1      18.216  23.758  -3.188  1.00  0.00     0.162 HD
BRANCH  38  40
HETATM   40  C4  UNL     1      16.839  25.415  -2.955  1.00  0.00     0.242 C 
BRANCH  40  41
HETATM   41  C3  UNL     1      16.731  26.189  -4.233  1.00  0.00     0.232 C 
BRANCH  41  42
HETATM   42  O2  UNL     1      16.299  27.485  -4.082  1.00  0.00    -0.317 OA
BRANCH  42  43
HETATM   43  C2  UNL     1      15.688  28.300  -4.974  1.00  0.00     0.254 C 
HETATM   44  C1  UNL     1      14.177  28.333  -5.035  1.00  0.00     0.126 C 
HETATM   45  O1  UNL     1      16.335  29.026  -5.748  1.00  0.00    -0.266 OA
ENDBRANCH  42  43
ENDBRANCH  41  42
ENDBRANCH  40  41
BRANCH  40  46
HETATM   46  O3  UNL     1      15.783  24.600  -2.746  1.00  0.00    -0.375 OA
ATOM     47  H3  UNL     1      15.399  24.281  -3.554  1.00  0.00     0.212 HD
ENDBRANCH  40  46
ENDBRANCH  38  40
ENDBRANCH   1  38
TORSDOF 17
ENDMDL
MODEL 2
REMARK VINA RESULT: -8.613246135      1.492      3.217
REMARK  17 active torsions:
REMARK  status: ('A' for Active; 'I' for Inactive)
REMARK    1  A    between atoms: C2_2  and  O2_4 
REMARK    2  A    between atoms: O2_4  and  C3_5 
REMARK    3  A    between atoms: C3_5  and  C4_6 
REMARK    4  A    between atoms: C4_6  and  O3_7 
REMARK    5  A    between atoms: C4_6  and  N1_9 
REMARK    6  A    between atoms: N1_9  and  C5_11 
REMARK    7  A    between atoms: C6_12  and  O4_13 
REMARK    8  A    between atoms: C8_16  and  O5_17 
REMARK    9  A    between atoms: C9_19  and  O6_20 
REMARK   10  A    between atoms: C10_22  and  N2_23 
REMARK   11  A    between atoms: N2_23  and  C11_25 
REMARK   12  A    between atoms: C12_28  and  O7_29 
REMARK   13  A    between atoms: C13_31  and  O8_32 
REMARK   14  A    between atoms: C14_34  and  O9_35 
REMARK   15  A    between atoms: C14_34  and  C15_37 
REMARK   16  A    between atoms: C15_37  and  O10_38 
REMARK   17  A    between atoms: C16_41  and  O12_42 
ROOT
HETATM    1  C5  UNL     1      19.226  25.089  -0.549  1.00  0.00     0.141 A 
HETATM    2  C6  UNL     1      20.501  25.534  -0.876  1.00  0.00     0.114 A 
HETATM    3  C7  UNL     1      21.101  26.457  -0.041  1.00  0.00     0.072 A 
HETATM    4  C8  UNL     1      22.376  26.920  -0.341  1.00  0.00     0.117 A 
HETATM    5  C9  UNL     1      22.982  27.853   0.503  1.00  0.00     0.129 A 
HETATM    6  C10 UNL     1      22.341  28.322   1.627  1.00  0.00     0.104 A 
HETATM    7  C16 UNL     1      21.085  27.854   1.907  1.00  0.00     0.130 A 
HETATM    8  C17 UNL     1      20.463  26.919   1.073  1.00  0.00     0.131 A 
HETATM    9  O13 UNL     1      19.241  26.483   1.370  1.00  0.00    -0.270 OA
HETATM   10  C18 UNL     1      18.655  25.609   0.592  1.00  0.00     0.318 A 
HETATM   11  O14 UNL     1      17.485  25.187   0.873  1.00  0.00    -0.257 OA
ENDROOT
BRANCH   6  12
HETATM   12  N2  UNL     1      22.959  29.256   2.465  1.00  0.00    -0.343 N 
ATOM     13  H2  UNL     1      22.669  30.228   2.356  1.00  0.00     0.164 HD
BRANCH  12  14
HETATM   14  C11 UNL     1      23.949  28.996   3.450  1.00  0.00     0.335 C 
HETATM   15  N3  UNL     1      23.659  27.801   4.249  1.00  0.00    -0.329 N 
HETATM   16  C12 UNL     1      24.559  27.538   5.153  1.00  0.00     0.149 C 
ATOM     17  H3  UNL     1      22.827  27.228   4.109  1.00  0.00     0.165 HD
HETATM   18  C13 UNL     1      25.702  28.488   5.208  1.00  0.00     0.256 C 
HETATM   19  C14 UNL     1      25.126  29.884   5.207  1.00  0.00     0.221 C 
HETATM   20  O11 UNL     1      24.042  30.031   4.374  1.00  0.00    -0.308 OA
BRANCH  16  21
HETATM   21  O7  UNL     1      24.498  26.477   6.011  1.00  0.00    -0.347 OA
ATOM     22  H7  UNL     1      25.192  26.236   6.614  1.00  0.00     0.219 HD
ENDBRANCH  16  21
BRANCH  18  23
HETATM   23  O8  UNL     1      26.433  28.345   6.385  1.00  0.00    -0.382 OA
ATOM     24  H8  UNL     1      26.785  29.176   6.683  1.00  0.00     0.210 HD
ENDBRANCH  18  23
BRANCH  19  25
HETATM   25  O9  UNL     1      24.706  30.151   6.509  1.00  0.00    -0.361 OA
ATOM     26  H9  UNL     1      25.416  30.613   6.940  1.00  0.00     0.213 HD
ENDBRANCH  19  25
BRANCH  19  27
HETATM   27  C15 UNL     1      26.175  30.901   4.766  1.00  0.00     0.235 C 
BRANCH  27  28
HETATM   28  O10 UNL     1      25.736  32.182   5.122  1.00  0.00    -0.395 OA
ATOM     29  H10 UNL     1      26.348  32.821   4.776  1.00  0.00     0.209 HD
ENDBRANCH  27  28
ENDBRANCH  19  27
ENDBRANCH  12  14
ENDBRANCH   6  12
BRANCH   5  30
HETATM   30  O6  UNL     1      24.237  28.341   0.252  1.00  0.00    -0.356 OA
ATOM     31  H6  UNL     1      24.574  29.107   0.704  1.00  0.00     0.218 HD
ENDBRANCH   5  30
BRANCH   7  32
HETATM   32  O12 UNL     1      20.348  28.264   3.014  1.00  0.00    -0.356 OA
ATOM     33  H12 UNL     1      19.476  27.940   3.207  1.00  0.00     0.218 HD
ENDBRANCH   7  32
BRANCH   4  34
HETATM   34  O5  UNL     1      22.987  26.429  -1.475  1.00  0.00    -0.357 OA
ATOM     35  H5  UNL     1      23.923  26.562  -1.566  1.00  0.00     0.217 HD
ENDBRANCH   4  34
BRANCH   2  36
HETATM   36  O4  UNL     1      21.179  25.093  -1.986  1.00  0.00    -0.357 OA
ATOM     37  H4  UNL     1      21.900  24.475  -1.936  1.00  0.00     0.217 HD
ENDBRANCH   2  36
BRANCH   1  38
HETATM   38  N1  UNL     1      18.592  24.152  -1.379  1.00  0.00    -0.355 N 
ATOM     39  H1  UNL     1      18.548  23.168  -1.114  1.00  0.00     0.162 HD
BRANCH  38  40
HETATM   40  C4  UNL     1      17.997  24.614  -2.630  1.00  0.00     0.242 C 
BRANCH  40  41
HETATM   41  C3  UNL     1      16.532  24.884  -2.461  1.00  0.00     0.232 C 
BRANCH  41  42
HETATM   42  O2  UNL     1      15.827  24.965  -3.637  1.00  0.00    -0.317 OA
BRANCH  42  43
HETATM   43  C2  UNL     1      15.924  25.869  -4.641  1.00  0.00     0.254 C 
HETATM   44  C1  UNL     1      15.168  27.175  -4.540  1.00  0.00     0.126 C 
HETATM   45  O1  UNL     1      16.621  25.656  -5.648  1.00  0.00    -0.266 OA
ENDBRANCH  42  43
ENDBRANCH  41  42
ENDBRANCH  40  41
BRANCH  40  46
HETATM   46  O3  UNL     1      18.660  25.654  -3.180  1.00  0.00    -0.375 OA
ATOM     47  H3  UNL     1      18.105  26.198  -3.725  1.00  0.00     0.212 HD
ENDBRANCH  40  46
ENDBRANCH  38  40
ENDBRANCH   1  38
TORSDOF 17
ENDMDL
MODEL 3
REMARK VINA RESULT: -8.607312875      1.843      3.168
REMARK  17 active torsions:
REMARK  status: ('A' for Active; 'I' for Inactive)
REMARK    1  A    between atoms: C2_2  and  O2_4 
REMARK    2  A    between atoms: O2_4  and  C3_5 
REMARK    3  A    between atoms: C3_5  and  C4_6 
REMARK    4  A    between atoms: C4_6  and  O3_7 
REMARK    5  A    between atoms: C4_6  and  N1_9 
REMARK    6  A    between atoms: N1_9  and  C5_11 
REMARK    7  A    between atoms: C6_12  and  O4_13 
REMARK    8  A    between atoms: C8_16  and  O5_17 
REMARK    9  A    between atoms: C9_19  and  O6_20 
REMARK   10  A    between atoms: C10_22  and  N2_23 
REMARK   11  A    between atoms: N2_23  and  C11_25 
REMARK   12  A    between atoms: C12_28  and  O7_29 
REMARK   13  A    between atoms: C13_31  and  O8_32 
REMARK   14  A    between atoms: C14_34  and  O9_35 
REMARK   15  A    between atoms: C14_34  and  C15_37 
REMARK   16  A    between atoms: C15_37  and  O10_38 
REMARK   17  A    between atoms: C16_41  and  O12_42 
ROOT
HETATM    1  C5  UNL     1      18.961  25.209  -1.100  1.00  0.00     0.141 A 
HETATM    2  C6  UNL     1      20.178  25.787  -1.441  1.00  0.00     0.114 A 
HETATM    3  C7  UNL     1      20.830  26.541  -0.484  1.00  0.00     0.072 A 
HETATM    4  C8  UNL     1      22.049  27.131  -0.795  1.00  0.00     0.117 A 
HETATM    5  C9  UNL     1      22.707  27.893   0.172  1.00  0.00     0.129 A 
HETATM    6  C10 UNL     1      22.173  28.070   1.428  1.00  0.00     0.104 A 
HETATM    7  C16 UNL     1      20.971  27.482   1.716  1.00  0.00     0.130 A 
HETATM    8  C17 UNL     1      20.297  26.715   0.760  1.00  0.00     0.131 A 
HETATM    9  O13 UNL     1      19.131  26.155   1.069  1.00  0.00    -0.270 OA
HETATM   10  C18 UNL     1      18.497  25.437   0.177  1.00  0.00     0.318 A 
HETATM   11  O14 UNL     1      17.379  24.897   0.469  1.00  0.00    -0.257 OA
ENDROOT
BRANCH   6  12
HETATM   12  N2  UNL     1      22.843  28.837   2.388  1.00  0.00    -0.343 N 
ATOM     13  H2  UNL     1      22.709  29.847   2.339  1.00  0.00     0.164 HD
BRANCH  12  14
HETATM   14  C11 UNL     1      23.690  28.358   3.422  1.00  0.00     0.335 C 
HETATM   15  N3  UNL     1      24.688  29.346   3.846  1.00  0.00    -0.329 N 
HETATM   16  C12 UNL     1      25.470  28.931   4.802  1.00  0.00     0.149 C 
ATOM     17  H3  UNL     1      24.762  30.274   3.430  1.00  0.00     0.165 HD
HETATM   18  C13 UNL     1      25.210  27.547   5.281  1.00  0.00     0.256 C 
HETATM   19  C14 UNL     1      25.099  26.664   4.062  1.00  0.00     0.221 C 
HETATM   20  O11 UNL     1      24.430  27.254   3.014  1.00  0.00    -0.308 OA
BRANCH  16  21
HETATM   21  O7  UNL     1      26.470  29.679   5.354  1.00  0.00    -0.347 OA
ATOM     22  H7  UNL     1      27.279  29.904   4.908  1.00  0.00     0.219 HD
ENDBRANCH  16  21
BRANCH  18  23
HETATM   23  O8  UNL     1      26.269  27.061   6.046  1.00  0.00    -0.382 OA
ATOM     24  H8  UNL     1      26.138  27.229   6.972  1.00  0.00     0.210 HD
ENDBRANCH  18  23
BRANCH  19  25
HETATM   25  O9  UNL     1      26.397  26.386   3.640  1.00  0.00    -0.361 OA
ATOM     26  H9  UNL     1      26.398  25.494   3.311  1.00  0.00     0.213 HD
ENDBRANCH  19  25
BRANCH  19  27
HETATM   27  C15 UNL     1      24.359  25.371   4.396  1.00  0.00     0.235 C 
BRANCH  27  28
HETATM   28  O10 UNL     1      25.220  24.534   5.116  1.00  0.00    -0.395 OA
ATOM     29  H10 UNL     1      24.786  24.267   5.918  1.00  0.00     0.209 HD
ENDBRANCH  27  28
ENDBRANCH  19  27
ENDBRANCH  12  14
ENDBRANCH   6  12
BRANCH   5  30
HETATM   30  O6  UNL     1      23.910  28.496  -0.084  1.00  0.00    -0.356 OA
ATOM     31  H6  UNL     1      24.508  28.734   0.616  1.00  0.00     0.218 HD
ENDBRANCH   5  30
BRANCH   7  32
HETATM   32  O12 UNL     1      20.342  27.600   2.951  1.00  0.00    -0.356 OA
ATOM     33  H12 UNL     1      20.814  27.727   3.766  1.00  0.00     0.218 HD
ENDBRANCH   7  32
BRANCH   4  34
HETATM   34  O5  UNL     1      22.554  26.932  -2.063  1.00  0.00    -0.357 OA
ATOM     35  H5  UNL     1      22.527  27.663  -2.669  1.00  0.00     0.217 HD
ENDBRANCH   4  34
BRANCH   2  36
HETATM   36  O4  UNL     1      20.749  25.636  -2.680  1.00  0.00    -0.357 OA
ATOM     37  H4  UNL     1      21.582  25.196  -2.812  1.00  0.00     0.217 HD
ENDBRANCH   2  36
BRANCH   1  38
HETATM   38  N1  UNL     1      18.277  24.438  -2.051  1.00  0.00    -0.355 N 
ATOM     39  H1  UNL     1      18.579  23.487  -2.265  1.00  0.00     0.162 HD
BRANCH  38  40
HETATM   40  C4  UNL     1      17.124  25.024  -2.729  1.00  0.00     0.242 C 
BRANCH  40  41
HETATM   41  C3  UNL     1      17.503  25.542  -4.084  1.00  0.00     0.232 C 
BRANCH  41  42
HETATM   42  O2  UNL     1      18.652  24.996  -4.604  1.00  0.00    -0.317 OA
BRANCH  42  43
HETATM   43  C2  UNL     1      19.056  24.901  -5.893  1.00  0.00     0.254 C 
HETATM   44  C1  UNL     1      20.093  23.868  -6.273  1.00  0.00     0.126 C 
HETATM   45  O1  UNL     1      18.596  25.642  -6.778  1.00  0.00    -0.266 OA
ENDBRANCH  42  43
ENDBRANCH  41  42
ENDBRANCH  40  41
BRANCH  40  46
HETATM   46  O3  UNL     1      16.055  24.200  -2.765  1.00  0.00    -0.375 OA
ATOM     47  H3  UNL     1      15.564  24.269  -3.575  1.00  0.00     0.212 HD
ENDBRANCH  40  46
ENDBRANCH  38  40
ENDBRANCH   1  38
TORSDOF 17
ENDMDL
MODEL 4
REMARK VINA RESULT: -8.528049466      1.728      3.175
REMARK  17 active torsions:
REMARK  status: ('A' for Active; 'I' for Inactive)
REMARK    1  A    between atoms: C2_2  and  O2_4 
REMARK    2  A    between atoms: O2_4  and  C3_5 
REMARK    3  A    between atoms: C3_5  and  C4_6 
REMARK    4  A    between atoms: C4_6  and  O3_7 
REMARK    5  A    between atoms: C4_6  and  N1_9 
REMARK    6  A    between atoms: N1_9  and  C5_11 
REMARK    7  A    between atoms: C6_12  and  O4_13 
REMARK    8  A    between atoms: C8_16  and  O5_17 
REMARK    9  A    between atoms: C9_19  and  O6_20 
REMARK   10  A    between atoms: C10_22  and  N2_23 
REMARK   11  A    between atoms: N2_23  and  C11_25 
REMARK   12  A    between atoms: C12_28  and  O7_29 
REMARK   13  A    between atoms: C13_31  and  O8_32 
REMARK   14  A    between atoms: C14_34  and  O9_35 
REMARK   15  A    between atoms: C14_34  and  C15_37 
REMARK   16  A    between atoms: C15_37  and  O10_38 
REMARK   17  A    between atoms: C16_41  and  O12_42 
ROOT
HETATM    1  C5  UNL     1      18.551  25.203  -2.346  1.00  0.00     0.141 A 
HETATM    2  C6  UNL     1      19.914  25.471  -2.381  1.00  0.00     0.114 A 
HETATM    3  C7  UNL     1      20.563  25.701  -1.183  1.00  0.00     0.072 A 
HETATM    4  C8  UNL     1      21.926  25.971  -1.186  1.00  0.00     0.117 A 
HETATM    5  C9  UNL     1      22.580  26.203   0.025  1.00  0.00     0.129 A 
HETATM    6  C10 UNL     1      21.902  26.169   1.222  1.00  0.00     0.104 A 
HETATM    7  C16 UNL     1      20.560  25.902   1.205  1.00  0.00     0.130 A 
HETATM    8  C17 UNL     1      19.887  25.666   0.002  1.00  0.00     0.131 A 
HETATM    9  O13 UNL     1      18.582  25.409   0.018  1.00  0.00    -0.270 OA
HETATM   10  C18 UNL     1      17.949  25.189  -1.106  1.00  0.00     0.318 A 
HETATM   11  O14 UNL     1      16.698  24.941  -1.097  1.00  0.00    -0.257 OA
ENDROOT
BRANCH   6  12
HETATM   12  N2  UNL     1      22.571  26.404   2.428  1.00  0.00    -0.343 N 
ATOM     13  H2  UNL     1      22.751  25.589   3.016  1.00  0.00     0.164 HD
BRANCH  12  14
HETATM   14  C11 UNL     1      23.024  27.655   2.923  1.00  0.00     0.335 C 
HETATM   15  N3  UNL     1      23.441  28.573   1.857  1.00  0.00    -0.329 N 
HETATM   16  C12 UNL     1      23.852  29.732   2.287  1.00  0.00     0.149 C 
ATOM     17  H3  UNL     1      23.410  28.326   0.868  1.00  0.00     0.165 HD
HETATM   18  C13 UNL     1      23.825  29.909   3.764  1.00  0.00     0.256 C 
HETATM   19  C14 UNL     1      24.471  28.688   4.374  1.00  0.00     0.221 C 
HETATM   20  O11 UNL     1      24.146  27.515   3.732  1.00  0.00    -0.308 OA
BRANCH  16  21
HETATM   21  O7  UNL     1      24.286  30.742   1.477  1.00  0.00    -0.347 OA
ATOM     22  H7  UNL     1      24.549  31.601   1.787  1.00  0.00     0.219 HD
ENDBRANCH  16  21
BRANCH  18  23
HETATM   23  O8  UNL     1      24.574  31.014   4.164  1.00  0.00    -0.382 OA
ATOM     24  H8  UNL     1      24.902  31.503   3.418  1.00  0.00     0.210 HD
ENDBRANCH  18  23
BRANCH  19  25
HETATM   25  O9  UNL     1      25.850  28.864   4.273  1.00  0.00    -0.361 OA
ATOM     26  H9  UNL     1      26.257  28.121   4.703  1.00  0.00     0.213 HD
ENDBRANCH  19  25
BRANCH  19  27
HETATM   27  C15 UNL     1      24.059  28.530   5.835  1.00  0.00     0.235 C 
BRANCH  27  28
HETATM   28  O10 UNL     1      24.444  29.679   6.536  1.00  0.00    -0.395 OA
ATOM     29  H10 UNL     1      23.671  30.073   6.924  1.00  0.00     0.209 HD
ENDBRANCH  27  28
ENDBRANCH  19  27
ENDBRANCH  12  14
ENDBRANCH   6  12
BRANCH   5  30
HETATM   30  O6  UNL     1      23.922  26.474   0.077  1.00  0.00    -0.356 OA
ATOM     31  H6  UNL     1      24.504  26.003   0.662  1.00  0.00     0.218 HD
ENDBRANCH   5  30
BRANCH   7  32
HETATM   32  O12 UNL     1      19.780  25.847   2.357  1.00  0.00    -0.356 OA
ATOM     33  H12 UNL     1      19.498  26.621   2.832  1.00  0.00     0.218 HD
ENDBRANCH   7  32
BRANCH   4  34
HETATM   34  O5  UNL     1      22.572  25.997  -2.404  1.00  0.00    -0.357 OA
ATOM     35  H5  UNL     1      22.874  25.171  -2.762  1.00  0.00     0.217 HD
ENDBRANCH   4  34
BRANCH   2  36
HETATM   36  O4  UNL     1      20.631  25.514  -3.551  1.00  0.00    -0.357 OA
ATOM     37  H4  UNL     1      21.244  26.213  -3.753  1.00  0.00     0.217 HD
ENDBRANCH   2  36
BRANCH   1  38
HETATM   38  N1  UNL     1      17.867  24.966  -3.547  1.00  0.00    -0.355 N 
ATOM     39  H1  UNL     1      17.880  24.043  -3.980  1.00  0.00     0.162 HD
BRANCH  38  40
HETATM   40  C4  UNL     1      17.136  26.069  -4.165  1.00  0.00     0.242 C 
BRANCH  40  41
HETATM   41  C3  UNL     1      17.562  26.265  -5.589  1.00  0.00     0.232 C 
BRANCH  41  42
HETATM   42  O2  UNL     1      18.808  25.767  -5.886  1.00  0.00    -0.317 OA
BRANCH  42  43
HETATM   43  C2  UNL     1      19.167  24.819  -6.784  1.00  0.00     0.254 C 
HETATM   44  C1  UNL     1      20.148  23.742  -6.375  1.00  0.00     0.126 C 
HETATM   45  O1  UNL     1      18.711  24.807  -7.940  1.00  0.00    -0.266 OA
ENDBRANCH  42  43
ENDBRANCH  41  42
ENDBRANCH  40  41
BRANCH  40  46
HETATM   46  O3  UNL     1      15.797  25.958  -4.031  1.00  0.00    -0.375 OA
ATOM     47  H3  UNL     1      15.480  25.082  -4.215  1.00  0.00     0.212 HD
ENDBRANCH  40  46
ENDBRANCH  38  40
ENDBRANCH   1  38
TORSDOF 17
ENDMDL
MODEL 5
REMARK VINA RESULT: -8.461982595      1.303      1.571
REMARK  17 active torsions:
REMARK  status: ('A' for Active; 'I' for Inactive)
REMARK    1  A    between atoms: C2_2  and  O2_4 
REMARK    2  A    between atoms: O2_4  and  C3_5 
REMARK    3  A    between atoms: C3_5  and  C4_6 
REMARK    4  A    between atoms: C4_6  and  O3_7 
REMARK    5  A    between atoms: C4_6  and  N1_9 
REMARK    6  A    between atoms: N1_9  and  C5_11 
REMARK    7  A    between atoms: C6_12  and  O4_13 
REMARK    8  A    between atoms: C8_16  and  O5_17 
REMARK    9  A    between atoms: C9_19  and  O6_20 
REMARK   10  A    between atoms: C10_22  and  N2_23 
REMARK   11  A    between atoms: N2_23  and  C11_25 
REMARK   12  A    between atoms: C12_28  and  O7_29 
REMARK   13  A    between atoms: C13_31  and  O8_32 
REMARK   14  A    between atoms: C14_34  and  O9_35 
REMARK   15  A    between atoms: C14_34  and  C15_37 
REMARK   16  A    between atoms: C15_37  and  O10_38 
REMARK   17  A    between atoms: C16_41  and  O12_42 
ROOT
HETATM    1  C5  UNL     1      18.871  25.370  -2.489  1.00  0.00     0.141 A 
HETATM    2  C6  UNL     1      18.599  25.262  -1.130  1.00  0.00     0.114 A 
HETATM    3  C7  UNL     1      19.625  25.517  -0.240  1.00  0.00     0.072 A 
HETATM    4  C8  UNL     1      19.384  25.417   1.124  1.00  0.00     0.117 A 
HETATM    5  C9  UNL     1      20.421  25.675   2.023  1.00  0.00     0.129 A 
HETATM    6  C10 UNL     1      21.677  26.026   1.584  1.00  0.00     0.104 A 
HETATM    7  C16 UNL     1      21.896  26.118   0.236  1.00  0.00     0.130 A 
HETATM    8  C17 UNL     1      20.869  25.865  -0.680  1.00  0.00     0.131 A 
HETATM    9  O13 UNL     1      21.112  25.963  -1.984  1.00  0.00    -0.270 OA
HETATM   10  C18 UNL     1      20.155  25.726  -2.843  1.00  0.00     0.318 A 
HETATM   11  O14 UNL     1      20.382  25.820  -4.095  1.00  0.00    -0.257 OA
ENDROOT
BRANCH   6  12
HETATM   12  N2  UNL     1      22.707  26.281   2.496  1.00  0.00    -0.343 N 
ATOM     13  H2  UNL     1      23.207  25.468   2.857  1.00  0.00     0.164 HD
BRANCH  12  14
HETATM   14  C11 UNL     1      23.130  27.550   2.972  1.00  0.00     0.335 C 
HETATM   15  N3  UNL     1      23.533  28.459   1.894  1.00  0.00    -0.329 N 
HETATM   16  C12 UNL     1      23.916  29.634   2.307  1.00  0.00     0.149 C 
ATOM     17  H3  UNL     1      23.514  28.196   0.909  1.00  0.00     0.165 HD
HETATM   18  C13 UNL     1      23.875  29.834   3.781  1.00  0.00     0.256 C 
HETATM   19  C14 UNL     1      24.544  28.638   4.414  1.00  0.00     0.221 C 
HETATM   20  O11 UNL     1      24.250  27.448   3.790  1.00  0.00    -0.308 OA
BRANCH  16  21
HETATM   21  O7  UNL     1      24.332  30.640   1.483  1.00  0.00    -0.347 OA
ATOM     22  H7  UNL     1      24.107  31.556   1.601  1.00  0.00     0.219 HD
ENDBRANCH  16  21
BRANCH  18  23
HETATM   23  O8  UNL     1      24.597  30.961   4.167  1.00  0.00    -0.382 OA
ATOM     24  H8  UNL     1      25.529  30.784   4.208  1.00  0.00     0.210 HD
ENDBRANCH  18  23
BRANCH  19  25
HETATM   25  O9  UNL     1      25.919  28.843   4.319  1.00  0.00    -0.361 OA
ATOM     26  H9  UNL     1      26.331  28.260   4.947  1.00  0.00     0.213 HD
ENDBRANCH  19  25
BRANCH  19  27
HETATM   27  C15 UNL     1      24.127  28.495   5.875  1.00  0.00     0.235 C 
BRANCH  27  28
HETATM   28  O10 UNL     1      24.402  29.696   6.541  1.00  0.00    -0.395 OA
ATOM     29  H10 UNL     1      23.786  30.356   6.246  1.00  0.00     0.209 HD
ENDBRANCH  27  28
ENDBRANCH  19  27
ENDBRANCH  12  14
ENDBRANCH   6  12
BRANCH   5  30
HETATM   30  O6  UNL     1      20.236  25.590   3.378  1.00  0.00    -0.356 OA
ATOM     31  H6  UNL     1      20.677  24.931   3.902  1.00  0.00     0.218 HD
ENDBRANCH   5  30
BRANCH   7  32
HETATM   32  O12 UNL     1      23.127  26.462  -0.314  1.00  0.00    -0.356 OA
ATOM     33  H12 UNL     1      23.496  27.336  -0.258  1.00  0.00     0.218 HD
ENDBRANCH   7  32
BRANCH   4  34
HETATM   34  O5  UNL     1      18.114  25.063   1.527  1.00  0.00    -0.357 OA
ATOM     35  H5  UNL     1      18.002  24.763   2.422  1.00  0.00     0.217 HD
ENDBRANCH   4  34
BRANCH   2  36
HETATM   36  O4  UNL     1      17.362  24.916  -0.647  1.00  0.00    -0.357 OA
ATOM     37  H4  UNL     1      17.157  24.907   0.281  1.00  0.00     0.217 HD
ENDBRANCH   2  36
BRANCH   1  38
HETATM   38  N1  UNL     1      17.849  25.118  -3.415  1.00  0.00    -0.355 N 
ATOM     39  H1  UNL     1      17.888  24.300  -4.024  1.00  0.00     0.162 HD
BRANCH  38  40
HETATM   40  C4  UNL     1      16.727  26.050  -3.492  1.00  0.00     0.242 C 
BRANCH  40  41
HETATM   41  C3  UNL     1      16.410  26.393  -4.916  1.00  0.00     0.232 C 
BRANCH  41  42
HETATM   42  O2  UNL     1      15.456  27.370  -5.070  1.00  0.00    -0.317 OA
BRANCH  42  43
HETATM   43  C2  UNL     1      15.582  28.717  -4.994  1.00  0.00     0.254 C 
HETATM   44  C1  UNL     1      14.907  29.462  -3.863  1.00  0.00     0.126 C 
HETATM   45  O1  UNL     1      16.238  29.361  -5.829  1.00  0.00    -0.266 OA
ENDBRANCH  42  43
ENDBRANCH  41  42
ENDBRANCH  40  41
BRANCH  40  46
HETATM   46  O3  UNL     1      15.645  25.634  -2.801  1.00  0.00    -0.375 OA
ATOM     47  H3  UNL     1      15.846  25.417  -1.898  1.00  0.00     0.212 HD
ENDBRANCH  40  46
ENDBRANCH  38  40
ENDBRANCH   1  38
TORSDOF 17
ENDMDL
