MODEL 1
REMARK VINA RESULT: -8.662883943      0.000      0.000
REMARK  16 active torsions:
REMARK  status: ('A' for Active; 'I' for Inactive)
REMARK    1  A    between atoms: N1_1  and  C1_4 
REMARK    2  A    between atoms: C4_11  and  O1_12 
REMARK    3  A    between atoms: O1_12  and  C5_13 
REMARK    4  A    between atoms: C5_13  and  C6_14 
REMARK    5  A    between atoms: C6_14  and  C9_23 
REMARK    6  A    between atoms: C9_23  and  O2_24 
REMARK    7  A    between atoms: C9_23  and  O3_26 
REMARK    8  A    between atoms: C9_23  and  C10_28 
REMARK    9  A    between atoms: C10_28  and  N7_29 
REMARK   10  A    between atoms: C12_31  and  C13_32 
REMARK   11  A    between atoms: C13_32  and  O4_33 
REMARK   12  A    between atoms: C13_32  and  O5_35 
REMARK   13  A    between atoms: C13_32  and  C14_37 
REMARK   14  A    between atoms: C14_37  and  O6_38 
REMARK   15  A    between atoms: C15_44  and  N10_45 
REMARK   16  A    between atoms: N12_52  and  O8_53 
ROOT
HETATM    1  C6  UNL     1      19.536  23.846   2.738  1.00  0.00     0.073 C 
HETATM    2  C7  UNL     1      18.324  24.474   3.094  1.00  0.00     0.134 A 
HETATM    3  N4  UNL     1      17.253  23.922   3.775  1.00  0.00    -0.336 N 
ATOM      4  H4  UNL     1      17.238  22.970   4.139  1.00  0.00     0.168 HD
HETATM    5  C8  UNL     1      16.248  24.780   3.898  1.00  0.00     0.199 A 
HETATM    6  N5  UNL     1      16.666  25.900   3.293  1.00  0.00    -0.295 N 
ATOM      7  H5  UNL     1      16.124  26.760   3.207  1.00  0.00     0.187 HD
HETATM    8  N6  UNL     1      17.885  25.719   2.825  1.00  0.00    -0.284 N 
ATOM      9  H6  UNL     1      18.425  26.427   2.327  1.00  0.00     0.188 HD
ENDROOT
BRANCH   1  10
HETATM   10  C5  UNL     1      20.835  24.127   3.387  1.00  0.00     0.161 C 
BRANCH  10  11
HETATM   11  O1  UNL     1      21.464  25.240   3.449  1.00  0.00    -0.302 OA
BRANCH  11  12
HETATM   12  C4  UNL     1      22.104  26.372   3.524  1.00  0.00     0.192 A 
HETATM   13  C1  UNL     1      21.699  27.430   2.657  1.00  0.00     0.153 A 
HETATM   14  N2  UNL     1      22.337  28.592   2.673  1.00  0.00    -0.322 N 
HETATM   15  C2  UNL     1      23.372  28.789   3.500  1.00  0.00     0.170 A 
ATOM     16  H2  UNL     1      22.037  29.341   2.050  1.00  0.00     0.169 HD
HETATM   17  C3  UNL     1      23.795  27.766   4.361  1.00  0.00     0.125 A 
HETATM   18  N12 UNL     1      24.001  29.982   3.448  1.00  0.00    -0.153 N 
HETATM   19  N3  UNL     1      23.138  26.617   4.333  1.00  0.00    -0.327 N 
HETATM   20  C15 UNL     1      24.909  28.040   5.167  1.00  0.00     0.134 A 
ATOM     21  H3  UNL     1      23.439  25.876   4.965  1.00  0.00     0.168 HD
HETATM   22  N11 UNL     1      25.498  29.225   5.076  1.00  0.00    -0.291 N 
HETATM   23  C16 UNL     1      25.056  30.187   4.227  1.00  0.00     0.354 A 
ATOM     24  H11 UNL     1      26.310  29.419   5.662  1.00  0.00     0.172 HD
HETATM   25  O7  UNL     1      25.658  31.300   4.170  1.00  0.00    -0.244 OA
BRANCH  13  26
HETATM   26  N1  UNL     1      20.675  27.179   1.859  1.00  0.00    -0.382 N 
ATOM     27  H12 UNL     1      20.887  26.702   0.983  1.00  0.00     0.157 HD
ATOM     28  H11 UNL     1      19.715  27.439   2.086  1.00  0.00     0.157 HD
ENDBRANCH  13  26
BRANCH  20  29
HETATM   29  N10 UNL     1      25.285  27.042   5.948  1.00  0.00    -0.383 N 
ATOM     30 2H10 UNL     1      25.098  26.051   5.788  1.00  0.00     0.157 HD
ATOM     31 1H10 UNL     1      25.791  27.324   6.788  1.00  0.00     0.157 HD
ENDBRANCH  20  29
BRANCH  18  32
HETATM   32  O8  UNL     1      23.518  30.972   2.591  1.00  0.00    -0.277 OA
ATOM     33  H8  UNL     1      23.321  31.833   2.940  1.00  0.00     0.245 HD
ENDBRANCH  18  32
ENDBRANCH  11  12
ENDBRANCH  10  11
ENDBRANCH   1  10
BRANCH   1  34
HETATM   34  C9  UNL     1      19.555  22.509   2.088  1.00  0.00     0.212 C 
BRANCH  34  35
HETATM   35  O2  UNL     1      18.505  21.700   2.625  1.00  0.00    -0.360 OA
ATOM     36  H2  UNL     1      18.832  20.825   2.792  1.00  0.00     0.213 HD
ENDBRANCH  34  35
BRANCH  34  37
HETATM   37  O3  UNL     1      20.759  21.831   2.279  1.00  0.00    -0.360 OA
ATOM     38  H3  UNL     1      20.843  21.064   1.725  1.00  0.00     0.213 HD
ENDBRANCH  34  37
BRANCH  34  39
HETATM   39  C10 UNL     1      19.287  22.508   0.608  1.00  0.00     0.223 C 
BRANCH  39  40
HETATM   40  N7  UNL     1      20.198  23.528   0.028  1.00  0.00    -0.281 N 
HETATM   41  C11 UNL     1      19.986  24.663  -0.574  1.00  0.00     0.144 A 
HETATM   42  C12 UNL     1      21.212  25.198  -0.968  1.00  0.00     0.108 A 
HETATM   43  N8  UNL     1      22.137  24.285  -0.552  1.00  0.00    -0.283 N 
HETATM   44  N9  UNL     1      21.533  23.307   0.033  1.00  0.00    -0.240 N 
ATOM     45  H8  UNL     1      23.145  24.364  -0.682  1.00  0.00     0.188 HD
ATOM     46  H9  UNL     1      21.992  22.491   0.437  1.00  0.00     0.208 HD
BRANCH  42  47
HETATM   47  C13 UNL     1      21.510  26.439  -1.706  1.00  0.00     0.229 C 
BRANCH  47  48
HETATM   48  O4  UNL     1      20.777  27.531  -1.227  1.00  0.00    -0.359 OA
ATOM     49  H4  UNL     1      20.610  28.177  -1.903  1.00  0.00     0.213 HD
ENDBRANCH  47  48
BRANCH  47  50
HETATM   50  O5  UNL     1      21.386  26.287  -3.067  1.00  0.00    -0.359 OA
ATOM     51  H5  UNL     1      20.850  26.964  -3.462  1.00  0.00     0.213 HD
ENDBRANCH  47  50
BRANCH  47  52
HETATM   52  C14 UNL     1      22.994  26.752  -1.370  1.00  0.00     0.239 C 
BRANCH  52  53
HETATM   53  O6  UNL     1      23.358  27.851  -2.147  1.00  0.00    -0.395 OA
ATOM     54  H6  UNL     1      22.911  28.605  -1.780  1.00  0.00     0.209 HD
ENDBRANCH  52  53
ENDBRANCH  47  52
ENDBRANCH  42  47
ENDBRANCH  39  40
ENDBRANCH  34  39
ENDBRANCH   1  34
TORSDOF 16
ENDMDL
MODEL 2
REMARK VINA RESULT: -8.584201549      1.001      1.818
REMARK  16 active torsions:
REMARK  status: ('A' for Active; 'I' for Inactive)
REMARK    1  A    between atoms: N1_1  and  C1_4 
REMARK    2  A    between atoms: C4_11  and  O1_12 
REMARK    3  A    between atoms: O1_12  and  C5_13 
REMARK    4  A    between atoms: C5_13  and  C6_14 
REMARK    5  A    between atoms: C6_14  and  C9_23 
REMARK    6  A    between atoms: C9_23  and  O2_24 
REMARK    7  A    between atoms: C9_23  and  O3_26 
REMARK    8  A    between atoms: C9_23  and  C10_28 
REMARK    9  A    between atoms: C10_28  and  N7_29 
REMARK   10  A    between atoms: C12_31  and  C13_32 
REMARK   11  A    between atoms: C13_32  and  O4_33 
REMARK   12  A    between atoms: C13_32  and  O5_35 
REMARK   13  A    between atoms: C13_32  and  C14_37 
REMARK   14  A    between atoms: C14_37  and  O6_38 
REMARK   15  A    between atoms: C15_44  and  N10_45 
REMARK   16  A    between atoms: N12_52  and  O8_53 
ROOT
HETATM    1  C6  UNL     1      19.920  23.901   2.694  1.00  0.00     0.073 C 
HETATM    2  C7  UNL     1      18.761  24.680   2.895  1.00  0.00     0.134 A 
HETATM    3  N4  UNL     1      17.572  24.291   3.484  1.00  0.00    -0.336 N 
ATOM      4  H4  UNL     1      17.409  23.367   3.886  1.00  0.00     0.168 HD
HETATM    5  C8  UNL     1      16.667  25.261   3.465  1.00  0.00     0.199 A 
HETATM    6  N5  UNL     1      17.270  26.293   2.859  1.00  0.00    -0.295 N 
ATOM      7  H5  UNL     1      16.844  27.202   2.680  1.00  0.00     0.187 HD
HETATM    8  N6  UNL     1      18.500  25.950   2.529  1.00  0.00    -0.284 N 
ATOM      9  H6  UNL     1      19.165  26.565   2.059  1.00  0.00     0.188 HD
ENDROOT
BRANCH   1  10
HETATM   10  C5  UNL     1      21.173  24.070   3.462  1.00  0.00     0.161 C 
BRANCH  10  11
HETATM   11  O1  UNL     1      21.851  25.140   3.645  1.00  0.00    -0.302 OA
BRANCH  11  12
HETATM   12  C4  UNL     1      22.531  26.235   3.829  1.00  0.00     0.192 A 
HETATM   13  C1  UNL     1      22.827  26.626   5.169  1.00  0.00     0.153 A 
HETATM   14  N2  UNL     1      23.490  27.747   5.410  1.00  0.00    -0.322 N 
HETATM   15  C2  UNL     1      23.892  28.531   4.402  1.00  0.00     0.170 A 
ATOM     16  H2  UNL     1      23.697  28.014   6.372  1.00  0.00     0.169 HD
HETATM   17  C3  UNL     1      23.613  28.175   3.074  1.00  0.00     0.125 A 
HETATM   18  N12 UNL     1      24.536  29.676   4.712  1.00  0.00    -0.153 N 
HETATM   19  N3  UNL     1      22.955  27.047   2.856  1.00  0.00    -0.327 N 
HETATM   20  C15 UNL     1      24.034  29.069   2.080  1.00  0.00     0.134 A 
ATOM     21  H3  UNL     1      22.760  26.783   1.891  1.00  0.00     0.168 HD
HETATM   22  N11 UNL     1      24.657  30.186   2.434  1.00  0.00    -0.291 N 
HETATM   23  C16 UNL     1      24.906  30.491   3.732  1.00  0.00     0.354 A 
ATOM     24  H11 UNL     1      24.960  30.834   1.707  1.00  0.00     0.172 HD
HETATM   25  O7  UNL     1      25.497  31.574   4.021  1.00  0.00    -0.244 OA
BRANCH  13  26
HETATM   26  N1  UNL     1      22.403  25.816   6.125  1.00  0.00    -0.382 N 
ATOM     27  H12 UNL     1      21.418  25.888   6.378  1.00  0.00     0.157 HD
ATOM     28  H11 UNL     1      23.011  25.149   6.599  1.00  0.00     0.157 HD
ENDBRANCH  13  26
BRANCH  20  29
HETATM   29  N10 UNL     1      23.733  28.705   0.844  1.00  0.00    -0.383 N 
ATOM     30 2H10 UNL     1      24.185  29.039  -0.007  1.00  0.00     0.157 HD
ATOM     31 1H10 UNL     1      22.962  28.041   0.771  1.00  0.00     0.157 HD
ENDBRANCH  20  29
BRANCH  18  32
HETATM   32  O8  UNL     1      24.810  29.964   6.049  1.00  0.00    -0.277 OA
ATOM     33  H8  UNL     1      25.674  29.780   6.397  1.00  0.00     0.245 HD
ENDBRANCH  18  32
ENDBRANCH  11  12
ENDBRANCH  10  11
ENDBRANCH   1  10
BRANCH   1  34
HETATM   34  C9  UNL     1      19.846  22.537   2.108  1.00  0.00     0.212 C 
BRANCH  34  35
HETATM   35  O2  UNL     1      18.798  21.800   2.742  1.00  0.00    -0.360 OA
ATOM     36  H2  UNL     1      18.724  20.943   2.340  1.00  0.00     0.213 HD
ENDBRANCH  34  35
BRANCH  34  37
HETATM   37  O3  UNL     1      21.031  21.817   2.261  1.00  0.00    -0.360 OA
ATOM     38  H3  UNL     1      20.955  20.915   1.973  1.00  0.00     0.213 HD
ENDBRANCH  34  37
BRANCH  34  39
HETATM   39  C10 UNL     1      19.491  22.482   0.647  1.00  0.00     0.223 C 
BRANCH  39  40
HETATM   40  N7  UNL     1      20.351  23.492  -0.020  1.00  0.00    -0.281 N 
HETATM   41  C11 UNL     1      20.084  24.555  -0.722  1.00  0.00     0.144 A 
HETATM   42  C12 UNL     1      21.284  25.116  -1.161  1.00  0.00     0.108 A 
HETATM   43  N8  UNL     1      22.252  24.295  -0.661  1.00  0.00    -0.283 N 
HETATM   44  N9  UNL     1      21.696  23.343   0.008  1.00  0.00    -0.240 N 
ATOM     45  H8  UNL     1      23.256  24.415  -0.796  1.00  0.00     0.188 HD
ATOM     46  H9  UNL     1      22.194  22.592   0.485  1.00  0.00     0.208 HD
BRANCH  42  47
HETATM   47  C13 UNL     1      21.522  26.299  -2.007  1.00  0.00     0.229 C 
BRANCH  47  48
HETATM   48  O4  UNL     1      20.998  27.469  -1.445  1.00  0.00    -0.359 OA
ATOM     49  H4  UNL     1      21.556  27.823  -0.763  1.00  0.00     0.213 HD
ENDBRANCH  47  48
BRANCH  47  50
HETATM   50  O5  UNL     1      21.104  26.114  -3.304  1.00  0.00    -0.359 OA
ATOM     51  H5  UNL     1      21.342  26.838  -3.871  1.00  0.00     0.213 HD
ENDBRANCH  47  50
BRANCH  47  52
HETATM   52  C14 UNL     1      23.064  26.487  -1.999  1.00  0.00     0.239 C 
BRANCH  52  53
HETATM   53  O6  UNL     1      23.301  27.859  -2.075  1.00  0.00    -0.395 OA
ATOM     54  H6  UNL     1      23.814  28.090  -1.309  1.00  0.00     0.209 HD
ENDBRANCH  52  53
ENDBRANCH  47  52
ENDBRANCH  42  47
ENDBRANCH  39  40
ENDBRANCH  34  39
ENDBRANCH   1  34
TORSDOF 16
ENDMDL
MODEL 3
REMARK VINA RESULT: -8.381475054      2.203      7.055
REMARK  16 active torsions:
REMARK  status: ('A' for Active; 'I' for Inactive)
REMARK    1  A    between atoms: N1_1  and  C1_4 
REMARK    2  A    between atoms: C4_11  and  O1_12 
REMARK    3  A    between atoms: O1_12  and  C5_13 
REMARK    4  A    between atoms: C5_13  and  C6_14 
REMARK    5  A    between atoms: C6_14  and  C9_23 
REMARK    6  A    between atoms: C9_23  and  O2_24 
REMARK    7  A    between atoms: C9_23  and  O3_26 
REMARK    8  A    between atoms: C9_23  and  C10_28 
REMARK    9  A    between atoms: C10_28  and  N7_29 
REMARK   10  A    between atoms: C12_31  and  C13_32 
REMARK   11  A    between atoms: C13_32  and  O4_33 
REMARK   12  A    between atoms: C13_32  and  O5_35 
REMARK   13  A    between atoms: C13_32  and  C14_37 
REMARK   14  A    between atoms: C14_37  and  O6_38 
REMARK   15  A    between atoms: C15_44  and  N10_45 
REMARK   16  A    between atoms: N12_52  and  O8_53 
ROOT
HETATM    1  C6  UNL     1      24.167  28.742   3.581  1.00  0.00     0.073 C 
HETATM    2  C7  UNL     1      24.863  29.776   4.241  1.00  0.00     0.134 A 
HETATM    3  N4  UNL     1      24.681  31.141   4.102  1.00  0.00    -0.336 N 
ATOM      4  H4  UNL     1      23.969  31.564   3.507  1.00  0.00     0.168 HD
HETATM    5  C8  UNL     1      25.543  31.834   4.835  1.00  0.00     0.199 A 
HETATM    6  N5  UNL     1      26.294  30.914   5.457  1.00  0.00    -0.295 N 
ATOM      7  H5  UNL     1      27.060  31.117   6.101  1.00  0.00     0.187 HD
HETATM    8  N6  UNL     1      25.890  29.708   5.109  1.00  0.00    -0.284 N 
ATOM      9  H6  UNL     1      26.301  28.840   5.453  1.00  0.00     0.188 HD
ENDROOT
BRANCH   1  10
HETATM   10  C5  UNL     1      23.171  27.866   4.236  1.00  0.00     0.161 C 
BRANCH  10  11
HETATM   11  O1  UNL     1      22.607  26.819   3.766  1.00  0.00    -0.302 OA
BRANCH  11  12
HETATM   12  C4  UNL     1      22.032  25.757   3.277  1.00  0.00     0.192 A 
HETATM   13  C1  UNL     1      22.459  24.482   3.753  1.00  0.00     0.153 A 
HETATM   14  N2  UNL     1      21.927  23.371   3.266  1.00  0.00    -0.322 N 
HETATM   15  C2  UNL     1      20.981  23.427   2.319  1.00  0.00     0.170 A 
ATOM     16  H2  UNL     1      22.239  22.466   3.615  1.00  0.00     0.169 HD
HETATM   17  C3  UNL     1      20.543  24.666   1.829  1.00  0.00     0.125 A 
HETATM   18  N12 UNL     1      20.499  22.261   1.840  1.00  0.00    -0.153 N 
HETATM   19  N3  UNL     1      21.084  25.763   2.335  1.00  0.00    -0.327 N 
HETATM   20  C15 UNL     1      19.579  24.637   0.812  1.00  0.00     0.134 A 
ATOM     21  H3  UNL     1      20.759  26.664   1.986  1.00  0.00     0.168 HD
HETATM   22  N11 UNL     1      19.140  23.466   0.368  1.00  0.00    -0.291 N 
HETATM   23  C16 UNL     1      19.593  22.289   0.871  1.00  0.00     0.354 A 
ATOM     24  H11 UNL     1      18.440  23.450  -0.374  1.00  0.00     0.172 HD
HETATM   25  O7  UNL     1      19.150  21.197   0.409  1.00  0.00    -0.244 OA
BRANCH  13  26
HETATM   26  N1  UNL     1      23.398  24.485   4.685  1.00  0.00    -0.382 N 
ATOM     27  H12 UNL     1      24.352  24.658   4.368  1.00  0.00     0.157 HD
ATOM     28  H11 UNL     1      23.202  24.327   5.673  1.00  0.00     0.157 HD
ENDBRANCH  13  26
BRANCH  20  29
HETATM   29  N10 UNL     1      19.209  25.826   0.365  1.00  0.00    -0.383 N 
ATOM     30 2H10 UNL     1      19.233  26.136  -0.606  1.00  0.00     0.157 HD
ATOM     31 1H10 UNL     1      18.894  26.474   1.088  1.00  0.00     0.157 HD
ENDBRANCH  20  29
BRANCH  18  32
HETATM   32  O8  UNL     1      20.953  21.060   2.385  1.00  0.00    -0.277 OA
ATOM     33  H8  UNL     1      20.332  20.477   2.808  1.00  0.00     0.245 HD
ENDBRANCH  18  32
ENDBRANCH  11  12
ENDBRANCH  10  11
ENDBRANCH   1  10
BRANCH   1  34
HETATM   34  C9  UNL     1      23.955  28.764   2.109  1.00  0.00     0.212 C 
BRANCH  34  35
HETATM   35  O2  UNL     1      24.320  30.047   1.593  1.00  0.00    -0.360 OA
ATOM     36  H2  UNL     1      23.815  30.722   2.031  1.00  0.00     0.213 HD
ENDBRANCH  34  35
BRANCH  34  37
HETATM   37  O3  UNL     1      22.630  28.519   1.750  1.00  0.00    -0.360 OA
ATOM     38  H3  UNL     1      22.474  27.613   1.511  1.00  0.00     0.213 HD
ENDBRANCH  34  37
BRANCH  34  39
HETATM   39  C10 UNL     1      24.803  27.805   1.321  1.00  0.00     0.223 C 
BRANCH  39  40
HETATM   40  N7  UNL     1      23.918  27.252   0.264  1.00  0.00    -0.281 N 
HETATM   41  C11 UNL     1      23.737  26.048  -0.198  1.00  0.00     0.144 A 
HETATM   42  C12 UNL     1      22.814  26.102  -1.242  1.00  0.00     0.108 A 
HETATM   43  N8  UNL     1      22.485  27.423  -1.345  1.00  0.00    -0.283 N 
HETATM   44  N9  UNL     1      23.138  28.092  -0.456  1.00  0.00    -0.240 N 
ATOM     45  H8  UNL     1      21.827  27.817  -2.016  1.00  0.00     0.188 HD
ATOM     46  H9  UNL     1      23.076  29.100  -0.317  1.00  0.00     0.208 HD
BRANCH  42  47
HETATM   47  C13 UNL     1      22.300  25.025  -2.107  1.00  0.00     0.229 C 
BRANCH  47  48
HETATM   48  O4  UNL     1      21.498  24.118  -1.405  1.00  0.00    -0.359 OA
ATOM     49  H4  UNL     1      20.571  24.266  -1.552  1.00  0.00     0.213 HD
ENDBRANCH  47  48
BRANCH  47  50
HETATM   50  O5  UNL     1      23.294  24.397  -2.818  1.00  0.00    -0.359 OA
ATOM     51  H5  UNL     1      23.023  24.165  -3.698  1.00  0.00     0.213 HD
ENDBRANCH  47  50
BRANCH  47  52
HETATM   52  C14 UNL     1      21.347  25.740  -3.103  1.00  0.00     0.239 C 
BRANCH  52  53
HETATM   53  O6  UNL     1      20.071  25.697  -2.540  1.00  0.00    -0.395 OA
ATOM     54  H6  UNL     1      20.036  24.914  -2.003  1.00  0.00     0.209 HD
ENDBRANCH  52  53
ENDBRANCH  47  52
ENDBRANCH  42  47
ENDBRANCH  39  40
ENDBRANCH  34  39
ENDBRANCH   1  34
TORSDOF 16
ENDMDL
MODEL 4
REMARK VINA RESULT: -8.292084093      1.962      6.840
REMARK  16 active torsions:
REMARK  status: ('A' for Active; 'I' for Inactive)
REMARK    1  A    between atoms: N1_1  and  C1_4 
REMARK    2  A    between atoms: C4_11  and  O1_12 
REMARK    3  A    between atoms: O1_12  and  C5_13 
REMARK    4  A    between atoms: C5_13  and  C6_14 
REMARK    5  A    between atoms: C6_14  and  C9_23 
REMARK    6  A    between atoms: C9_23  and  O2_24 
REMARK    7  A    between atoms: C9_23  and  O3_26 
REMARK    8  A    between atoms: C9_23  and  C10_28 
REMARK    9  A    between atoms: C10_28  and  N7_29 
REMARK   10  A    between atoms: C12_31  and  C13_32 
REMARK   11  A    between atoms: C13_32  and  O4_33 
REMARK   12  A    between atoms: C13_32  and  O5_35 
REMARK   13  A    between atoms: C13_32  and  C14_37 
REMARK   14  A    between atoms: C14_37  and  O6_38 
REMARK   15  A    between atoms: C15_44  and  N10_45 
REMARK   16  A    between atoms: N12_52  and  O8_53 
ROOT
HETATM    1  C6  UNL     1      24.234  28.877   3.946  1.00  0.00     0.073 C 
HETATM    2  C7  UNL     1      25.048  29.505   4.911  1.00  0.00     0.134 A 
HETATM    3  N4  UNL     1      25.292  30.858   5.061  1.00  0.00    -0.336 N 
ATOM      4  H4  UNL     1      24.863  31.583   4.486  1.00  0.00     0.168 HD
HETATM    5  C8  UNL     1      26.151  31.102   6.043  1.00  0.00     0.199 A 
HETATM    6  N5  UNL     1      26.471  29.898   6.538  1.00  0.00    -0.295 N 
ATOM      7  H5  UNL     1      27.118  29.731   7.309  1.00  0.00     0.187 HD
HETATM    8  N6  UNL     1      25.819  28.963   5.874  1.00  0.00    -0.284 N 
ATOM      9  H6  UNL     1      25.890  27.964   6.065  1.00  0.00     0.188 HD
ENDROOT
BRANCH   1  10
HETATM   10  C5  UNL     1      22.921  28.265   4.244  1.00  0.00     0.161 C 
BRANCH  10  11
HETATM   11  O1  UNL     1      22.333  27.311   3.625  1.00  0.00    -0.302 OA
BRANCH  11  12
HETATM   12  C4  UNL     1      21.743  26.341   2.986  1.00  0.00     0.192 A 
HETATM   13  C1  UNL     1      20.685  26.674   2.089  1.00  0.00     0.153 A 
HETATM   14  N2  UNL     1      20.033  25.722   1.438  1.00  0.00    -0.322 N 
HETATM   15  C2  UNL     1      20.355  24.433   1.614  1.00  0.00     0.170 A 
ATOM     16  H2  UNL     1      19.280  25.972   0.798  1.00  0.00     0.169 HD
HETATM   17  C3  UNL     1      21.388  24.076   2.492  1.00  0.00     0.125 A 
HETATM   18  N12 UNL     1      19.634  23.508   0.946  1.00  0.00    -0.153 N 
HETATM   19  N3  UNL     1      22.031  25.044   3.126  1.00  0.00    -0.327 N 
HETATM   20  C15 UNL     1      21.637  22.705   2.648  1.00  0.00     0.134 A 
ATOM     21  H3  UNL     1      22.789  24.785   3.757  1.00  0.00     0.168 HD
HETATM   22  N11 UNL     1      20.898  21.832   1.977  1.00  0.00    -0.291 N 
HETATM   23  C16 UNL     1      19.906  22.222   1.137  1.00  0.00     0.354 A 
ATOM     24  H11 UNL     1      21.081  20.835   2.095  1.00  0.00     0.172 HD
HETATM   25  O7  UNL     1      19.221  21.350   0.524  1.00  0.00    -0.244 OA
BRANCH  13  26
HETATM   26  N1  UNL     1      20.407  27.960   1.957  1.00  0.00    -0.382 N 
ATOM     27  H12 UNL     1      19.446  28.240   2.155  1.00  0.00     0.157 HD
ATOM     28  H11 UNL     1      21.099  28.653   1.675  1.00  0.00     0.157 HD
ENDBRANCH  13  26
BRANCH  20  29
HETATM   29  N10 UNL     1      22.606  22.412   3.500  1.00  0.00    -0.383 N 
ATOM     30 2H10 UNL     1      23.270  23.072   3.903  1.00  0.00     0.157 HD
ATOM     31 1H10 UNL     1      22.679  21.423   3.739  1.00  0.00     0.157 HD
ENDBRANCH  20  29
BRANCH  18  32
HETATM   32  O8  UNL     1      18.637  23.924   0.065  1.00  0.00    -0.277 OA
ATOM     33  H8  UNL     1      18.844  24.030  -0.856  1.00  0.00     0.245 HD
ENDBRANCH  18  32
ENDBRANCH  11  12
ENDBRANCH  10  11
ENDBRANCH   1  10
BRANCH   1  34
HETATM   34  C9  UNL     1      24.334  29.221   2.503  1.00  0.00     0.212 C 
BRANCH  34  35
HETATM   35  O2  UNL     1      24.906  30.524   2.361  1.00  0.00    -0.360 OA
ATOM     36  H2  UNL     1      24.477  30.984   1.649  1.00  0.00     0.213 HD
ENDBRANCH  34  35
BRANCH  34  37
HETATM   37  O3  UNL     1      23.097  29.223   1.859  1.00  0.00    -0.360 OA
ATOM     38  H3  UNL     1      22.928  30.029   1.386  1.00  0.00     0.213 HD
ENDBRANCH  34  37
BRANCH  34  39
HETATM   39  C10 UNL     1      25.244  28.340   1.692  1.00  0.00     0.223 C 
BRANCH  39  40
HETATM   40  N7  UNL     1      24.362  27.591   0.761  1.00  0.00    -0.281 N 
HETATM   41  C11 UNL     1      23.473  27.969  -0.113  1.00  0.00     0.144 A 
HETATM   42  C12 UNL     1      22.891  26.836  -0.680  1.00  0.00     0.108 A 
HETATM   43  N8  UNL     1      23.508  25.785  -0.065  1.00  0.00    -0.283 N 
HETATM   44  N9  UNL     1      24.371  26.238   0.780  1.00  0.00    -0.240 N 
ATOM     45  H8  UNL     1      23.318  24.800  -0.246  1.00  0.00     0.188 HD
ATOM     46  H9  UNL     1      24.969  25.663   1.373  1.00  0.00     0.208 HD
BRANCH  42  47
HETATM   47  C13 UNL     1      21.821  26.726  -1.688  1.00  0.00     0.229 C 
BRANCH  47  48
HETATM   48  O4  UNL     1      22.229  27.176  -2.948  1.00  0.00    -0.359 OA
ATOM     49  H4  UNL     1      21.848  28.018  -3.171  1.00  0.00     0.213 HD
ENDBRANCH  47  48
BRANCH  47  50
HETATM   50  O5  UNL     1      20.649  27.316  -1.280  1.00  0.00    -0.359 OA
ATOM     51  H5  UNL     1      19.973  27.285  -1.947  1.00  0.00     0.213 HD
ENDBRANCH  47  50
BRANCH  47  52
HETATM   52  C14 UNL     1      21.585  25.198  -1.847  1.00  0.00     0.239 C 
BRANCH  52  53
HETATM   53  O6  UNL     1      22.542  24.737  -2.750  1.00  0.00    -0.395 OA
ATOM     54  H6  UNL     1      22.883  23.924  -2.395  1.00  0.00     0.209 HD
ENDBRANCH  52  53
ENDBRANCH  47  52
ENDBRANCH  42  47
ENDBRANCH  39  40
ENDBRANCH  34  39
ENDBRANCH   1  34
TORSDOF 16
ENDMDL
MODEL 5
REMARK VINA RESULT: -8.276540768      2.399      4.006
REMARK  16 active torsions:
REMARK  status: ('A' for Active; 'I' for Inactive)
REMARK    1  A    between atoms: N1_1  and  C1_4 
REMARK    2  A    between atoms: C4_11  and  O1_12 
REMARK    3  A    between atoms: O1_12  and  C5_13 
REMARK    4  A    between atoms: C5_13  and  C6_14 
REMARK    5  A    between atoms: C6_14  and  C9_23 
REMARK    6  A    between atoms: C9_23  and  O2_24 
REMARK    7  A    between atoms: C9_23  and  O3_26 
REMARK    8  A    between atoms: C9_23  and  C10_28 
REMARK    9  A    between atoms: C10_28  and  N7_29 
REMARK   10  A    between atoms: C12_31  and  C13_32 
REMARK   11  A    between atoms: C13_32  and  O4_33 
REMARK   12  A    between atoms: C13_32  and  O5_35 
REMARK   13  A    between atoms: C13_32  and  C14_37 
REMARK   14  A    between atoms: C14_37  and  O6_38 
REMARK   15  A    between atoms: C15_44  and  N10_45 
REMARK   16  A    between atoms: N12_52  and  O8_53 
ROOT
HETATM    1  C6  UNL     1      21.918  23.959   0.901  1.00  0.00     0.073 C 
HETATM    2  C7  UNL     1      22.863  24.353  -0.070  1.00  0.00     0.134 A 
HETATM    3  N4  UNL     1      22.626  25.017  -1.260  1.00  0.00    -0.336 N 
ATOM      4  H4  UNL     1      21.706  25.339  -1.561  1.00  0.00     0.168 HD
HETATM    5  C8  UNL     1      23.738  25.187  -1.964  1.00  0.00     0.199 A 
HETATM    6  N5  UNL     1      24.709  24.628  -1.227  1.00  0.00    -0.295 N 
ATOM      7  H5  UNL     1      25.694  24.585  -1.487  1.00  0.00     0.187 HD
HETATM    8  N6  UNL     1      24.193  24.143  -0.115  1.00  0.00    -0.284 N 
ATOM      9  H6  UNL     1      24.729  23.673   0.614  1.00  0.00     0.188 HD
ENDROOT
BRANCH   1  10
HETATM   10  C5  UNL     1      21.770  24.609   2.221  1.00  0.00     0.161 C 
BRANCH  10  11
HETATM   11  O1  UNL     1      22.312  25.691   2.636  1.00  0.00    -0.302 OA
BRANCH  11  12
HETATM   12  C4  UNL     1      22.855  26.799   3.054  1.00  0.00     0.192 A 
HETATM   13  C1  UNL     1      22.311  28.032   2.587  1.00  0.00     0.153 A 
HETATM   14  N2  UNL     1      22.846  29.185   2.959  1.00  0.00    -0.322 N 
HETATM   15  C2  UNL     1      23.907  29.212   3.776  1.00  0.00     0.170 A 
ATOM     16  H2  UNL     1      22.447  30.060   2.619  1.00  0.00     0.169 HD
HETATM   17  C3  UNL     1      24.466  28.016   4.249  1.00  0.00     0.125 A 
HETATM   18  N12 UNL     1      24.426  30.417   4.094  1.00  0.00    -0.153 N 
HETATM   19  N3  UNL     1      23.910  26.876   3.871  1.00  0.00    -0.327 N 
HETATM   20  C15 UNL     1      25.597  28.130   5.069  1.00  0.00     0.134 A 
ATOM     21  H3  UNL     1      24.310  26.006   4.222  1.00  0.00     0.168 HD
HETATM   22  N11 UNL     1      26.076  29.335   5.349  1.00  0.00    -0.291 N 
HETATM   23  C16 UNL     1      25.503  30.467   4.868  1.00  0.00     0.354 A 
ATOM     24  H11 UNL     1      26.901  29.412   5.944  1.00  0.00     0.172 HD
HETATM   25  O7  UNL     1      26.003  31.595   5.156  1.00  0.00    -0.244 OA
BRANCH  13  26
HETATM   26  N1  UNL     1      21.267  27.946   1.779  1.00  0.00    -0.382 N 
ATOM     27  H12 UNL     1      21.119  27.047   1.321  1.00  0.00     0.157 HD
ATOM     28  H11 UNL     1      20.630  28.724   1.608  1.00  0.00     0.157 HD
ENDBRANCH  13  26
BRANCH  20  29
HETATM   29  N10 UNL     1      26.103  26.978   5.476  1.00  0.00    -0.383 N 
ATOM     30 2H10 UNL     1      25.579  26.200   5.878  1.00  0.00     0.157 HD
ATOM     31 1H10 UNL     1      27.116  26.899   5.383  1.00  0.00     0.157 HD
ENDBRANCH  20  29
BRANCH  18  32
HETATM   32  O8  UNL     1      23.811  31.573   3.616  1.00  0.00    -0.277 OA
ATOM     33  H8  UNL     1      24.337  32.348   3.456  1.00  0.00     0.245 HD
ENDBRANCH  18  32
ENDBRANCH  11  12
ENDBRANCH  10  11
ENDBRANCH   1  10
BRANCH   1  34
HETATM   34  C9  UNL     1      20.667  23.250   0.524  1.00  0.00     0.212 C 
BRANCH  34  35
HETATM   35  O2  UNL     1      20.604  21.995   1.206  1.00  0.00    -0.360 OA
ATOM     36  H2  UNL     1      19.909  22.018   1.852  1.00  0.00     0.213 HD
ENDBRANCH  34  35
BRANCH  34  37
HETATM   37  O3  UNL     1      20.579  22.999  -0.846  1.00  0.00    -0.360 OA
ATOM     38  H3  UNL     1      19.773  22.558  -1.089  1.00  0.00     0.213 HD
ENDBRANCH  34  37
BRANCH  34  39
HETATM   39  C10 UNL     1      19.390  23.939   0.921  1.00  0.00     0.223 C 
BRANCH  39  40
HETATM   40  N7  UNL     1      18.899  24.622  -0.301  1.00  0.00    -0.281 N 
HETATM   41  C11 UNL     1      17.891  24.398  -1.096  1.00  0.00     0.144 A 
HETATM   42  C12 UNL     1      17.926  25.324  -2.138  1.00  0.00     0.108 A 
HETATM   43  N8  UNL     1      19.027  26.090  -1.883  1.00  0.00    -0.283 N 
HETATM   44  N9  UNL     1      19.592  25.670  -0.803  1.00  0.00    -0.240 N 
ATOM     45  H8  UNL     1      19.350  26.869  -2.456  1.00  0.00     0.188 HD
ATOM     46  H9  UNL     1      20.435  26.069  -0.389  1.00  0.00     0.208 HD
BRANCH  42  47
HETATM   47  C13 UNL     1      17.034  25.473  -3.302  1.00  0.00     0.229 C 
BRANCH  47  48
HETATM   48  O4  UNL     1      16.430  26.734  -3.352  1.00  0.00    -0.359 OA
ATOM     49  H4  UNL     1      16.404  27.088  -4.233  1.00  0.00     0.213 HD
ENDBRANCH  47  48
BRANCH  47  50
HETATM   50  O5  UNL     1      16.117  24.454  -3.398  1.00  0.00    -0.359 OA
ATOM     51  H5  UNL     1      15.549  24.401  -2.639  1.00  0.00     0.213 HD
ENDBRANCH  47  50
BRANCH  47  52
HETATM   52  C14 UNL     1      17.979  25.414  -4.533  1.00  0.00     0.239 C 
BRANCH  52  53
HETATM   53  O6  UNL     1      17.205  25.733  -5.649  1.00  0.00    -0.395 OA
ATOM     54  H6  UNL     1      17.677  25.415  -6.409  1.00  0.00     0.209 HD
ENDBRANCH  52  53
ENDBRANCH  47  52
ENDBRANCH  42  47
ENDBRANCH  39  40
ENDBRANCH  34  39
ENDBRANCH   1  34
TORSDOF 16
ENDMDL
