MODEL 1
REMARK VINA RESULT: -4.631248673      0.000      0.000
REMARK  4 active torsions:
REMARK  status: ('A' for Active; 'I' for Inactive)
REMARK       I    between atoms: C2_4  and  N3_6 
REMARK    1  A    between atoms: N3_6  and  C3_8 
REMARK    2  A    between atoms: C3_8  and  C4_9 
REMARK    3  A    between atoms: C4_9  and  N4_10 
REMARK    4  A    between atoms: C6_12  and  N5_13 
ROOT
HETATM    1  C3  UNL     1      -3.778   4.257  12.049  1.00  0.00     0.152 C 
ENDROOT
BRANCH   1   2
HETATM    2  N3  UNL     1      -4.298   3.122  12.784  1.00  0.00    -0.363 N 
HETATM    3  C2  UNL     1      -4.513   1.896  12.113  1.00  0.00     0.183 C 
HETATM    4  N1  UNL     1      -3.899   0.843  12.574  1.00  0.00    -0.369 N 
HETATM    5  N2  UNL     1      -5.359   1.830  10.993  1.00  0.00    -0.064 NA
HETATM    6  C1  UNL     1      -4.118  -0.413  11.891  1.00  0.00     0.148 C 
ATOM      7  H1  UNL     1      -3.285   0.903  13.387  1.00  0.00     0.161 HD
ATOM      8  H3  UNL     1      -4.508   3.208  13.779  1.00  0.00     0.162 HD
ENDBRANCH   1   2
BRANCH   1   9
HETATM    9  C4  UNL     1      -2.344   3.996  11.701  1.00  0.00     0.295 C 
BRANCH   9  10
HETATM   10  N4  UNL     1      -1.417   4.451  12.690  1.00  0.00     0.126 N 
HETATM   11  C5  UNL     1      -1.173   5.837  12.934  1.00  0.00     0.340 A 
HETATM   12  C6  UNL     1      -1.861   5.006  13.946  1.00  0.00     0.445 A 
BRANCH  12  13
HETATM   13  N5  UNL     1      -1.177   4.459  15.093  1.00  0.00    -0.046 N 
ATOM     14  H53 UNL     1      -1.823   3.933  15.681  1.00  0.00     0.277 HD
ATOM     15  H52 UNL     1      -0.548   3.706  14.813  1.00  0.00     0.277 HD
ATOM     16  H51 UNL     1      -0.678   5.159  15.643  1.00  0.00     0.277 HD
ENDBRANCH  12  13
ENDBRANCH   9  10
ENDBRANCH   1   9
TORSDOF 4
ENDMDL
MODEL 2
REMARK VINA RESULT: -4.452975344      1.401      1.761
REMARK  4 active torsions:
REMARK  status: ('A' for Active; 'I' for Inactive)
REMARK       I    between atoms: C2_4  and  N3_6 
REMARK    1  A    between atoms: N3_6  and  C3_8 
REMARK    2  A    between atoms: C3_8  and  C4_9 
REMARK    3  A    between atoms: C4_9  and  N4_10 
REMARK    4  A    between atoms: C6_12  and  N5_13 
ROOT
HETATM    1  C3  UNL     1      -2.999   3.203  11.685  1.00  0.00     0.152 C 
ENDROOT
BRANCH   1   2
HETATM    2  N3  UNL     1      -4.139   3.076  12.570  1.00  0.00    -0.363 N 
HETATM    3  C2  UNL     1      -4.219   1.970  13.449  1.00  0.00     0.183 C 
HETATM    4  N1  UNL     1      -4.322   2.222  14.723  1.00  0.00    -0.369 N 
HETATM    5  N2  UNL     1      -4.187   0.656  12.952  1.00  0.00    -0.064 NA
HETATM    6  C1  UNL     1      -4.407   1.093  15.624  1.00  0.00     0.148 C 
ATOM      7  H1  UNL     1      -4.342   3.180  15.072  1.00  0.00     0.161 HD
ATOM      8  H3  UNL     1      -4.878   3.778  12.560  1.00  0.00     0.162 HD
ENDBRANCH   1   2
BRANCH   1   9
HETATM    9  C4  UNL     1      -2.454   4.595  11.790  1.00  0.00     0.295 C 
BRANCH   9  10
HETATM   10  N4  UNL     1      -1.475   4.755  12.820  1.00  0.00     0.126 N 
HETATM   11  C5  UNL     1      -1.039   6.037  13.272  1.00  0.00     0.340 A 
HETATM   12  C6  UNL     1      -1.839   5.162  14.156  1.00  0.00     0.445 A 
BRANCH  12  13
HETATM   13  N5  UNL     1      -1.242   4.351  15.189  1.00  0.00    -0.046 N 
ATOM     14  H53 UNL     1      -0.225   4.425  15.163  1.00  0.00     0.277 HD
ATOM     15  H52 UNL     1      -1.419   4.753  16.110  1.00  0.00     0.277 HD
ATOM     16  H51 UNL     1      -1.533   3.374  15.161  1.00  0.00     0.277 HD
ENDBRANCH  12  13
ENDBRANCH   9  10
ENDBRANCH   1   9
TORSDOF 4
ENDMDL
MODEL 3
REMARK VINA RESULT: -4.283391952      1.134      1.326
REMARK  4 active torsions:
REMARK  status: ('A' for Active; 'I' for Inactive)
REMARK       I    between atoms: C2_4  and  N3_6 
REMARK    1  A    between atoms: N3_6  and  C3_8 
REMARK    2  A    between atoms: C3_8  and  C4_9 
REMARK    3  A    between atoms: C4_9  and  N4_10 
REMARK    4  A    between atoms: C6_12  and  N5_13 
ROOT
HETATM    1  C3  UNL     1      -3.807   4.263  10.945  1.00  0.00     0.152 C 
ENDROOT
BRANCH   1   2
HETATM    2  N3  UNL     1      -4.145   3.393  12.053  1.00  0.00    -0.363 N 
HETATM    3  C2  UNL     1      -4.454   2.035  11.803  1.00  0.00     0.183 C 
HETATM    4  N1  UNL     1      -3.735   1.134  12.411  1.00  0.00    -0.369 N 
HETATM    5  N2  UNL     1      -5.500   1.686  10.932  1.00  0.00    -0.064 NA
HETATM    6  C1  UNL     1      -4.050  -0.255  12.160  1.00  0.00     0.148 C 
ATOM      7  H1  UNL     1      -2.977   1.399  13.040  1.00  0.00     0.161 HD
ATOM      8  H3  UNL     1      -4.160   3.757  13.006  1.00  0.00     0.162 HD
ENDBRANCH   1   2
BRANCH   1   9
HETATM    9  C4  UNL     1      -2.452   3.888  10.427  1.00  0.00     0.295 C 
BRANCH   9  10
HETATM   10  N4  UNL     1      -1.482   3.664  11.454  1.00  0.00     0.126 N 
HETATM   11  C5  UNL     1      -0.100   3.981  11.289  1.00  0.00     0.340 A 
HETATM   12  C6  UNL     1      -0.938   4.750  12.234  1.00  0.00     0.445 A 
BRANCH  12  13
HETATM   13  N5  UNL     1      -0.935   4.497  13.654  1.00  0.00    -0.046 N 
ATOM     14  H53 UNL     1      -0.529   3.583  13.856  1.00  0.00     0.277 HD
ATOM     15  H52 UNL     1      -0.255   5.094  14.125  1.00  0.00     0.277 HD
ATOM     16  H51 UNL     1      -1.854   4.588  14.087  1.00  0.00     0.277 HD
ENDBRANCH  12  13
ENDBRANCH   9  10
ENDBRANCH   1   9
TORSDOF 4
ENDMDL
MODEL 4
REMARK VINA RESULT: -4.191408085      1.902      2.600
REMARK  4 active torsions:
REMARK  status: ('A' for Active; 'I' for Inactive)
REMARK       I    between atoms: C2_4  and  N3_6 
REMARK    1  A    between atoms: N3_6  and  C3_8 
REMARK    2  A    between atoms: C3_8  and  C4_9 
REMARK    3  A    between atoms: C4_9  and  N4_10 
REMARK    4  A    between atoms: C6_12  and  N5_13 
ROOT
HETATM    1  C3  UNL     1      -4.497   2.244  11.635  1.00  0.00     0.152 C 
ENDROOT
BRANCH   1   2
HETATM    2  N3  UNL     1      -3.743   1.550  12.659  1.00  0.00    -0.363 N 
HETATM    3  C2  UNL     1      -4.062   1.758  14.021  1.00  0.00     0.183 C 
HETATM    4  N1  UNL     1      -4.378   0.711  14.730  1.00  0.00    -0.369 N 
HETATM    5  N2  UNL     1      -4.036   3.049  14.575  1.00  0.00    -0.064 NA
HETATM    6  C1  UNL     1      -4.703   0.919  16.125  1.00  0.00     0.148 C 
ATOM      7  H1  UNL     1      -4.395  -0.221  14.317  1.00  0.00     0.161 HD
ATOM      8  H3  UNL     1      -2.986   0.917  12.399  1.00  0.00     0.162 HD
ENDBRANCH   1   2
BRANCH   1   9
HETATM    9  C4  UNL     1      -3.572   3.144  10.874  1.00  0.00     0.295 C 
BRANCH   9  10
HETATM   10  N4  UNL     1      -2.258   3.228  11.434  1.00  0.00     0.126 N 
HETATM   11  C5  UNL     1      -1.194   3.932  10.793  1.00  0.00     0.340 A 
HETATM   12  C6  UNL     1      -1.774   4.436  12.057  1.00  0.00     0.445 A 
BRANCH  12  13
HETATM   13  N5  UNL     1      -1.149   4.215  13.338  1.00  0.00    -0.046 N 
ATOM     14  H53 UNL     1      -1.780   3.717  13.966  1.00  0.00     0.277 HD
ATOM     15  H52 UNL     1      -0.404   3.523  13.261  1.00  0.00     0.277 HD
ATOM     16  H51 UNL     1      -0.804   5.069  13.777  1.00  0.00     0.277 HD
ENDBRANCH  12  13
ENDBRANCH   9  10
ENDBRANCH   1   9
TORSDOF 4
ENDMDL
MODEL 5
REMARK VINA RESULT: -4.148516739      1.760      2.881
REMARK  4 active torsions:
REMARK  status: ('A' for Active; 'I' for Inactive)
REMARK       I    between atoms: C2_4  and  N3_6 
REMARK    1  A    between atoms: N3_6  and  C3_8 
REMARK    2  A    between atoms: C3_8  and  C4_9 
REMARK    3  A    between atoms: C4_9  and  N4_10 
REMARK    4  A    between atoms: C6_12  and  N5_13 
ROOT
HETATM    1  C3  UNL     1      -3.959   4.435  12.416  1.00  0.00     0.152 C 
ENDROOT
BRANCH   1   2
HETATM    2  N3  UNL     1      -4.455   3.224  13.036  1.00  0.00    -0.363 N 
HETATM    3  C2  UNL     1      -4.593   2.049  12.260  1.00  0.00     0.183 C 
HETATM    4  N1  UNL     1      -3.951   0.988  12.659  1.00  0.00    -0.369 N 
HETATM    5  N2  UNL     1      -5.396   2.041  11.107  1.00  0.00    -0.064 NA
HETATM    6  C1  UNL     1      -4.092  -0.216  11.870  1.00  0.00     0.148 C 
ATOM      7  H1  UNL     1      -3.369   1.005  13.497  1.00  0.00     0.161 HD
ATOM      8  H3  UNL     1      -4.704   3.219  14.026  1.00  0.00     0.162 HD
ENDBRANCH   1   2
BRANCH   1   9
HETATM    9  C4  UNL     1      -2.580   4.181  11.886  1.00  0.00     0.295 C 
BRANCH   9  10
HETATM   10  N4  UNL     1      -2.378   4.653  10.551  1.00  0.00     0.126 N 
HETATM   11  C5  UNL     1      -1.245   4.279   9.767  1.00  0.00     0.340 A 
HETATM   12  C6  UNL     1      -2.598   3.804   9.405  1.00  0.00     0.445 A 
BRANCH  12  13
HETATM   13  N5  UNL     1      -3.385   4.425   8.368  1.00  0.00    -0.046 N 
ATOM     14  H53 UNL     1      -3.656   3.740   7.662  1.00  0.00     0.277 HD
ATOM     15  H52 UNL     1      -4.307   4.682   8.720  1.00  0.00     0.277 HD
ATOM     16  H51 UNL     1      -2.928   5.228   7.935  1.00  0.00     0.277 HD
ENDBRANCH  12  13
ENDBRANCH   9  10
ENDBRANCH   1   9
TORSDOF 4
ENDMDL
