MODEL 1
REMARK VINA RESULT: -4.694656348      0.000      0.000
REMARK  4 active torsions:
REMARK  status: ('A' for Active; 'I' for Inactive)
REMARK    1  A    between atoms: C2_2  and  N1_4 
REMARK    2  A    between atoms: C2_2  and  C5_12 
REMARK    3  A    between atoms: N1_4  and  C4_6 
REMARK    4  A    between atoms: C4_6  and  N2_7 
ROOT
HETATM    1  N1  UNL     1      -3.221   3.526  14.777  1.00  0.00    -0.374 N 
ATOM      2  H1  UNL     1      -2.752   3.434  15.678  1.00  0.00     0.161 HD
ENDROOT
BRANCH   1   3
HETATM    3  C2  UNL     1      -4.465   2.864  14.444  1.00  0.00     0.051 C 
HETATM    4  C1  UNL     1      -5.594   3.841  14.322  1.00  0.00     0.041 C 
HETATM    5  C3  UNL     1      -4.245   2.187  13.129  1.00  0.00     0.041 C 
BRANCH   3   6
HETATM    6  C5  UNL     1      -4.836   1.780  15.442  1.00  0.00     0.172 A 
HETATM    7  C6  UNL     1      -4.376   0.440  15.418  1.00  0.00     0.202 A 
HETATM    8  O1  UNL     1      -3.517   1.391  16.076  1.00  0.00    -0.379 OA
ENDBRANCH   3   6
ENDBRANCH   1   3
BRANCH   1   9
HETATM    9  C4  UNL     1      -2.722   4.333  13.687  1.00  0.00     0.193 C 
BRANCH   9  10
HETATM   10  N2  UNL     1      -1.327   4.416  13.541  1.00  0.00    -0.303 N 
HETATM   11  N3  UNL     1      -0.801   3.847  12.571  1.00  0.00    -0.344 N 
ATOM     12  H32 UNL     1      -1.382   3.336  11.906  1.00  0.00     0.176 HD
ATOM     13  H31 UNL     1       0.212   3.907  12.465  1.00  0.00     0.176 HD
ATOM     14  H2  UNL     1      -0.761   4.931  14.215  1.00  0.00     0.187 HD
ENDBRANCH   9  10
ENDBRANCH   1   9
TORSDOF 4
ENDMDL
MODEL 2
REMARK VINA RESULT: -4.416152196      2.051      2.404
REMARK  4 active torsions:
REMARK  status: ('A' for Active; 'I' for Inactive)
REMARK    1  A    between atoms: C2_2  and  N1_4 
REMARK    2  A    between atoms: C2_2  and  C5_12 
REMARK    3  A    between atoms: N1_4  and  C4_6 
REMARK    4  A    between atoms: C4_6  and  N2_7 
ROOT
HETATM    1  N1  UNL     1      -2.509   3.167  12.493  1.00  0.00    -0.374 N 
ATOM      2  H1  UNL     1      -1.992   2.288  12.459  1.00  0.00     0.161 HD
ENDROOT
BRANCH   1   3
HETATM    3  C2  UNL     1      -3.933   3.277  12.259  1.00  0.00     0.051 C 
HETATM    4  C1  UNL     1      -4.599   4.126  13.297  1.00  0.00     0.041 C 
HETATM    5  C3  UNL     1      -4.094   3.911  10.915  1.00  0.00     0.041 C 
BRANCH   3   6
HETATM    6  C5  UNL     1      -4.620   1.923  12.192  1.00  0.00     0.172 A 
HETATM    7  C6  UNL     1      -3.970   0.664  12.176  1.00  0.00     0.202 A 
HETATM    8  O1  UNL     1      -4.210   1.235  13.477  1.00  0.00    -0.379 OA
ENDBRANCH   3   6
ENDBRANCH   1   3
BRANCH   1   9
HETATM    9  C4  UNL     1      -1.902   4.447  12.783  1.00  0.00     0.193 C 
BRANCH   9  10
HETATM   10  N2  UNL     1      -0.970   4.488  13.834  1.00  0.00    -0.303 N 
HETATM   11  N3  UNL     1      -1.373   4.271  14.988  1.00  0.00    -0.344 N 
ATOM     12  H32 UNL     1      -2.359   4.069  15.152  1.00  0.00     0.176 HD
ATOM     13  H31 UNL     1      -0.696   4.301  15.750  1.00  0.00     0.176 HD
ATOM     14  H2  UNL     1       0.013   4.692  13.652  1.00  0.00     0.187 HD
ENDBRANCH   9  10
ENDBRANCH   1   9
TORSDOF 4
ENDMDL
MODEL 3
REMARK VINA RESULT: -4.354461216      1.901      2.356
REMARK  4 active torsions:
REMARK  status: ('A' for Active; 'I' for Inactive)
REMARK    1  A    between atoms: C2_2  and  N1_4 
REMARK    2  A    between atoms: C2_2  and  C5_12 
REMARK    3  A    between atoms: N1_4  and  C4_6 
REMARK    4  A    between atoms: C4_6  and  N2_7 
ROOT
HETATM    1  N1  UNL     1      -3.283   3.715  14.460  1.00  0.00    -0.374 N 
ATOM      2  H1  UNL     1      -3.139   3.002  15.175  1.00  0.00     0.161 HD
ENDROOT
BRANCH   1   3
HETATM    3  C2  UNL     1      -4.446   3.771  13.600  1.00  0.00     0.051 C 
HETATM    4  C1  UNL     1      -5.716   3.826  14.392  1.00  0.00     0.041 C 
HETATM    5  C3  UNL     1      -4.310   5.017  12.784  1.00  0.00     0.041 C 
BRANCH   3   6
HETATM    6  C5  UNL     1      -4.506   2.609  12.622  1.00  0.00     0.172 A 
HETATM    7  C6  UNL     1      -3.948   2.592  11.320  1.00  0.00     0.202 A 
HETATM    8  O1  UNL     1      -3.056   2.238  12.395  1.00  0.00    -0.379 OA
ENDBRANCH   3   6
ENDBRANCH   1   3
BRANCH   1   9
HETATM    9  C4  UNL     1      -2.350   4.786  14.190  1.00  0.00     0.193 C 
BRANCH   9  10
HETATM   10  N2  UNL     1      -1.029   4.419  13.883  1.00  0.00    -0.303 N 
HETATM   11  N3  UNL     1      -0.779   4.027  12.731  1.00  0.00    -0.344 N 
ATOM     12  H32 UNL     1      -1.526   3.978  12.038  1.00  0.00     0.176 HD
ATOM     13  H31 UNL     1       0.180   3.761  12.509  1.00  0.00     0.176 HD
ATOM     14  H2  UNL     1      -0.294   4.474  14.588  1.00  0.00     0.187 HD
ENDBRANCH   9  10
ENDBRANCH   1   9
TORSDOF 4
ENDMDL
MODEL 4
REMARK VINA RESULT: -4.337144037      1.895      2.490
REMARK  4 active torsions:
REMARK  status: ('A' for Active; 'I' for Inactive)
REMARK    1  A    between atoms: C2_2  and  N1_4 
REMARK    2  A    between atoms: C2_2  and  C5_12 
REMARK    3  A    between atoms: N1_4  and  C4_6 
REMARK    4  A    between atoms: C4_6  and  N2_7 
ROOT
HETATM    1  N1  UNL     1      -2.647   2.370  12.079  1.00  0.00    -0.374 N 
ATOM      2  H1  UNL     1      -2.440   1.466  12.505  1.00  0.00     0.161 HD
ENDROOT
BRANCH   1   3
HETATM    3  C2  UNL     1      -3.985   2.902  11.927  1.00  0.00     0.051 C 
HETATM    4  C1  UNL     1      -3.994   4.138  11.080  1.00  0.00     0.041 C 
HETATM    5  C3  UNL     1      -4.793   1.834  11.263  1.00  0.00     0.041 C 
BRANCH   3   6
HETATM    6  C5  UNL     1      -4.653   3.195  13.260  1.00  0.00     0.172 A 
HETATM    7  C6  UNL     1      -4.507   2.432  14.445  1.00  0.00     0.202 A 
HETATM    8  O1  UNL     1      -3.498   3.432  14.210  1.00  0.00    -0.379 OA
ENDBRANCH   3   6
ENDBRANCH   1   3
BRANCH   1   9
HETATM    9  C4  UNL     1      -1.640   3.267  11.559  1.00  0.00     0.193 C 
BRANCH   9  10
HETATM   10  N2  UNL     1      -0.646   3.698  12.454  1.00  0.00    -0.303 N 
HETATM   11  N3  UNL     1      -0.982   4.430  13.399  1.00  0.00    -0.344 N 
ATOM     12  H32 UNL     1      -1.959   4.702  13.509  1.00  0.00     0.176 HD
ATOM     13  H31 UNL     1      -0.260   4.743  14.049  1.00  0.00     0.176 HD
ATOM     14  H2  UNL     1       0.326   3.417  12.330  1.00  0.00     0.187 HD
ENDBRANCH   9  10
ENDBRANCH   1   9
TORSDOF 4
ENDMDL
MODEL 5
REMARK VINA RESULT: -4.281238346      2.877      3.284
REMARK  4 active torsions:
REMARK  status: ('A' for Active; 'I' for Inactive)
REMARK    1  A    between atoms: C2_2  and  N1_4 
REMARK    2  A    between atoms: C2_2  and  C5_12 
REMARK    3  A    between atoms: N1_4  and  C4_6 
REMARK    4  A    between atoms: C4_6  and  N2_7 
ROOT
HETATM    1  N1  UNL     1      -3.044   3.500  12.876  1.00  0.00    -0.374 N 
ATOM      2  H1  UNL     1      -3.202   2.630  13.386  1.00  0.00     0.161 HD
ENDROOT
BRANCH   1   3
HETATM    3  C2  UNL     1      -3.362   3.683  11.476  1.00  0.00     0.051 C 
HETATM    4  C1  UNL     1      -4.038   4.997  11.231  1.00  0.00     0.041 C 
HETATM    5  C3  UNL     1      -2.063   3.644  10.737  1.00  0.00     0.041 C 
BRANCH   3   6
HETATM    6  C5  UNL     1      -4.219   2.559  10.919  1.00  0.00     0.172 A 
HETATM    7  C6  UNL     1      -4.507   1.335  11.573  1.00  0.00     0.202 A 
HETATM    8  O1  UNL     1      -5.366   2.445  11.901  1.00  0.00    -0.379 OA
ENDBRANCH   3   6
ENDBRANCH   1   3
BRANCH   1   9
HETATM    9  C4  UNL     1      -2.477   4.690  13.469  1.00  0.00     0.193 C 
BRANCH   9  10
HETATM   10  N2  UNL     1      -1.238   4.553  14.117  1.00  0.00    -0.303 N 
HETATM   11  N3  UNL     1      -1.235   4.299  15.333  1.00  0.00    -0.344 N 
ATOM     12  H32 UNL     1      -2.118   4.196  15.833  1.00  0.00     0.176 HD
ATOM     13  H31 UNL     1      -0.335   4.200  15.804  1.00  0.00     0.176 HD
ATOM     14  H2  UNL     1      -0.364   4.658  13.602  1.00  0.00     0.187 HD
ENDBRANCH   9  10
ENDBRANCH   1   9
TORSDOF 4
ENDMDL
