MODEL 1
REMARK VINA RESULT: -7.846553999      0.000      0.000
REMARK  11 active torsions:
REMARK  status: ('A' for Active; 'I' for Inactive)
REMARK    1  A    between atoms: O1_2  and  C2_3 
REMARK    2  A    between atoms: C2_3  and  C3_4 
REMARK    3  A    between atoms: C3_4  and  O2_5 
REMARK    4  A    between atoms: O2_5  and  N1_6 
REMARK    5  A    between atoms: C4_7  and  C5_8 
REMARK    6  A    between atoms: C8_18  and  C9_19 
REMARK    7  A    between atoms: C10_20  and  C11_21 
REMARK    8  A    between atoms: C11_21  and  O3_24 
REMARK    9  A    between atoms: C14_28  and  O4_29 
REMARK   10  A    between atoms: N8_34  and  N9_36 
REMARK   11  A    between atoms: N9_36  and  C16_38 
ROOT
HETATM    1  N1  UNL     1     141.301  60.274 131.844  1.00  0.00    -0.041 N 
HETATM    2  C4  UNL     1     142.439  59.777 132.377  1.00  0.00     0.176 A 
HETATM    3  C14 UNL     1     142.304  58.410 132.275  1.00  0.00     0.189 A 
HETATM    4  N7  UNL     1     141.144  58.085 131.708  1.00  0.00    -0.165 N 
ATOM      5  H7  UNL     1     140.801  57.143 131.518  1.00  0.00     0.186 HD
HETATM    6  C15 UNL     1     140.508  59.249 131.434  1.00  0.00     0.726 A 
HETATM    7  N8  UNL     1     139.351  59.325 130.879  1.00  0.00    -0.128 N 
ATOM      8  H8  UNL     1     138.939  60.241 130.706  1.00  0.00     0.205 HD
ENDROOT
BRANCH   2   9
HETATM    9  C5  UNL     1     143.557  60.535 132.937  1.00  0.00     0.153 A 
HETATM   10  N2  UNL     1     144.103  60.231 134.065  1.00  0.00    -0.173 N 
HETATM   11  C6  UNL     1     145.184  60.932 134.643  1.00  0.00     0.704 A 
ATOM     12  H2  UNL     1     143.728  59.430 134.573  1.00  0.00     0.186 HD
HETATM   13  N3  UNL     1     145.863  60.737 135.814  1.00  0.00    -0.185 N 
HETATM   14  N5  UNL     1     145.721  61.984 134.038  1.00  0.00    -0.087 N 
HETATM   15  C7  UNL     1     146.810  61.697 135.883  1.00  0.00     0.215 A 
ATOM     16  H3  UNL     1     145.688  60.006 136.504  1.00  0.00     0.185 HD
HETATM   17  N4  UNL     1     146.712  62.459 134.784  1.00  0.00    -0.276 N 
ATOM     18  H4  UNL     1     147.296  63.263 134.560  1.00  0.00     0.188 HD
HETATM   19  C8  UNL     1     145.217  62.443 132.771  1.00  0.00     0.307 A 
HETATM   20  N6  UNL     1     144.118  61.659 132.274  1.00  0.00    -0.341 N 
ATOM     21  H6  UNL     1     143.712  61.930 131.378  1.00  0.00     0.164 HD
BRANCH  19  22
HETATM   22  C9  UNL     1     144.695  63.831 132.879  1.00  0.00    -0.054 C 
HETATM   23  C10 UNL     1     144.269  64.956 132.946  1.00  0.00    -0.065 C 
BRANCH  23  24
HETATM   24  C11 UNL     1     143.746  66.326 133.001  1.00  0.00     0.114 C 
HETATM   25  C12 UNL     1     142.669  66.545 131.961  1.00  0.00     0.060 C 
HETATM   26  C13 UNL     1     143.179  66.543 134.407  1.00  0.00     0.060 C 
BRANCH  24  27
HETATM   27  O3  UNL     1     144.826  67.184 132.802  1.00  0.00    -0.378 OA
ATOM     28  H3  UNL     1     144.977  67.637 133.623  1.00  0.00     0.211 HD
ENDBRANCH  24  27
ENDBRANCH  23  24
ENDBRANCH  19  22
ENDBRANCH   2   9
BRANCH   1  29
HETATM   29  O2  UNL     1     140.946  61.587 131.709  1.00  0.00    -0.257 OA
BRANCH  29  30
HETATM   30  C3  UNL     1     140.995  62.333 130.533  1.00  0.00     0.229 C 
BRANCH  30  31
HETATM   31  C2  UNL     1     139.624  62.826 130.112  1.00  0.00     0.195 C 
BRANCH  31  32
HETATM   32  O1  UNL     1     138.620  62.329 130.913  1.00  0.00    -0.394 OA
HETATM   33  C1  UNL     1     137.356  62.740 130.517  1.00  0.00     0.201 C 
ENDBRANCH  31  32
ENDBRANCH  30  31
ENDBRANCH  29  30
ENDBRANCH   1  29
BRANCH   3  34
HETATM   34  O4  UNL     1     143.273  57.521 132.718  1.00  0.00    -0.344 OA
ATOM     35  H4  UNL     1     143.080  56.621 132.953  1.00  0.00     0.219 HD
ENDBRANCH   3  34
BRANCH   7  36
HETATM   36  N9  UNL     1     138.650  58.179 130.510  1.00  0.00    -0.264 N 
ATOM     37  H9  UNL     1     138.001  57.761 131.177  1.00  0.00     0.189 HD
BRANCH  36  38
HETATM   38  C16 UNL     1     138.811  57.575 129.234  1.00  0.00     0.200 C 
HETATM   39  N10 UNL     1     138.551  56.208 128.993  1.00  0.00    -0.068 NA
HETATM   40  S1  UNL     1     139.322  58.525 128.003  1.00  0.00    -0.043 SA
ENDBRANCH  36  38
ENDBRANCH   7  36
TORSDOF 11
ENDMDL
MODEL 2
REMARK VINA RESULT: -7.672397453      3.881      7.537
REMARK  11 active torsions:
REMARK  status: ('A' for Active; 'I' for Inactive)
REMARK    1  A    between atoms: O1_2  and  C2_3 
REMARK    2  A    between atoms: C2_3  and  C3_4 
REMARK    3  A    between atoms: C3_4  and  O2_5 
REMARK    4  A    between atoms: O2_5  and  N1_6 
REMARK    5  A    between atoms: C4_7  and  C5_8 
REMARK    6  A    between atoms: C8_18  and  C9_19 
REMARK    7  A    between atoms: C10_20  and  C11_21 
REMARK    8  A    between atoms: C11_21  and  O3_24 
REMARK    9  A    between atoms: C14_28  and  O4_29 
REMARK   10  A    between atoms: N8_34  and  N9_36 
REMARK   11  A    between atoms: N9_36  and  C16_38 
ROOT
HETATM    1  N1  UNL     1     145.932  61.420 133.983  1.00  0.00    -0.041 N 
HETATM    2  C4  UNL     1     145.663  62.734 133.820  1.00  0.00     0.176 A 
HETATM    3  C14 UNL     1     146.561  63.378 134.644  1.00  0.00     0.189 A 
HETATM    4  N7  UNL     1     147.339  62.505 135.279  1.00  0.00    -0.165 N 
ATOM      5  H7  UNL     1     148.082  62.720 135.944  1.00  0.00     0.186 HD
HETATM    6  C15 UNL     1     146.952  61.273 134.870  1.00  0.00     0.726 A 
HETATM    7  N8  UNL     1     147.485  60.177 135.277  1.00  0.00    -0.128 N 
ATOM      8  H8  UNL     1     147.136  59.288 134.920  1.00  0.00     0.205 HD
ENDROOT
BRANCH   2   9
HETATM    9  C5  UNL     1     144.642  63.328 132.958  1.00  0.00     0.153 A 
HETATM   10  N2  UNL     1     144.311  64.571 133.034  1.00  0.00    -0.173 N 
HETATM   11  C6  UNL     1     143.333  65.188 132.223  1.00  0.00     0.704 A 
ATOM     12  H2  UNL     1     144.787  65.149 133.727  1.00  0.00     0.186 HD
HETATM   13  N3  UNL     1     142.875  66.476 132.181  1.00  0.00    -0.185 N 
HETATM   14  N5  UNL     1     142.673  64.497 131.301  1.00  0.00    -0.087 N 
HETATM   15  C7  UNL     1     141.932  66.527 131.217  1.00  0.00     0.215 A 
ATOM     16  H3  UNL     1     143.186  67.250 132.768  1.00  0.00     0.185 HD
HETATM   17  N4  UNL     1     141.816  65.302 130.682  1.00  0.00    -0.276 N 
ATOM     18  H4  UNL     1     141.181  65.035 129.931  1.00  0.00     0.188 HD
HETATM   19  C8  UNL     1     142.934  63.098 131.100  1.00  0.00     0.307 A 
HETATM   20  N6  UNL     1     143.946  62.572 131.977  1.00  0.00    -0.341 N 
ATOM     21  H6  UNL     1     144.181  61.583 131.888  1.00  0.00     0.164 HD
BRANCH  19  22
HETATM   22  C9  UNL     1     141.718  62.286 131.370  1.00  0.00    -0.054 C 
HETATM   23  C10 UNL     1     140.740  61.613 131.577  1.00  0.00    -0.065 C 
BRANCH  23  24
HETATM   24  C11 UNL     1     139.560  60.775 131.816  1.00  0.00     0.114 C 
HETATM   25  C12 UNL     1     138.444  61.567 132.461  1.00  0.00     0.060 C 
HETATM   26  C13 UNL     1     139.106  60.226 130.460  1.00  0.00     0.060 C 
BRANCH  24  27
HETATM   27  O3  UNL     1     139.967  59.718 132.628  1.00  0.00    -0.378 OA
ATOM     28  H3  UNL     1     139.971  58.936 132.087  1.00  0.00     0.211 HD
ENDBRANCH  24  27
ENDBRANCH  23  24
ENDBRANCH  19  22
ENDBRANCH   2   9
BRANCH   1  29
HETATM   29  O2  UNL     1     145.313  60.361 133.381  1.00  0.00    -0.257 OA
BRANCH  29  30
HETATM   30  C3  UNL     1     144.133  59.752 133.803  1.00  0.00     0.229 C 
BRANCH  30  31
HETATM   31  C2  UNL     1     143.394  59.082 132.661  1.00  0.00     0.195 C 
BRANCH  31  32
HETATM   32  O1  UNL     1     143.841  59.506 131.428  1.00  0.00    -0.394 OA
HETATM   33  C1  UNL     1     143.132  58.949 130.374  1.00  0.00     0.201 C 
ENDBRANCH  31  32
ENDBRANCH  30  31
ENDBRANCH  29  30
ENDBRANCH   1  29
BRANCH   3  34
HETATM   34  O4  UNL     1     146.614  64.759 134.768  1.00  0.00    -0.344 OA
ATOM     35  H4  UNL     1     146.675  65.343 134.020  1.00  0.00     0.219 HD
ENDBRANCH   3  34
BRANCH   7  36
HETATM   36  N9  UNL     1     148.532  60.181 136.196  1.00  0.00    -0.264 N 
ATOM     37  H9  UNL     1     149.250  60.903 136.125  1.00  0.00     0.189 HD
BRANCH  36  38
HETATM   38  C16 UNL     1     148.632  59.212 137.230  1.00  0.00     0.200 C 
HETATM   39  N10 UNL     1     149.697  58.291 137.320  1.00  0.00    -0.068 NA
HETATM   40  S1  UNL     1     147.444  59.180 138.357  1.00  0.00    -0.043 SA
ENDBRANCH  36  38
ENDBRANCH   7  36
TORSDOF 11
ENDMDL
MODEL 3
REMARK VINA RESULT: -7.506167705      3.908      8.066
REMARK  11 active torsions:
REMARK  status: ('A' for Active; 'I' for Inactive)
REMARK    1  A    between atoms: O1_2  and  C2_3 
REMARK    2  A    between atoms: C2_3  and  C3_4 
REMARK    3  A    between atoms: C3_4  and  O2_5 
REMARK    4  A    between atoms: O2_5  and  N1_6 
REMARK    5  A    between atoms: C4_7  and  C5_8 
REMARK    6  A    between atoms: C8_18  and  C9_19 
REMARK    7  A    between atoms: C10_20  and  C11_21 
REMARK    8  A    between atoms: C11_21  and  O3_24 
REMARK    9  A    between atoms: C14_28  and  O4_29 
REMARK   10  A    between atoms: N8_34  and  N9_36 
REMARK   11  A    between atoms: N9_36  and  C16_38 
ROOT
HETATM    1  N1  UNL     1     144.286  62.461 132.525  1.00  0.00    -0.041 N 
HETATM    2  C4  UNL     1     143.219  61.924 131.895  1.00  0.00     0.176 A 
HETATM    3  C14 UNL     1     142.475  63.008 131.481  1.00  0.00     0.189 A 
HETATM    4  N7  UNL     1     143.056  64.151 131.839  1.00  0.00    -0.165 N 
ATOM      5  H7  UNL     1     142.711  65.093 131.656  1.00  0.00     0.186 HD
HETATM    6  C15 UNL     1     144.193  63.817 132.495  1.00  0.00     0.726 A 
HETATM    7  N8  UNL     1     145.017  64.671 132.989  1.00  0.00    -0.128 N 
ATOM      8  H8  UNL     1     145.853  64.339 133.469  1.00  0.00     0.205 HD
ENDROOT
BRANCH   2   9
HETATM    9  C5  UNL     1     142.929  60.503 131.702  1.00  0.00     0.153 A 
HETATM   10  N2  UNL     1     142.522  59.744 132.662  1.00  0.00    -0.173 N 
HETATM   11  C6  UNL     1     142.230  58.369 132.523  1.00  0.00     0.704 A 
ATOM     12  H2  UNL     1     142.404  60.165 133.583  1.00  0.00     0.186 HD
HETATM   13  N3  UNL     1     141.796  57.442 133.429  1.00  0.00    -0.185 N 
HETATM   14  N5  UNL     1     142.362  57.755 131.353  1.00  0.00    -0.087 N 
HETATM   15  C7  UNL     1     141.676  56.272 132.768  1.00  0.00     0.215 A 
ATOM     16  H3  UNL     1     141.599  57.604 134.417  1.00  0.00     0.185 HD
HETATM   17  N4  UNL     1     142.028  56.478 131.490  1.00  0.00    -0.276 N 
ATOM     18  H4  UNL     1     142.038  55.774 130.752  1.00  0.00     0.188 HD
HETATM   19  C8  UNL     1     142.807  58.473 130.189  1.00  0.00     0.307 A 
HETATM   20  N6  UNL     1     143.077  59.864 130.442  1.00  0.00    -0.341 N 
ATOM     21  H6  UNL     1     143.398  60.433 129.659  1.00  0.00     0.164 HD
BRANCH  19  22
HETATM   22  C9  UNL     1     144.084  57.911 129.675  1.00  0.00    -0.054 C 
HETATM   23  C10 UNL     1     145.112  57.455 129.241  1.00  0.00    -0.065 C 
BRANCH  23  24
HETATM   24  C11 UNL     1     146.352  56.900 128.687  1.00  0.00     0.114 C 
HETATM   25  C12 UNL     1     146.132  56.347 127.295  1.00  0.00     0.060 C 
HETATM   26  C13 UNL     1     147.384  58.031 128.652  1.00  0.00     0.060 C 
BRANCH  24  27
HETATM   27  O3  UNL     1     146.784  55.908 129.564  1.00  0.00    -0.378 OA
ATOM     28  H3  UNL     1     147.705  55.760 129.387  1.00  0.00     0.211 HD
ENDBRANCH  24  27
ENDBRANCH  23  24
ENDBRANCH  19  22
ENDBRANCH   2   9
BRANCH   1  29
HETATM   29  O2  UNL     1     145.325  61.801 133.118  1.00  0.00    -0.257 OA
BRANCH  29  30
HETATM   30  C3  UNL     1     145.394  61.412 134.455  1.00  0.00     0.229 C 
BRANCH  30  31
HETATM   31  C2  UNL     1     146.809  61.071 134.879  1.00  0.00     0.195 C 
BRANCH  31  32
HETATM   32  O1  UNL     1     147.355  62.031 135.702  1.00  0.00    -0.394 OA
HETATM   33  C1  UNL     1     148.049  61.495 136.776  1.00  0.00     0.201 C 
ENDBRANCH  31  32
ENDBRANCH  30  31
ENDBRANCH  29  30
ENDBRANCH   1  29
BRANCH   3  34
HETATM   34  O4  UNL     1     141.281  62.881 130.785  1.00  0.00    -0.344 OA
ATOM     35  H4  UNL     1     141.078  63.394 130.011  1.00  0.00     0.219 HD
ENDBRANCH   3  34
BRANCH   7  36
HETATM   36  N9  UNL     1     144.789  66.041 132.880  1.00  0.00    -0.264 N 
ATOM     37  H9  UNL     1     145.493  66.625 132.427  1.00  0.00     0.189 HD
BRANCH  36  38
HETATM   38  C16 UNL     1     143.606  66.650 133.380  1.00  0.00     0.200 C 
HETATM   39  N10 UNL     1     142.606  67.188 132.541  1.00  0.00    -0.068 NA
HETATM   40  S1  UNL     1     143.418  66.722 135.004  1.00  0.00    -0.043 SA
ENDBRANCH  36  38
ENDBRANCH   7  36
TORSDOF 11
ENDMDL
MODEL 4
REMARK VINA RESULT: -7.423563575      3.779      7.990
REMARK  11 active torsions:
REMARK  status: ('A' for Active; 'I' for Inactive)
REMARK    1  A    between atoms: O1_2  and  C2_3 
REMARK    2  A    between atoms: C2_3  and  C3_4 
REMARK    3  A    between atoms: C3_4  and  O2_5 
REMARK    4  A    between atoms: O2_5  and  N1_6 
REMARK    5  A    between atoms: C4_7  and  C5_8 
REMARK    6  A    between atoms: C8_18  and  C9_19 
REMARK    7  A    between atoms: C10_20  and  C11_21 
REMARK    8  A    between atoms: C11_21  and  O3_24 
REMARK    9  A    between atoms: C14_28  and  O4_29 
REMARK   10  A    between atoms: N8_34  and  N9_36 
REMARK   11  A    between atoms: N9_36  and  C16_38 
ROOT
HETATM    1  N1  UNL     1     143.861  63.828 132.225  1.00  0.00    -0.041 N 
HETATM    2  C4  UNL     1     143.550  65.141 132.158  1.00  0.00     0.176 A 
HETATM    3  C14 UNL     1     144.542  65.772 132.877  1.00  0.00     0.189 A 
HETATM    4  N7  UNL     1     145.416  64.891 133.360  1.00  0.00    -0.165 N 
ATOM      5  H7  UNL     1     146.240  65.097 133.925  1.00  0.00     0.186 HD
HETATM    6  C15 UNL     1     144.997  63.669 132.955  1.00  0.00     0.726 A 
HETATM    7  N8  UNL     1     145.600  62.570 133.237  1.00  0.00    -0.128 N 
ATOM      8  H8  UNL     1     145.220  61.688 132.894  1.00  0.00     0.205 HD
ENDROOT
BRANCH   2   9
HETATM    9  C5  UNL     1     142.409  65.746 131.471  1.00  0.00     0.153 A 
HETATM   10  N2  UNL     1     141.878  66.855 131.858  1.00  0.00    -0.173 N 
HETATM   11  C6  UNL     1     140.778  67.476 131.227  1.00  0.00     0.704 A 
ATOM     12  H2  UNL     1     142.279  67.315 132.675  1.00  0.00     0.186 HD
HETATM   13  N3  UNL     1     140.109  68.635 131.511  1.00  0.00    -0.185 N 
HETATM   14  N5  UNL     1     140.205  66.934 130.159  1.00  0.00    -0.087 N 
HETATM   15  C7  UNL     1     139.133  68.762 130.589  1.00  0.00     0.215 A 
ATOM     16  H3  UNL     1     140.311  69.281 132.275  1.00  0.00     0.185 HD
HETATM   17  N4  UNL     1     139.202  67.708 129.762  1.00  0.00    -0.276 N 
ATOM     18  H4  UNL     1     138.589  67.531 128.966  1.00  0.00     0.188 HD
HETATM   19  C8  UNL     1     140.689  65.696 129.611  1.00  0.00     0.307 A 
HETATM   20  N6  UNL     1     141.810  65.150 130.330  1.00  0.00    -0.341 N 
ATOM     21  H6  UNL     1     142.203  64.271 129.994  1.00  0.00     0.164 HD
BRANCH  19  22
HETATM   22  C9  UNL     1     139.638  64.645 129.664  1.00  0.00    -0.054 C 
HETATM   23  C10 UNL     1     138.800  63.780 129.703  1.00  0.00    -0.065 C 
BRANCH  23  24
HETATM   24  C11 UNL     1     137.799  62.709 129.747  1.00  0.00     0.114 C 
HETATM   25  C12 UNL     1     137.112  62.543 128.408  1.00  0.00     0.060 C 
HETATM   26  C13 UNL     1     138.527  61.418 130.134  1.00  0.00     0.060 C 
BRANCH  24  27
HETATM   27  O3  UNL     1     136.886  63.041 130.747  1.00  0.00    -0.378 OA
ATOM     28  H3  UNL     1     136.032  62.746 130.454  1.00  0.00     0.211 HD
ENDBRANCH  24  27
ENDBRANCH  23  24
ENDBRANCH  19  22
ENDBRANCH   2   9
BRANCH   1  29
HETATM   29  O2  UNL     1     143.182  62.781 131.668  1.00  0.00    -0.257 OA
BRANCH  29  30
HETATM   30  C3  UNL     1     142.226  61.992 132.305  1.00  0.00     0.229 C 
BRANCH  30  31
HETATM   31  C2  UNL     1     142.715  60.576 132.537  1.00  0.00     0.195 C 
BRANCH  31  32
HETATM   32  O1  UNL     1     143.982  60.371 132.037  1.00  0.00    -0.394 OA
HETATM   33  C1  UNL     1     144.064  59.263 131.206  1.00  0.00     0.201 C 
ENDBRANCH  31  32
ENDBRANCH  30  31
ENDBRANCH  29  30
ENDBRANCH   1  29
BRANCH   3  34
HETATM   34  O4  UNL     1     144.588  67.148 133.052  1.00  0.00    -0.344 OA
ATOM     35  H4  UNL     1     144.828  67.555 133.876  1.00  0.00     0.219 HD
ENDBRANCH   3  34
BRANCH   7  36
HETATM   36  N9  UNL     1     146.764  62.560 134.002  1.00  0.00    -0.264 N 
ATOM     37  H9  UNL     1     147.566  63.107 133.688  1.00  0.00     0.189 HD
BRANCH  36  38
HETATM   38  C16 UNL     1     146.868  61.814 135.208  1.00  0.00     0.200 C 
HETATM   39  N10 UNL     1     147.826  62.096 136.205  1.00  0.00    -0.068 NA
HETATM   40  S1  UNL     1     145.819  60.577 135.427  1.00  0.00    -0.043 SA
ENDBRANCH  36  38
ENDBRANCH   7  36
TORSDOF 11
ENDMDL
MODEL 5
REMARK VINA RESULT: -7.364405694      1.538      3.105
REMARK  11 active torsions:
REMARK  status: ('A' for Active; 'I' for Inactive)
REMARK    1  A    between atoms: O1_2  and  C2_3 
REMARK    2  A    between atoms: C2_3  and  C3_4 
REMARK    3  A    between atoms: C3_4  and  O2_5 
REMARK    4  A    between atoms: O2_5  and  N1_6 
REMARK    5  A    between atoms: C4_7  and  C5_8 
REMARK    6  A    between atoms: C8_18  and  C9_19 
REMARK    7  A    between atoms: C10_20  and  C11_21 
REMARK    8  A    between atoms: C11_21  and  O3_24 
REMARK    9  A    between atoms: C14_28  and  O4_29 
REMARK   10  A    between atoms: N8_34  and  N9_36 
REMARK   11  A    between atoms: N9_36  and  C16_38 
ROOT
HETATM    1  N1  UNL     1     141.902  58.813 131.386  1.00  0.00    -0.041 N 
HETATM    2  C4  UNL     1     141.996  60.097 131.796  1.00  0.00     0.176 A 
HETATM    3  C14 UNL     1     140.806  60.674 131.412  1.00  0.00     0.189 A 
HETATM    4  N7  UNL     1     140.023  59.791 130.797  1.00  0.00    -0.165 N 
ATOM      5  H7  UNL     1     139.093  59.963 130.415  1.00  0.00     0.186 HD
HETATM    6  C15 UNL     1     140.702  58.620 130.777  1.00  0.00     0.726 A 
HETATM    7  N8  UNL     1     140.252  57.534 130.258  1.00  0.00    -0.128 N 
ATOM      8  H8  UNL     1     140.826  56.692 130.283  1.00  0.00     0.205 HD
ENDROOT
BRANCH   2   9
HETATM    9  C5  UNL     1     143.120  60.722 132.493  1.00  0.00     0.153 A 
HETATM   10  N2  UNL     1     143.551  60.295 133.631  1.00  0.00    -0.173 N 
HETATM   11  C6  UNL     1     144.632  60.866 134.340  1.00  0.00     0.704 A 
ATOM     12  H2  UNL     1     143.081  59.492 134.047  1.00  0.00     0.186 HD
HETATM   13  N3  UNL     1     145.201  60.535 135.538  1.00  0.00    -0.185 N 
HETATM   14  N5  UNL     1     145.290  61.914 133.858  1.00  0.00    -0.087 N 
HETATM   15  C7  UNL     1     146.207  61.410 135.751  1.00  0.00     0.215 A 
ATOM     16  H3  UNL     1     144.920  59.772 136.154  1.00  0.00     0.185 HD
HETATM   17  N4  UNL     1     146.251  62.254 134.709  1.00  0.00    -0.276 N 
ATOM     18  H4  UNL     1     146.908  63.025 134.592  1.00  0.00     0.188 HD
HETATM   19  C8  UNL     1     144.922  62.501 132.598  1.00  0.00     0.307 A 
HETATM   20  N6  UNL     1     143.811  61.843 131.962  1.00  0.00    -0.341 N 
ATOM     21  H6  UNL     1     143.497  62.210 131.063  1.00  0.00     0.164 HD
BRANCH  19  22
HETATM   22  C9  UNL     1     144.495  63.914 132.775  1.00  0.00    -0.054 C 
HETATM   23  C10 UNL     1     144.135  65.057 132.904  1.00  0.00    -0.065 C 
BRANCH  23  24
HETATM   24  C11 UNL     1     143.678  66.444 133.042  1.00  0.00     0.114 C 
HETATM   25  C12 UNL     1     142.585  66.764 132.046  1.00  0.00     0.060 C 
HETATM   26  C13 UNL     1     143.159  66.615 134.473  1.00  0.00     0.060 C 
BRANCH  24  27
HETATM   27  O3  UNL     1     144.791  67.262 132.855  1.00  0.00    -0.378 OA
ATOM     28  H3  UNL     1     144.943  67.316 131.918  1.00  0.00     0.211 HD
ENDBRANCH  24  27
ENDBRANCH  23  24
ENDBRANCH  19  22
ENDBRANCH   2   9
BRANCH   1  29
HETATM   29  O2  UNL     1     142.830  57.820 131.531  1.00  0.00    -0.257 OA
BRANCH  29  30
HETATM   30  C3  UNL     1     143.877  57.541 130.654  1.00  0.00     0.229 C 
BRANCH  30  31
HETATM   31  C2  UNL     1     143.712  56.196 129.976  1.00  0.00     0.195 C 
BRANCH  31  32
HETATM   32  O1  UNL     1     142.702  56.202 129.038  1.00  0.00    -0.394 OA
HETATM   33  C1  UNL     1     142.981  57.010 127.946  1.00  0.00     0.201 C 
ENDBRANCH  31  32
ENDBRANCH  30  31
ENDBRANCH  29  30
ENDBRANCH   1  29
BRANCH   3  34
HETATM   34  O4  UNL     1     140.502  62.007 131.652  1.00  0.00    -0.344 OA
ATOM     35  H4  UNL     1     140.995  62.548 132.258  1.00  0.00     0.219 HD
ENDBRANCH   3  34
BRANCH   7  36
HETATM   36  N9  UNL     1     138.993  57.485 129.663  1.00  0.00    -0.264 N 
ATOM     37  H9  UNL     1     138.250  58.081 130.029  1.00  0.00     0.189 HD
BRANCH  36  38
HETATM   38  C16 UNL     1     138.712  56.632 128.562  1.00  0.00     0.200 C 
HETATM   39  N10 UNL     1     138.142  55.350 128.709  1.00  0.00    -0.068 NA
HETATM   40  S1  UNL     1     139.076  57.183 127.063  1.00  0.00    -0.043 SA
ENDBRANCH  36  38
ENDBRANCH   7  36
TORSDOF 11
ENDMDL
