MODEL 1
REMARK VINA RESULT: -7.157273607      0.000      0.000
REMARK  8 active torsions:
REMARK  status: ('A' for Active; 'I' for Inactive)
REMARK    1  A    between atoms: O1_2  and  C2_3 
REMARK    2  A    between atoms: C2_3  and  C3_4 
REMARK    3  A    between atoms: C4_6  and  O3_7 
REMARK    4  A    between atoms: O3_7  and  C5_8 
REMARK    5  A    between atoms: C7_10  and  C8_11 
REMARK       I    between atoms: C8_11  and  N1_13 
REMARK    6  A    between atoms: C9_15  and  N2_16 
REMARK    7  A    between atoms: C15_25  and  O5_26 
REMARK    8  A    between atoms: C16_28  and  O6_29 
ROOT
HETATM    1  C5  UNL     1      -3.785  -2.375  15.897  1.00  0.00     0.155 C 
HETATM    2  C6  UNL     1      -2.734  -1.397  16.317  1.00  0.00     0.049 C 
HETATM    3  C7  UNL     1      -3.317  -0.048  16.645  1.00  0.00     0.106 C 
HETATM    4  C12 UNL     1      -4.194   0.527  15.584  1.00  0.00     0.246 C 
HETATM    5  N3  UNL     1      -4.988  -0.469  14.940  1.00  0.00    -0.068 N 
ATOM      6  H31 UNL     1      -4.629  -0.716  14.018  1.00  0.00     0.277 HD
ATOM      7  H32 UNL     1      -5.897  -0.111  14.648  1.00  0.00     0.277 HD
HETATM    8  C13 UNL     1      -5.102  -1.620  15.815  1.00  0.00     0.210 C 
HETATM    9  C14 UNL     1      -6.197  -2.494  15.238  1.00  0.00     0.042 C 
ENDROOT
BRANCH   1  10
HETATM   10  O3  UNL     1      -3.974  -3.424  16.791  1.00  0.00    -0.351 OA
BRANCH  10  11
HETATM   11  C4  UNL     1      -2.983  -4.362  16.759  1.00  0.00     0.292 C 
HETATM   12  O2  UNL     1      -3.370  -5.586  16.231  1.00  0.00    -0.348 OA
HETATM   13  C3  UNL     1      -2.414  -6.514  16.597  1.00  0.00     0.179 C 
HETATM   14  C16 UNL     1      -1.663  -5.997  17.776  1.00  0.00     0.182 C 
HETATM   15  C15 UNL     1      -2.411  -4.723  18.113  1.00  0.00     0.204 C 
BRANCH  13  16
HETATM   16  C2  UNL     1      -1.482  -6.853  15.451  1.00  0.00     0.201 C 
BRANCH  16  17
HETATM   17  O1  UNL     1      -1.514  -8.211  15.187  1.00  0.00    -0.393 OA
HETATM   18  C1  UNL     1      -0.431  -8.780  15.886  1.00  0.00     0.201 C 
ENDBRANCH  16  17
ENDBRANCH  13  16
BRANCH  14  19
HETATM   19  O6  UNL     1      -1.705  -6.873  18.872  1.00  0.00    -0.390 OA
ATOM     20  H6  UNL     1      -1.011  -7.521  18.851  1.00  0.00     0.210 HD
ENDBRANCH  14  19
BRANCH  15  21
HETATM   21  O5  UNL     1      -1.587  -3.744  18.623  1.00  0.00    -0.388 OA
ATOM     22  H5  UNL     1      -1.303  -3.122  17.964  1.00  0.00     0.210 HD
ENDBRANCH  15  21
ENDBRANCH  10  11
ENDBRANCH   1  10
BRANCH   3  23
HETATM   23  C8  UNL     1      -2.229   0.935  16.899  1.00  0.00     0.228 C 
HETATM   24  O4  UNL     1      -1.561   1.417  15.943  1.00  0.00    -0.273 OA
HETATM   25  N1  UNL     1      -1.905   1.364  18.197  1.00  0.00    -0.323 N 
HETATM   26  C9  UNL     1      -0.723   1.456  18.678  1.00  0.00     0.180 C 
ATOM     27  H1  UNL     1      -2.679   1.624  18.809  1.00  0.00     0.169 HD
BRANCH  26  28
HETATM   28  N2  UNL     1       0.468   1.150  18.013  1.00  0.00    -0.386 N 
HETATM   29  C10 UNL     1       1.168   2.166  17.271  1.00  0.00     0.149 C 
HETATM   30  C11 UNL     1       1.006  -0.184  18.064  1.00  0.00     0.149 C 
ENDBRANCH  26  28
ENDBRANCH   3  23
TORSDOF 8
ENDMDL
MODEL 2
REMARK VINA RESULT: -7.044806843      1.081      1.383
REMARK  8 active torsions:
REMARK  status: ('A' for Active; 'I' for Inactive)
REMARK    1  A    between atoms: O1_2  and  C2_3 
REMARK    2  A    between atoms: C2_3  and  C3_4 
REMARK    3  A    between atoms: C4_6  and  O3_7 
REMARK    4  A    between atoms: O3_7  and  C5_8 
REMARK    5  A    between atoms: C7_10  and  C8_11 
REMARK       I    between atoms: C8_11  and  N1_13 
REMARK    6  A    between atoms: C9_15  and  N2_16 
REMARK    7  A    between atoms: C15_25  and  O5_26 
REMARK    8  A    between atoms: C16_28  and  O6_29 
ROOT
HETATM    1  C5  UNL     1      -3.732  -2.276  15.802  1.00  0.00     0.155 C 
HETATM    2  C6  UNL     1      -2.680  -1.297  16.217  1.00  0.00     0.049 C 
HETATM    3  C7  UNL     1      -3.274   0.010  16.672  1.00  0.00     0.106 C 
HETATM    4  C12 UNL     1      -4.233   0.627  15.711  1.00  0.00     0.246 C 
HETATM    5  N3  UNL     1      -5.043  -0.348  15.054  1.00  0.00    -0.068 N 
ATOM      6  H31 UNL     1      -4.740  -0.523  14.096  1.00  0.00     0.277 HD
ATOM      7  H32 UNL     1      -5.978   0.002  14.846  1.00  0.00     0.277 HD
HETATM    8  C13 UNL     1      -5.070  -1.556  15.855  1.00  0.00     0.210 C 
HETATM    9  C14 UNL     1      -6.179  -2.422  15.293  1.00  0.00     0.042 C 
ENDROOT
BRANCH   1  10
HETATM   10  O3  UNL     1      -3.835  -3.386  16.634  1.00  0.00    -0.351 OA
BRANCH  10  11
HETATM   11  C4  UNL     1      -2.851  -4.313  16.443  1.00  0.00     0.292 C 
HETATM   12  O2  UNL     1      -2.460  -4.468  15.121  1.00  0.00    -0.348 OA
HETATM   13  C3  UNL     1      -1.759  -5.656  15.036  1.00  0.00     0.179 C 
HETATM   14  C16 UNL     1      -2.117  -6.516  16.199  1.00  0.00     0.182 C 
HETATM   15  C15 UNL     1      -3.213  -5.717  16.875  1.00  0.00     0.204 C 
BRANCH  13  16
HETATM   16  C2  UNL     1      -0.263  -5.430  14.953  1.00  0.00     0.201 C 
BRANCH  16  17
HETATM   17  O1  UNL     1       0.359  -6.513  14.358  1.00  0.00    -0.393 OA
HETATM   18  C1  UNL     1       1.110  -7.147  15.367  1.00  0.00     0.201 C 
ENDBRANCH  16  17
ENDBRANCH  13  16
BRANCH  14  19
HETATM   19  O6  UNL     1      -2.615  -7.769  15.815  1.00  0.00    -0.390 OA
ATOM     20  H6  UNL     1      -3.045  -8.228  16.527  1.00  0.00     0.210 HD
ENDBRANCH  14  19
BRANCH  15  21
HETATM   21  O5  UNL     1      -3.214  -5.871  18.244  1.00  0.00    -0.388 OA
ATOM     22  H5  UNL     1      -2.409  -6.254  18.572  1.00  0.00     0.210 HD
ENDBRANCH  15  21
ENDBRANCH  10  11
ENDBRANCH   1  10
BRANCH   3  23
HETATM   23  C8  UNL     1      -2.197   1.006  16.921  1.00  0.00     0.228 C 
HETATM   24  O4  UNL     1      -1.539   1.497  15.961  1.00  0.00    -0.273 OA
HETATM   25  N1  UNL     1      -1.870   1.438  18.218  1.00  0.00    -0.323 N 
HETATM   26  C9  UNL     1      -0.686   1.543  18.692  1.00  0.00     0.180 C 
ATOM     27  H1  UNL     1      -2.644   1.688  18.835  1.00  0.00     0.169 HD
BRANCH  26  28
HETATM   28  N2  UNL     1       0.504   1.252  18.020  1.00  0.00    -0.386 N 
HETATM   29  C10 UNL     1       1.206   2.285  17.303  1.00  0.00     0.149 C 
HETATM   30  C11 UNL     1       1.041  -0.084  18.037  1.00  0.00     0.149 C 
ENDBRANCH  26  28
ENDBRANCH   3  23
TORSDOF 8
ENDMDL
MODEL 3
REMARK VINA RESULT: -7.013228736      1.046      1.797
REMARK  8 active torsions:
REMARK  status: ('A' for Active; 'I' for Inactive)
REMARK    1  A    between atoms: O1_2  and  C2_3 
REMARK    2  A    between atoms: C2_3  and  C3_4 
REMARK    3  A    between atoms: C4_6  and  O3_7 
REMARK    4  A    between atoms: O3_7  and  C5_8 
REMARK    5  A    between atoms: C7_10  and  C8_11 
REMARK       I    between atoms: C8_11  and  N1_13 
REMARK    6  A    between atoms: C9_15  and  N2_16 
REMARK    7  A    between atoms: C15_25  and  O5_26 
REMARK    8  A    between atoms: C16_28  and  O6_29 
ROOT
HETATM    1  C5  UNL     1      -3.702  -2.545  15.798  1.00  0.00     0.155 C 
HETATM    2  C6  UNL     1      -2.695  -1.530  16.239  1.00  0.00     0.049 C 
HETATM    3  C7  UNL     1      -3.338  -0.218  16.601  1.00  0.00     0.106 C 
HETATM    4  C12 UNL     1      -4.243   0.342  15.557  1.00  0.00     0.246 C 
HETATM    5  N3  UNL     1      -4.994  -0.673  14.891  1.00  0.00    -0.068 N 
ATOM      6  H31 UNL     1      -4.626  -0.881  13.962  1.00  0.00     0.277 HD
ATOM      7  H32 UNL     1      -5.919  -0.350  14.609  1.00  0.00     0.277 HD
HETATM    8  C13 UNL     1      -5.053  -1.849  15.737  1.00  0.00     0.210 C 
HETATM    9  C14 UNL     1      -6.109  -2.757  15.141  1.00  0.00     0.042 C 
ENDROOT
BRANCH   1  10
HETATM   10  O3  UNL     1      -3.841  -3.622  16.667  1.00  0.00    -0.351 OA
BRANCH  10  11
HETATM   11  C4  UNL     1      -3.203  -4.755  16.248  1.00  0.00     0.292 C 
HETATM   12  O2  UNL     1      -2.104  -5.109  17.017  1.00  0.00    -0.348 OA
HETATM   13  C3  UNL     1      -1.364  -6.017  16.284  1.00  0.00     0.179 C 
HETATM   14  C16 UNL     1      -1.717  -5.879  14.842  1.00  0.00     0.182 C 
HETATM   15  C15 UNL     1      -2.647  -4.683  14.842  1.00  0.00     0.204 C 
BRANCH  13  16
HETATM   16  C2  UNL     1      -1.562  -7.439  16.770  1.00  0.00     0.201 C 
BRANCH  16  17
HETATM   17  O1  UNL     1      -1.414  -8.334  15.725  1.00  0.00    -0.393 OA
HETATM   18  C1  UNL     1      -0.246  -9.075  15.995  1.00  0.00     0.201 C 
ENDBRANCH  16  17
ENDBRANCH  13  16
BRANCH  14  19
HETATM   19  O6  UNL     1      -0.602  -5.610  14.034  1.00  0.00    -0.390 OA
ATOM     20  H6  UNL     1      -0.841  -5.368  13.147  1.00  0.00     0.210 HD
ENDBRANCH  14  19
BRANCH  15  21
HETATM   21  O5  UNL     1      -3.624  -4.772  13.876  1.00  0.00    -0.388 OA
ATOM     22  H5  UNL     1      -3.744  -5.658  13.554  1.00  0.00     0.210 HD
ENDBRANCH  15  21
ENDBRANCH  10  11
ENDBRANCH   1  10
BRANCH   3  23
HETATM   23  C8  UNL     1      -2.296   0.808  16.877  1.00  0.00     0.228 C 
HETATM   24  O4  UNL     1      -1.646   1.336  15.932  1.00  0.00    -0.273 OA
HETATM   25  N1  UNL     1      -1.994   1.226  18.185  1.00  0.00    -0.323 N 
HETATM   26  C9  UNL     1      -0.818   1.361  18.671  1.00  0.00     0.180 C 
ATOM     27  H1  UNL     1      -2.780   1.441  18.798  1.00  0.00     0.169 HD
BRANCH  26  28
HETATM   28  N2  UNL     1       0.387   1.120  18.005  1.00  0.00    -0.386 N 
HETATM   29  C10 UNL     1       1.053   2.183  17.298  1.00  0.00     0.149 C 
HETATM   30  C11 UNL     1       0.974  -0.194  18.018  1.00  0.00     0.149 C 
ENDBRANCH  26  28
ENDBRANCH   3  23
TORSDOF 8
ENDMDL
MODEL 4
REMARK VINA RESULT: -7.003252688      4.219      7.541
REMARK  8 active torsions:
REMARK  status: ('A' for Active; 'I' for Inactive)
REMARK    1  A    between atoms: O1_2  and  C2_3 
REMARK    2  A    between atoms: C2_3  and  C3_4 
REMARK    3  A    between atoms: C4_6  and  O3_7 
REMARK    4  A    between atoms: O3_7  and  C5_8 
REMARK    5  A    between atoms: C7_10  and  C8_11 
REMARK       I    between atoms: C8_11  and  N1_13 
REMARK    6  A    between atoms: C9_15  and  N2_16 
REMARK    7  A    between atoms: C15_25  and  O5_26 
REMARK    8  A    between atoms: C16_28  and  O6_29 
ROOT
HETATM    1  C5  UNL     1      -5.559  -4.120  14.591  1.00  0.00     0.155 C 
HETATM    2  C6  UNL     1      -6.452  -5.241  14.161  1.00  0.00     0.049 C 
HETATM    3  C7  UNL     1      -7.831  -4.756  13.800  1.00  0.00     0.106 C 
HETATM    4  C12 UNL     1      -8.488  -3.914  14.841  1.00  0.00     0.246 C 
HETATM    5  N3  UNL     1      -7.565  -3.047  15.498  1.00  0.00    -0.068 N 
ATOM      6  H31 UNL     1      -7.312  -3.381  16.428  1.00  0.00     0.277 HD
ATOM      7  H32 UNL     1      -7.992  -2.163  15.774  1.00  0.00     0.277 HD
HETATM    8  C13 UNL     1      -6.407  -2.858  14.645  1.00  0.00     0.210 C 
HETATM    9  C14 UNL     1      -5.624  -1.700  15.230  1.00  0.00     0.042 C 
ENDROOT
BRANCH   1  10
HETATM   10  O3  UNL     1      -4.508  -3.863  13.716  1.00  0.00    -0.351 OA
BRANCH  10  11
HETATM   11  C4  UNL     1      -3.299  -4.317  14.159  1.00  0.00     0.292 C 
HETATM   12  O2  UNL     1      -3.348  -5.547  14.798  1.00  0.00    -0.348 OA
HETATM   13  C3  UNL     1      -2.165  -5.696  15.497  1.00  0.00     0.179 C 
HETATM   14  C16 UNL     1      -1.557  -4.352  15.713  1.00  0.00     0.182 C 
HETATM   15  C15 UNL     1      -2.617  -3.418  15.167  1.00  0.00     0.204 C 
BRANCH  13  16
HETATM   16  C2  UNL     1      -1.203  -6.634  14.797  1.00  0.00     0.201 C 
BRANCH  16  17
HETATM   17  O1  UNL     1      -1.579  -7.951  14.997  1.00  0.00    -0.393 OA
HETATM   18  C1  UNL     1      -0.804  -8.429  16.073  1.00  0.00     0.201 C 
ENDBRANCH  16  17
ENDBRANCH  13  16
BRANCH  14  19
HETATM   19  O6  UNL     1      -1.331  -4.070  17.068  1.00  0.00    -0.390 OA
ATOM     20  H6  UNL     1      -0.663  -4.624  17.453  1.00  0.00     0.210 HD
ENDBRANCH  14  19
BRANCH  15  21
HETATM   21  O5  UNL     1      -2.082  -2.284  14.597  1.00  0.00    -0.388 OA
ATOM     22  H5  UNL     1      -2.568  -1.990  13.836  1.00  0.00     0.210 HD
ENDBRANCH  15  21
ENDBRANCH  10  11
ENDBRANCH   1  10
BRANCH   3  23
HETATM   23  C8  UNL     1      -8.730  -5.913  13.536  1.00  0.00     0.228 C 
HETATM   24  O4  UNL     1      -9.834  -6.021  14.139  1.00  0.00    -0.273 OA
HETATM   25  N1  UNL     1      -8.392  -6.920  12.617  1.00  0.00    -0.323 N 
HETATM   26  C9  UNL     1      -8.499  -8.180  12.818  1.00  0.00     0.180 C 
ATOM     27  H1  UNL     1      -8.030  -6.622  11.710  1.00  0.00     0.169 HD
BRANCH  26  28
HETATM   28  N2  UNL     1      -8.967  -8.795  13.983  1.00  0.00    -0.386 N 
HETATM   29  C10 UNL     1     -10.307  -9.318  14.041  1.00  0.00     0.149 C 
HETATM   30  C11 UNL     1      -8.114  -8.913  15.136  1.00  0.00     0.149 C 
ENDBRANCH  26  28
ENDBRANCH   3  23
TORSDOF 8
ENDMDL
MODEL 5
REMARK VINA RESULT: -6.986667097      1.098      1.431
REMARK  8 active torsions:
REMARK  status: ('A' for Active; 'I' for Inactive)
REMARK    1  A    between atoms: O1_2  and  C2_3 
REMARK    2  A    between atoms: C2_3  and  C3_4 
REMARK    3  A    between atoms: C4_6  and  O3_7 
REMARK    4  A    between atoms: O3_7  and  C5_8 
REMARK    5  A    between atoms: C7_10  and  C8_11 
REMARK       I    between atoms: C8_11  and  N1_13 
REMARK    6  A    between atoms: C9_15  and  N2_16 
REMARK    7  A    between atoms: C15_25  and  O5_26 
REMARK    8  A    between atoms: C16_28  and  O6_29 
ROOT
HETATM    1  C5  UNL     1      -3.799  -2.385  16.434  1.00  0.00     0.155 C 
HETATM    2  C6  UNL     1      -2.732  -1.393  16.776  1.00  0.00     0.049 C 
HETATM    3  C7  UNL     1      -3.265   0.014  16.831  1.00  0.00     0.106 C 
HETATM    4  C12 UNL     1      -4.026   0.439  15.621  1.00  0.00     0.246 C 
HETATM    5  N3  UNL     1      -4.822  -0.617  15.083  1.00  0.00    -0.068 N 
ATOM      6  H31 UNL     1      -4.407  -1.028  14.247  1.00  0.00     0.277 HD
ATOM      7  H32 UNL     1      -5.685  -0.276  14.661  1.00  0.00     0.277 HD
HETATM    8  C13 UNL     1      -5.064  -1.601  16.121  1.00  0.00     0.210 C 
HETATM    9  C14 UNL     1      -6.157  -2.513  15.604  1.00  0.00     0.042 C 
ENDROOT
BRANCH   1  10
HETATM   10  O3  UNL     1      -4.112  -3.261  17.468  1.00  0.00    -0.351 OA
BRANCH  10  11
HETATM   11  C4  UNL     1      -3.670  -4.537  17.263  1.00  0.00     0.292 C 
HETATM   12  O2  UNL     1      -3.289  -4.808  15.957  1.00  0.00    -0.348 OA
HETATM   13  C3  UNL     1      -3.228  -6.181  15.822  1.00  0.00     0.179 C 
HETATM   14  C16 UNL     1      -4.045  -6.812  16.897  1.00  0.00     0.182 C 
HETATM   15  C15 UNL     1      -4.686  -5.615  17.570  1.00  0.00     0.204 C 
BRANCH  13  16
HETATM   16  C2  UNL     1      -1.801  -6.692  15.837  1.00  0.00     0.201 C 
BRANCH  16  17
HETATM   17  O1  UNL     1      -1.747  -7.995  15.375  1.00  0.00    -0.393 OA
HETATM   18  C1  UNL     1      -0.613  -8.583  15.969  1.00  0.00     0.201 C 
ENDBRANCH  16  17
ENDBRANCH  13  16
BRANCH  14  19
HETATM   19  O6  UNL     1      -5.042  -7.661  16.394  1.00  0.00    -0.390 OA
ATOM     20  H6  UNL     1      -4.687  -8.417  15.942  1.00  0.00     0.210 HD
ENDBRANCH  14  19
BRANCH  15  21
HETATM   21  O5  UNL     1      -4.873  -5.804  18.921  1.00  0.00    -0.388 OA
ATOM     22  H5  UNL     1      -4.360  -5.206  19.451  1.00  0.00     0.210 HD
ENDBRANCH  15  21
ENDBRANCH  10  11
ENDBRANCH   1  10
BRANCH   3  23
HETATM   23  C8  UNL     1      -2.148   0.981  17.012  1.00  0.00     0.228 C 
HETATM   24  O4  UNL     1      -1.506   1.416  16.016  1.00  0.00    -0.273 OA
HETATM   25  N1  UNL     1      -1.767   1.445  18.283  1.00  0.00    -0.323 N 
HETATM   26  C9  UNL     1      -0.566   1.526  18.717  1.00  0.00     0.180 C 
ATOM     27  H1  UNL     1      -2.513   1.741  18.913  1.00  0.00     0.169 HD
BRANCH  26  28
HETATM   28  N2  UNL     1       0.592   1.173  18.019  1.00  0.00    -0.386 N 
HETATM   29  C10 UNL     1       1.321   2.163  17.270  1.00  0.00     0.149 C 
HETATM   30  C11 UNL     1       1.069  -0.186  18.043  1.00  0.00     0.149 C 
ENDBRANCH  26  28
ENDBRANCH   3  23
TORSDOF 8
ENDMDL
