MODEL 1
REMARK VINA RESULT: -7.149174023      0.000      0.000
REMARK  8 active torsions:
REMARK  status: ('A' for Active; 'I' for Inactive)
REMARK    1  A    between atoms: O1_2  and  C2_3 
REMARK    2  A    between atoms: C3_4  and  C4_5 
REMARK    3  A    between atoms: C4_5  and  O2_6 
REMARK    4  A    between atoms: C5_9  and  O4_10 
REMARK    5  A    between atoms: O4_10  and  C6_11 
REMARK    6  A    between atoms: C6_11  and  C7_12 
REMARK    7  A    between atoms: N2_18  and  C11_19 
REMARK    8  A    between atoms: C15_24  and  O5_25 
ROOT
HETATM    1  C11 UNL     1      -2.473  -6.429  17.302  1.00  0.00     0.187 C 
HETATM    2  C12 UNL     1      -2.308  -7.121  18.658  1.00  0.00     0.048 C 
HETATM    3  C13 UNL     1      -3.768  -6.905  16.762  1.00  0.00     0.084 C 
HETATM    4  N3  UNL     1      -4.785  -7.269  16.347  1.00  0.00    -0.195 NA
ENDROOT
BRANCH   1   5
HETATM    5  N2  UNL     1      -1.399  -6.776  16.411  1.00  0.00    -0.369 N 
HETATM    6  C10 UNL     1      -0.599  -7.724  16.746  1.00  0.00     0.062 C 
HETATM    7  C9  UNL     1       0.449  -7.924  15.673  1.00  0.00     0.068 C 
HETATM    8  C8  UNL     1       0.481  -6.497  15.168  1.00  0.00     0.117 C 
HETATM    9  N1  UNL     1       1.018  -5.715  16.262  1.00  0.00    -0.171 NA
HETATM   10  C14 UNL     1      -1.046  -6.244  15.148  1.00  0.00     0.122 C 
HETATM   11  S1  UNL     1      -0.009  -4.241  16.302  1.00  0.00    -0.056 SA
HETATM   12  C7  UNL     1      -1.073  -4.801  14.915  1.00  0.00     0.113 C 
BRANCH  12  13
HETATM   13  C6  UNL     1      -2.318  -4.057  14.776  1.00  0.00     0.189 C 
BRANCH  13  14
HETATM   14  O4  UNL     1      -1.956  -2.676  14.788  1.00  0.00    -0.357 OA
BRANCH  14  15
HETATM   15  C5  UNL     1      -2.746  -1.948  15.628  1.00  0.00     0.291 C 
HETATM   16  O3  UNL     1      -2.090  -1.015  16.390  1.00  0.00    -0.348 OA
HETATM   17  C3  UNL     1      -3.050  -0.088  16.791  1.00  0.00     0.179 C 
HETATM   18  C2  UNL     1      -4.134  -0.057  15.755  1.00  0.00     0.185 C 
HETATM   19  C15 UNL     1      -3.612  -1.047  14.736  1.00  0.00     0.204 C 
BRANCH  17  20
HETATM   20  C4  UNL     1      -2.454   1.303  16.902  1.00  0.00     0.198 C 
BRANCH  20  21
HETATM   21  O2  UNL     1      -1.638   1.510  15.801  1.00  0.00    -0.398 OA
ATOM     22  H2  UNL     1      -1.901   2.324  15.388  1.00  0.00     0.209 HD
ENDBRANCH  20  21
ENDBRANCH  17  20
BRANCH  18  23
HETATM   23  O1  UNL     1      -5.380  -0.388  16.225  1.00  0.00    -0.385 OA
HETATM   24  C1  UNL     1      -6.026  -1.335  15.435  1.00  0.00     0.202 C 
ENDBRANCH  18  23
BRANCH  19  25
HETATM   25  O5  UNL     1      -2.729  -0.419  13.857  1.00  0.00    -0.388 OA
ATOM     26  H5  UNL     1      -2.627  -0.936  13.067  1.00  0.00     0.210 HD
ENDBRANCH  19  25
ENDBRANCH  14  15
ENDBRANCH  13  14
ENDBRANCH  12  13
ENDBRANCH   1   5
TORSDOF 8
ENDMDL
MODEL 2
REMARK VINA RESULT: -7.042862979      3.757      6.871
REMARK  8 active torsions:
REMARK  status: ('A' for Active; 'I' for Inactive)
REMARK    1  A    between atoms: O1_2  and  C2_3 
REMARK    2  A    between atoms: C3_4  and  C4_5 
REMARK    3  A    between atoms: C4_5  and  O2_6 
REMARK    4  A    between atoms: C5_9  and  O4_10 
REMARK    5  A    between atoms: O4_10  and  C6_11 
REMARK    6  A    between atoms: C6_11  and  C7_12 
REMARK    7  A    between atoms: N2_18  and  C11_19 
REMARK    8  A    between atoms: C15_24  and  O5_25 
ROOT
HETATM    1  C11 UNL     1      -4.382  -2.924  15.908  1.00  0.00     0.187 C 
HETATM    2  C12 UNL     1      -4.939  -1.728  16.686  1.00  0.00     0.048 C 
HETATM    3  C13 UNL     1      -3.251  -2.394  15.111  1.00  0.00     0.084 C 
HETATM    4  N3  UNL     1      -2.361  -1.980  14.498  1.00  0.00    -0.195 NA
ENDROOT
BRANCH   1   5
HETATM    5  N2  UNL     1      -5.382  -3.490  15.045  1.00  0.00    -0.369 N 
HETATM    6  C10 UNL     1      -6.156  -2.699  14.392  1.00  0.00     0.062 C 
HETATM    7  C9  UNL     1      -7.127  -3.498  13.551  1.00  0.00     0.068 C 
HETATM    8  C8  UNL     1      -7.195  -4.719  14.444  1.00  0.00     0.117 C 
HETATM    9  N1  UNL     1      -7.833  -4.266  15.663  1.00  0.00    -0.171 NA
HETATM   10  C14 UNL     1      -5.684  -4.842  14.753  1.00  0.00     0.122 C 
HETATM   11  S1  UNL     1      -6.881  -5.037  16.978  1.00  0.00    -0.056 SA
HETATM   12  C7  UNL     1      -5.711  -5.844  15.817  1.00  0.00     0.113 C 
BRANCH  12  13
HETATM   13  C6  UNL     1      -4.496  -6.349  16.443  1.00  0.00     0.189 C 
BRANCH  13  14
HETATM   14  O4  UNL     1      -3.478  -6.276  15.445  1.00  0.00    -0.357 OA
BRANCH  14  15
HETATM   15  C5  UNL     1      -2.227  -6.312  15.987  1.00  0.00     0.291 C 
HETATM   16  O3  UNL     1      -1.731  -7.566  16.239  1.00  0.00    -0.348 OA
HETATM   17  C3  UNL     1      -0.346  -7.435  16.316  1.00  0.00     0.179 C 
HETATM   18  C2  UNL     1       0.063  -6.271  15.464  1.00  0.00     0.185 C 
HETATM   19  C15 UNL     1      -1.266  -5.828  14.891  1.00  0.00     0.204 C 
BRANCH  17  20
HETATM   20  C4  UNL     1       0.351  -8.678  15.795  1.00  0.00     0.198 C 
BRANCH  20  21
HETATM   21  O2  UNL     1       1.692  -8.377  15.622  1.00  0.00    -0.398 OA
ATOM     22  H2  UNL     1       2.099  -9.101  15.159  1.00  0.00     0.209 HD
ENDBRANCH  20  21
ENDBRANCH  17  20
BRANCH  18  23
HETATM   23  O1  UNL     1       0.708  -5.267  16.143  1.00  0.00    -0.385 OA
HETATM   24  C1  UNL     1       0.462  -4.004  15.611  1.00  0.00     0.202 C 
ENDBRANCH  18  23
BRANCH  19  25
HETATM   25  O5  UNL     1      -1.578  -6.574  13.754  1.00  0.00    -0.388 OA
ATOM     26  H5  UNL     1      -2.472  -6.405  13.483  1.00  0.00     0.210 HD
ENDBRANCH  19  25
ENDBRANCH  14  15
ENDBRANCH  13  14
ENDBRANCH  12  13
ENDBRANCH   1   5
TORSDOF 8
ENDMDL
MODEL 3
REMARK VINA RESULT: -6.989844905      3.418      5.518
REMARK  8 active torsions:
REMARK  status: ('A' for Active; 'I' for Inactive)
REMARK    1  A    between atoms: O1_2  and  C2_3 
REMARK    2  A    between atoms: C3_4  and  C4_5 
REMARK    3  A    between atoms: C4_5  and  O2_6 
REMARK    4  A    between atoms: C5_9  and  O4_10 
REMARK    5  A    between atoms: O4_10  and  C6_11 
REMARK    6  A    between atoms: C6_11  and  C7_12 
REMARK    7  A    between atoms: N2_18  and  C11_19 
REMARK    8  A    between atoms: C15_24  and  O5_25 
ROOT
HETATM    1  C11 UNL     1      -3.858  -0.954  15.656  1.00  0.00     0.187 C 
HETATM    2  C12 UNL     1      -5.368  -0.814  15.444  1.00  0.00     0.048 C 
HETATM    3  C13 UNL     1      -3.228  -0.030  14.685  1.00  0.00     0.084 C 
HETATM    4  N3  UNL     1      -2.739   0.702  13.934  1.00  0.00    -0.195 NA
ENDROOT
BRANCH   1   5
HETATM    5  N2  UNL     1      -3.426  -2.304  15.416  1.00  0.00    -0.369 N 
HETATM    6  C10 UNL     1      -3.920  -2.944  14.417  1.00  0.00     0.062 C 
HETATM    7  C9  UNL     1      -3.333  -4.336  14.349  1.00  0.00     0.068 C 
HETATM    8  C8  UNL     1      -3.077  -4.510  15.831  1.00  0.00     0.117 C 
HETATM    9  N1  UNL     1      -4.388  -4.543  16.444  1.00  0.00    -0.171 NA
HETATM   10  C14 UNL     1      -2.490  -3.106  16.112  1.00  0.00     0.122 C 
HETATM   11  S1  UNL     1      -4.217  -3.527  17.917  1.00  0.00    -0.056 SA
HETATM   12  C7  UNL     1      -2.461  -3.117  17.573  1.00  0.00     0.113 C 
BRANCH  12  13
HETATM   13  C6  UNL     1      -1.942  -2.000  18.352  1.00  0.00     0.189 C 
BRANCH  13  14
HETATM   14  O4  UNL     1      -0.927  -1.397  17.548  1.00  0.00    -0.357 OA
BRANCH  14  15
HETATM   15  C5  UNL     1      -0.147  -0.541  18.267  1.00  0.00     0.291 C 
HETATM   16  O3  UNL     1       1.081  -0.265  17.723  1.00  0.00    -0.348 OA
HETATM   17  C3  UNL     1       1.507   0.931  18.295  1.00  0.00     0.179 C 
HETATM   18  C2  UNL     1       0.295   1.732  18.667  1.00  0.00     0.185 C 
HETATM   19  C15 UNL     1      -0.824   0.836  18.183  1.00  0.00     0.204 C 
BRANCH  17  20
HETATM   20  C4  UNL     1       2.334   1.742  17.315  1.00  0.00     0.198 C 
BRANCH  20  21
HETATM   21  O2  UNL     1       1.466   2.488  16.534  1.00  0.00    -0.398 OA
ATOM     22  H2  UNL     1       1.984   3.084  16.005  1.00  0.00     0.209 HD
ENDBRANCH  20  21
ENDBRANCH  17  20
BRANCH  18  23
HETATM   23  O1  UNL     1       0.197   2.028  20.004  1.00  0.00    -0.385 OA
HETATM   24  C1  UNL     1       0.770   3.254  20.332  1.00  0.00     0.202 C 
ENDBRANCH  18  23
BRANCH  19  25
HETATM   25  O5  UNL     1      -1.072   1.056  16.829  1.00  0.00    -0.388 OA
ATOM     26  H5  UNL     1      -1.963   0.809  16.611  1.00  0.00     0.210 HD
ENDBRANCH  19  25
ENDBRANCH  14  15
ENDBRANCH  13  14
ENDBRANCH  12  13
ENDBRANCH   1   5
TORSDOF 8
ENDMDL
MODEL 4
REMARK VINA RESULT: -6.950973043      3.704      5.085
REMARK  8 active torsions:
REMARK  status: ('A' for Active; 'I' for Inactive)
REMARK    1  A    between atoms: O1_2  and  C2_3 
REMARK    2  A    between atoms: C3_4  and  C4_5 
REMARK    3  A    between atoms: C4_5  and  O2_6 
REMARK    4  A    between atoms: C5_9  and  O4_10 
REMARK    5  A    between atoms: O4_10  and  C6_11 
REMARK    6  A    between atoms: C6_11  and  C7_12 
REMARK    7  A    between atoms: N2_18  and  C11_19 
REMARK    8  A    between atoms: C15_24  and  O5_25 
ROOT
HETATM    1  C11 UNL     1      -7.851  -4.952  14.753  1.00  0.00     0.187 C 
HETATM    2  C12 UNL     1      -7.975  -6.425  15.152  1.00  0.00     0.048 C 
HETATM    3  C13 UNL     1      -9.220  -4.516  14.393  1.00  0.00     0.084 C 
HETATM    4  N3  UNL     1     -10.293  -4.175  14.123  1.00  0.00    -0.195 NA
ENDROOT
BRANCH   1   5
HETATM    5  N2  UNL     1      -6.963  -4.792  13.634  1.00  0.00    -0.369 N 
HETATM    6  C10 UNL     1      -6.825  -5.769  12.809  1.00  0.00     0.062 C 
HETATM    7  C9  UNL     1      -5.852  -5.392  11.715  1.00  0.00     0.068 C 
HETATM    8  C8  UNL     1      -5.015  -4.425  12.526  1.00  0.00     0.117 C 
HETATM    9  N1  UNL     1      -4.358  -5.236  13.530  1.00  0.00    -0.171 NA
HETATM   10  C14 UNL     1      -6.173  -3.687  13.239  1.00  0.00     0.122 C 
HETATM   11  S1  UNL     1      -4.488  -4.269  15.039  1.00  0.00    -0.056 SA
HETATM   12  C7  UNL     1      -5.426  -2.914  14.230  1.00  0.00     0.113 C 
BRANCH  12  13
HETATM   13  C6  UNL     1      -6.078  -1.998  15.157  1.00  0.00     0.189 C 
BRANCH  13  14
HETATM   14  O4  UNL     1      -5.433  -0.736  14.983  1.00  0.00    -0.357 OA
BRANCH  14  15
HETATM   15  C5  UNL     1      -4.611  -0.434  16.027  1.00  0.00     0.291 C 
HETATM   16  O3  UNL     1      -4.044  -1.511  16.660  1.00  0.00    -0.348 OA
HETATM   17  C3  UNL     1      -2.921  -1.029  17.330  1.00  0.00     0.179 C 
HETATM   18  C2  UNL     1      -2.411   0.170  16.588  1.00  0.00     0.185 C 
HETATM   19  C15 UNL     1      -3.370   0.240  15.420  1.00  0.00     0.204 C 
BRANCH  17  20
HETATM   20  C4  UNL     1      -1.820  -2.071  17.372  1.00  0.00     0.198 C 
BRANCH  20  21
HETATM   21  O2  UNL     1      -1.546  -2.460  16.070  1.00  0.00    -0.398 OA
ATOM     22  H2  UNL     1      -0.877  -3.133  16.098  1.00  0.00     0.209 HD
ENDBRANCH  20  21
ENDBRANCH  17  20
BRANCH  18  23
HETATM   23  O1  UNL     1      -2.388   1.328  17.325  1.00  0.00    -0.385 OA
HETATM   24  C1  UNL     1      -1.253   1.440  18.126  1.00  0.00     0.202 C 
ENDBRANCH  18  23
BRANCH  19  25
HETATM   25  O5  UNL     1      -2.946  -0.601  14.392  1.00  0.00    -0.388 OA
ATOM     26  H5  UNL     1      -3.633  -0.704  13.744  1.00  0.00     0.210 HD
ENDBRANCH  19  25
ENDBRANCH  14  15
ENDBRANCH  13  14
ENDBRANCH  12  13
ENDBRANCH   1   5
TORSDOF 8
ENDMDL
MODEL 5
REMARK VINA RESULT: -6.903581461      4.417      5.989
REMARK  8 active torsions:
REMARK  status: ('A' for Active; 'I' for Inactive)
REMARK    1  A    between atoms: O1_2  and  C2_3 
REMARK    2  A    between atoms: C3_4  and  C4_5 
REMARK    3  A    between atoms: C4_5  and  O2_6 
REMARK    4  A    between atoms: C5_9  and  O4_10 
REMARK    5  A    between atoms: O4_10  and  C6_11 
REMARK    6  A    between atoms: C6_11  and  C7_12 
REMARK    7  A    between atoms: N2_18  and  C11_19 
REMARK    8  A    between atoms: C15_24  and  O5_25 
ROOT
HETATM    1  C11 UNL     1      -2.109  -6.337  16.802  1.00  0.00     0.187 C 
HETATM    2  C12 UNL     1      -0.981  -6.193  17.827  1.00  0.00     0.048 C 
HETATM    3  C13 UNL     1      -1.687  -7.425  15.889  1.00  0.00     0.084 C 
HETATM    4  N3  UNL     1      -1.360  -8.282  15.184  1.00  0.00    -0.195 NA
ENDROOT
BRANCH   1   5
HETATM    5  N2  UNL     1      -2.302  -5.115  16.071  1.00  0.00    -0.369 N 
HETATM    6  C10 UNL     1      -1.296  -4.335  15.893  1.00  0.00     0.062 C 
HETATM    7  C9  UNL     1      -1.717  -3.114  15.104  1.00  0.00     0.068 C 
HETATM    8  C8  UNL     1      -3.156  -3.070  15.572  1.00  0.00     0.117 C 
HETATM    9  N1  UNL     1      -3.090  -2.762  16.986  1.00  0.00    -0.171 NA
HETATM   10  C14 UNL     1      -3.463  -4.583  15.461  1.00  0.00     0.122 C 
HETATM   11  S1  UNL     1      -4.303  -3.854  17.738  1.00  0.00    -0.056 SA
HETATM   12  C7  UNL     1      -4.755  -4.643  16.143  1.00  0.00     0.113 C 
BRANCH  12  13
HETATM   13  C6  UNL     1      -5.508  -5.883  16.279  1.00  0.00     0.189 C 
BRANCH  13  14
HETATM   14  O4  UNL     1      -5.987  -6.199  14.972  1.00  0.00    -0.357 OA
BRANCH  14  15
HETATM   15  C5  UNL     1      -7.345  -6.321  14.941  1.00  0.00     0.291 C 
HETATM   16  O3  UNL     1      -8.045  -5.180  15.240  1.00  0.00    -0.348 OA
HETATM   17  C3  UNL     1      -9.321  -5.349  14.706  1.00  0.00     0.179 C 
HETATM   18  C2  UNL     1      -9.217  -6.264  13.523  1.00  0.00     0.185 C 
HETATM   19  C15 UNL     1      -7.728  -6.526  13.467  1.00  0.00     0.204 C 
BRANCH  17  20
HETATM   20  C4  UNL     1      -9.896  -4.025  14.239  1.00  0.00     0.198 C 
BRANCH  20  21
HETATM   21  O2  UNL     1      -8.956  -3.409  13.429  1.00  0.00    -0.398 OA
ATOM     22  H2  UNL     1      -8.731  -2.573  13.821  1.00  0.00     0.209 HD
ENDBRANCH  20  21
ENDBRANCH  17  20
BRANCH  18  23
HETATM   23  O1  UNL     1      -9.955  -7.417  13.630  1.00  0.00    -0.385 OA
HETATM   24  C1  UNL     1     -10.197  -8.023  12.400  1.00  0.00     0.202 C 
ENDBRANCH  18  23
BRANCH  19  25
HETATM   25  O5  UNL     1      -7.082  -5.511  12.762  1.00  0.00    -0.388 OA
ATOM     26  H5  UNL     1      -6.278  -5.837  12.376  1.00  0.00     0.210 HD
ENDBRANCH  19  25
ENDBRANCH  14  15
ENDBRANCH  13  14
ENDBRANCH  12  13
ENDBRANCH   1   5
TORSDOF 8
ENDMDL
