MODEL 1
REMARK VINA RESULT: -5.192516135      0.000      0.000
REMARK  3 active torsions:
REMARK  status: ('A' for Active; 'I' for Inactive)
REMARK    1  A    between atoms: C2_2  and  C3_5 
REMARK    2  A    between atoms: C3_5  and  C4_6 
REMARK       I    between atoms: C4_6  and  N1_8 
REMARK    3  A    between atoms: N1_8  and  C5_10 
ROOT
HETATM    1  C4  UNL     1      21.633  85.965  26.380  1.00  0.00     0.220 C 
HETATM    2  O1  UNL     1      20.611  86.688  26.506  1.00  0.00    -0.274 OA
HETATM    3  N1  UNL     1      22.228  85.744  25.114  1.00  0.00    -0.356 N 
ATOM      4  H1  UNL     1      23.056  85.149  25.065  1.00  0.00     0.162 HD
ENDROOT
BRANCH   3   5
HETATM    5  C5  UNL     1      21.726  86.315  23.898  1.00  0.00     0.084 C 
HETATM    6  C6  UNL     1      21.725  85.320  22.751  1.00  0.00     0.025 C 
HETATM    7  C7  UNL     1      21.687  86.076  21.434  1.00  0.00     0.002 C 
HETATM    8  C8  UNL     1      21.004  87.415  21.611  1.00  0.00     0.000 C 
HETATM    9  C9  UNL     1      21.805  88.328  22.511  1.00  0.00     0.002 C 
HETATM   10  C10 UNL     1      22.577  87.484  23.500  1.00  0.00     0.025 C 
ENDBRANCH   3   5
BRANCH   1  11
HETATM   11  C3  UNL     1      22.182  85.357  27.613  1.00  0.00     0.144 C 
BRANCH  11  12
HETATM   12  C2  UNL     1      22.121  83.867  27.607  1.00  0.00     0.118 C 
HETATM   13  C1  UNL     1      22.339  83.255  28.955  1.00  0.00     0.051 C 
HETATM   14 CL1  UNL     1      23.251  83.135  26.455  1.00  0.00    -0.102 Cl
HETATM   15 CL2  UNL     1      20.471  83.408  27.060  1.00  0.00    -0.102 Cl
ENDBRANCH  11  12
ENDBRANCH   1  11
TORSDOF 3
ENDMDL
MODEL 2
REMARK VINA RESULT: -5.190307437      2.549      3.647
REMARK  3 active torsions:
REMARK  status: ('A' for Active; 'I' for Inactive)
REMARK    1  A    between atoms: C2_2  and  C3_5 
REMARK    2  A    between atoms: C3_5  and  C4_6 
REMARK       I    between atoms: C4_6  and  N1_8 
REMARK    3  A    between atoms: N1_8  and  C5_10 
ROOT
HETATM    1  C4  UNL     1      21.588  84.316  26.374  1.00  0.00     0.220 C 
HETATM    2  O1  UNL     1      22.616  83.602  26.497  1.00  0.00    -0.274 OA
HETATM    3  N1  UNL     1      20.989  84.534  25.109  1.00  0.00    -0.356 N 
ATOM      4  H1  UNL     1      20.156  85.122  25.062  1.00  0.00     0.162 HD
ENDROOT
BRANCH   3   5
HETATM    5  C5  UNL     1      21.493  83.968  23.892  1.00  0.00     0.084 C 
HETATM    6  C6  UNL     1      21.487  84.964  22.746  1.00  0.00     0.025 C 
HETATM    7  C7  UNL     1      21.529  84.210  21.428  1.00  0.00     0.002 C 
HETATM    8  C8  UNL     1      22.220  82.876  21.603  1.00  0.00     0.000 C 
HETATM    9  C9  UNL     1      21.426  81.956  22.503  1.00  0.00     0.002 C 
HETATM   10  C10 UNL     1      20.649  82.794  23.494  1.00  0.00     0.025 C 
ENDBRANCH   3   5
BRANCH   1  11
HETATM   11  C3  UNL     1      21.036  84.919  27.608  1.00  0.00     0.144 C 
BRANCH  11  12
HETATM   12  C2  UNL     1      21.113  86.409  27.616  1.00  0.00     0.118 C 
HETATM   13  C1  UNL     1      20.908  87.010  28.970  1.00  0.00     0.051 C 
HETATM   14 CL1  UNL     1      19.984  87.164  26.477  1.00  0.00    -0.102 Cl
HETATM   15 CL2  UNL     1      22.764  86.856  27.064  1.00  0.00    -0.102 Cl
ENDBRANCH  11  12
ENDBRANCH   1  11
TORSDOF 3
ENDMDL
MODEL 3
REMARK VINA RESULT: -5.088649671      1.391      1.576
REMARK  3 active torsions:
REMARK  status: ('A' for Active; 'I' for Inactive)
REMARK    1  A    between atoms: C2_2  and  C3_5 
REMARK    2  A    between atoms: C3_5  and  C4_6 
REMARK       I    between atoms: C4_6  and  N1_8 
REMARK    3  A    between atoms: N1_8  and  C5_10 
ROOT
HETATM    1  C4  UNL     1      21.947  84.305  25.194  1.00  0.00     0.220 C 
HETATM    2  O1  UNL     1      20.968  83.715  24.670  1.00  0.00    -0.274 OA
HETATM    3  N1  UNL     1      22.418  85.542  24.688  1.00  0.00    -0.356 N 
ATOM      4  H1  UNL     1      23.216  85.981  25.148  1.00  0.00     0.162 HD
ENDROOT
BRANCH   3   5
HETATM    5  C5  UNL     1      21.829  86.208  23.563  1.00  0.00     0.084 C 
HETATM    6  C6  UNL     1      21.967  85.406  22.281  1.00  0.00     0.025 C 
HETATM    7  C7  UNL     1      21.809  86.337  21.091  1.00  0.00     0.002 C 
HETATM    8  C8  UNL     1      20.938  87.519  21.454  1.00  0.00     0.000 C 
HETATM    9  C9  UNL     1      21.601  88.395  22.493  1.00  0.00     0.002 C 
HETATM   10  C10 UNL     1      22.496  87.536  23.357  1.00  0.00     0.025 C 
ENDBRANCH   3   5
BRANCH   1  11
HETATM   11  C3  UNL     1      22.583  83.650  26.358  1.00  0.00     0.144 C 
BRANCH  11  12
HETATM   12  C2  UNL     1      21.826  83.850  27.627  1.00  0.00     0.118 C 
HETATM   13  C1  UNL     1      21.748  85.280  28.058  1.00  0.00     0.051 C 
HETATM   14 CL1  UNL     1      22.462  82.882  28.969  1.00  0.00    -0.102 Cl
HETATM   15 CL2  UNL     1      20.148  83.275  27.338  1.00  0.00    -0.102 Cl
ENDBRANCH  11  12
ENDBRANCH   1  11
TORSDOF 3
ENDMDL
MODEL 4
REMARK VINA RESULT: -5.069465687      2.486      3.588
REMARK  3 active torsions:
REMARK  status: ('A' for Active; 'I' for Inactive)
REMARK    1  A    between atoms: C2_2  and  C3_5 
REMARK    2  A    between atoms: C3_5  and  C4_6 
REMARK       I    between atoms: C4_6  and  N1_8 
REMARK    3  A    between atoms: N1_8  and  C5_10 
ROOT
HETATM    1  C4  UNL     1      21.299  85.981  25.193  1.00  0.00     0.220 C 
HETATM    2  O1  UNL     1      22.298  86.552  24.686  1.00  0.00    -0.274 OA
HETATM    3  N1  UNL     1      20.808  84.757  24.675  1.00  0.00    -0.356 N 
ATOM      4  H1  UNL     1      19.994  84.333  25.121  1.00  0.00     0.162 HD
ENDROOT
BRANCH   3   5
HETATM    5  C5  UNL     1      21.400  84.083  23.556  1.00  0.00     0.084 C 
HETATM    6  C6  UNL     1      21.269  84.878  22.269  1.00  0.00     0.025 C 
HETATM    7  C7  UNL     1      21.428  83.940  21.084  1.00  0.00     0.002 C 
HETATM    8  C8  UNL     1      22.294  82.758  21.457  1.00  0.00     0.000 C 
HETATM    9  C9  UNL     1      21.624  81.889  22.498  1.00  0.00     0.002 C 
HETATM   10  C10 UNL     1      20.729  82.756  23.354  1.00  0.00     0.025 C 
ENDBRANCH   3   5
BRANCH   1  11
HETATM   11  C3  UNL     1      20.660  86.645  26.351  1.00  0.00     0.144 C 
BRANCH  11  12
HETATM   12  C2  UNL     1      21.407  86.445  27.626  1.00  0.00     0.118 C 
HETATM   13  C1  UNL     1      21.483  85.014  28.055  1.00  0.00     0.051 C 
HETATM   14 CL1  UNL     1      20.761  87.412  28.963  1.00  0.00    -0.102 Cl
HETATM   15 CL2  UNL     1      23.087  87.021  27.350  1.00  0.00    -0.102 Cl
ENDBRANCH  11  12
ENDBRANCH   1  11
TORSDOF 3
ENDMDL
MODEL 5
REMARK VINA RESULT: -4.971595031      2.315      3.460
REMARK  3 active torsions:
REMARK  status: ('A' for Active; 'I' for Inactive)
REMARK    1  A    between atoms: C2_2  and  C3_5 
REMARK    2  A    between atoms: C3_5  and  C4_6 
REMARK       I    between atoms: C4_6  and  N1_8 
REMARK    3  A    between atoms: N1_8  and  C5_10 
ROOT
HETATM    1  C4  UNL     1      21.159  86.006  25.111  1.00  0.00     0.220 C 
HETATM    2  O1  UNL     1      21.885  86.741  24.394  1.00  0.00    -0.274 OA
HETATM    3  N1  UNL     1      20.911  84.655  24.766  1.00  0.00    -0.356 N 
ATOM      4  H1  UNL     1      20.314  84.099  25.380  1.00  0.00     0.162 HD
ENDROOT
BRANCH   3   5
HETATM    5  C5  UNL     1      21.456  84.028  23.597  1.00  0.00     0.084 C 
HETATM    6  C6  UNL     1      21.290  84.884  22.353  1.00  0.00     0.025 C 
HETATM    7  C7  UNL     1      21.399  84.001  21.121  1.00  0.00     0.002 C 
HETATM    8  C8  UNL     1      22.265  82.794  21.410  1.00  0.00     0.000 C 
HETATM    9  C9  UNL     1      21.621  81.884  22.431  1.00  0.00     0.002 C 
HETATM   10  C10 UNL     1      20.765  82.719  23.357  1.00  0.00     0.025 C 
ENDBRANCH   3   5
BRANCH   1  11
HETATM   11  C3  UNL     1      20.577  86.616  26.327  1.00  0.00     0.144 C 
BRANCH  11  12
HETATM   12  C2  UNL     1      21.394  86.374  27.551  1.00  0.00     0.118 C 
HETATM   13  C1  UNL     1      22.830  86.763  27.397  1.00  0.00     0.051 C 
HETATM   14 CL1  UNL     1      21.312  84.695  28.115  1.00  0.00    -0.102 Cl
HETATM   15 CL2  UNL     1      20.693  87.383  28.863  1.00  0.00    -0.102 Cl
ENDBRANCH  11  12
ENDBRANCH   1  11
TORSDOF 3
ENDMDL
