MODEL 1
REMARK VINA RESULT: -5.589798422      0.000      0.000
REMARK  3 active torsions:
REMARK  status: ('A' for Active; 'I' for Inactive)
REMARK    1  A    between atoms: C2_2  and  C4_4 
REMARK    2  A    between atoms: C4_4  and  N1_5 
REMARK    3  A    between atoms: N1_5  and  C5_7 
ROOT
HETATM    1  C4  UNL     1      21.409  85.053  24.621  1.00  0.00     0.067 A 
HETATM    2  C9  UNL     1      20.714  86.376  24.546  1.00  0.00     0.079 A 
HETATM    3  C10 UNL     1      21.955  86.236  23.741  1.00  0.00     0.141 A 
HETATM    4 CL1  UNL     1      23.455  87.006  24.250  1.00  0.00    -0.099 Cl
HETATM    5 CL2  UNL     1      21.729  86.191  22.005  1.00  0.00    -0.099 Cl
ENDROOT
BRANCH   1   6
HETATM    6  C2  UNL     1      20.852  83.994  23.714  1.00  0.00     0.008 C 
HETATM    7  C1  UNL     1      21.937  82.966  23.454  1.00  0.00     0.012 C 
HETATM    8  C3  UNL     1      19.594  83.345  24.074  1.00  0.00     0.012 C 
ENDBRANCH   1   6
BRANCH   1   9
HETATM    9  N1  UNL     1      22.265  84.738  25.666  1.00  0.00    -0.402 N 
ATOM     10  H1  UNL     1      23.251  84.712  25.406  1.00  0.00     0.154 HD
BRANCH   9  11
HETATM   11  C5  UNL     1      22.027  84.457  26.976  1.00  0.00     0.015 C 
HETATM   12  C6  UNL     1      20.613  84.073  27.370  1.00  0.00     0.037 C 
HETATM   13  C7  UNL     1      22.148  85.860  27.710  1.00  0.00     0.037 C 
HETATM   14  C8  UNL     1      22.973  83.613  27.782  1.00  0.00     0.037 C 
ENDBRANCH   9  11
ENDBRANCH   1   9
TORSDOF 3
ENDMDL
MODEL 2
REMARK VINA RESULT: -5.589716200      1.728      3.237
REMARK  3 active torsions:
REMARK  status: ('A' for Active; 'I' for Inactive)
REMARK    1  A    between atoms: C2_2  and  C4_4 
REMARK    2  A    between atoms: C4_4  and  N1_5 
REMARK    3  A    between atoms: N1_5  and  C5_7 
ROOT
HETATM    1  C4  UNL     1      21.827  85.226  24.621  1.00  0.00     0.067 A 
HETATM    2  C9  UNL     1      22.522  83.903  24.546  1.00  0.00     0.079 A 
HETATM    3  C10 UNL     1      21.281  84.042  23.741  1.00  0.00     0.141 A 
HETATM    4 CL1  UNL     1      19.781  83.273  24.250  1.00  0.00    -0.099 Cl
HETATM    5 CL2  UNL     1      21.507  84.087  22.005  1.00  0.00    -0.099 Cl
ENDROOT
BRANCH   1   6
HETATM    6  C2  UNL     1      22.384  86.284  23.714  1.00  0.00     0.008 C 
HETATM    7  C1  UNL     1      21.299  87.312  23.454  1.00  0.00     0.012 C 
HETATM    8  C3  UNL     1      23.642  86.933  24.074  1.00  0.00     0.012 C 
ENDBRANCH   1   6
BRANCH   1   9
HETATM    9  N1  UNL     1      20.971  85.540  25.666  1.00  0.00    -0.402 N 
ATOM     10  H1  UNL     1      19.986  85.566  25.406  1.00  0.00     0.154 HD
BRANCH   9  11
HETATM   11  C5  UNL     1      21.209  85.821  26.976  1.00  0.00     0.015 C 
HETATM   12  C6  UNL     1      22.623  86.204  27.371  1.00  0.00     0.037 C 
HETATM   13  C7  UNL     1      21.087  84.418  27.710  1.00  0.00     0.037 C 
HETATM   14  C8  UNL     1      20.263  86.665  27.783  1.00  0.00     0.037 C 
ENDBRANCH   9  11
ENDBRANCH   1   9
TORSDOF 3
ENDMDL
MODEL 3
REMARK VINA RESULT: -5.520046328      0.221      1.099
REMARK  3 active torsions:
REMARK  status: ('A' for Active; 'I' for Inactive)
REMARK    1  A    between atoms: C2_2  and  C4_4 
REMARK    2  A    between atoms: C4_4  and  N1_5 
REMARK    3  A    between atoms: N1_5  and  C5_7 
ROOT
HETATM    1  C4  UNL     1      21.356  85.145  24.595  1.00  0.00     0.067 A 
HETATM    2  C9  UNL     1      20.687  86.470  24.406  1.00  0.00     0.079 A 
HETATM    3  C10 UNL     1      21.989  86.284  23.714  1.00  0.00     0.141 A 
HETATM    4 CL1  UNL     1      23.452  87.060  24.315  1.00  0.00    -0.099 Cl
HETATM    5 CL2  UNL     1      21.909  86.166  21.970  1.00  0.00    -0.099 Cl
ENDROOT
BRANCH   1   6
HETATM    6  C2  UNL     1      20.863  84.054  23.690  1.00  0.00     0.008 C 
HETATM    7  C1  UNL     1      21.964  83.020  23.542  1.00  0.00     0.012 C 
HETATM    8  C3  UNL     1      19.583  83.414  23.986  1.00  0.00     0.012 C 
ENDBRANCH   1   6
BRANCH   1   9
HETATM    9  N1  UNL     1      22.117  84.868  25.721  1.00  0.00    -0.402 N 
ATOM     10  H1  UNL     1      23.120  84.815  25.545  1.00  0.00     0.154 HD
BRANCH   9  11
HETATM   11  C5  UNL     1      21.767  84.653  27.018  1.00  0.00     0.015 C 
HETATM   12  C6  UNL     1      21.762  85.847  27.955  1.00  0.00     0.037 C 
HETATM   13  C7  UNL     1      22.983  83.830  27.625  1.00  0.00     0.037 C 
HETATM   14  C8  UNL     1      20.601  83.779  27.383  1.00  0.00     0.037 C 
ENDBRANCH   9  11
ENDBRANCH   1   9
TORSDOF 3
ENDMDL
MODEL 4
REMARK VINA RESULT: -5.514959568      1.719      3.040
REMARK  3 active torsions:
REMARK  status: ('A' for Active; 'I' for Inactive)
REMARK    1  A    between atoms: C2_2  and  C4_4 
REMARK    2  A    between atoms: C4_4  and  N1_5 
REMARK    3  A    between atoms: N1_5  and  C5_7 
ROOT
HETATM    1  C4  UNL     1      21.886  85.137  24.592  1.00  0.00     0.067 A 
HETATM    2  C9  UNL     1      22.551  83.810  24.403  1.00  0.00     0.079 A 
HETATM    3  C10 UNL     1      21.250  84.000  23.711  1.00  0.00     0.141 A 
HETATM    4 CL1  UNL     1      19.785  83.228  24.310  1.00  0.00    -0.099 Cl
HETATM    5 CL2  UNL     1      21.332  84.118  21.966  1.00  0.00    -0.099 Cl
ENDROOT
BRANCH   1   6
HETATM    6  C2  UNL     1      22.382  86.227  23.688  1.00  0.00     0.008 C 
HETATM    7  C1  UNL     1      21.282  87.259  23.532  1.00  0.00     0.012 C 
HETATM    8  C3  UNL     1      23.660  86.868  23.989  1.00  0.00     0.012 C 
ENDBRANCH   1   6
BRANCH   1   9
HETATM    9  N1  UNL     1      21.125  85.416  25.717  1.00  0.00    -0.402 N 
ATOM     10  H1  UNL     1      20.123  85.476  25.540  1.00  0.00     0.154 HD
BRANCH   9  11
HETATM   11  C5  UNL     1      21.474  85.624  27.016  1.00  0.00     0.015 C 
HETATM   12  C6  UNL     1      21.476  84.425  27.947  1.00  0.00     0.037 C 
HETATM   13  C7  UNL     1      20.260  86.446  27.626  1.00  0.00     0.037 C 
HETATM   14  C8  UNL     1      22.642  86.493  27.386  1.00  0.00     0.037 C 
ENDBRANCH   9  11
ENDBRANCH   1   9
TORSDOF 3
ENDMDL
MODEL 5
REMARK VINA RESULT: -5.476486149      0.163      1.202
REMARK  3 active torsions:
REMARK  status: ('A' for Active; 'I' for Inactive)
REMARK    1  A    between atoms: C2_2  and  C4_4 
REMARK    2  A    between atoms: C4_4  and  N1_5 
REMARK    3  A    between atoms: N1_5  and  C5_7 
ROOT
HETATM    1  C4  UNL     1      21.396  85.054  24.672  1.00  0.00     0.067 A 
HETATM    2  C9  UNL     1      20.721  86.389  24.636  1.00  0.00     0.079 A 
HETATM    3  C10 UNL     1      21.967  86.258  23.837  1.00  0.00     0.141 A 
HETATM    4 CL1  UNL     1      23.474  86.987  24.384  1.00  0.00    -0.099 Cl
HETATM    5 CL2  UNL     1      21.755  86.274  22.099  1.00  0.00    -0.099 Cl
ENDROOT
BRANCH   1   6
HETATM    6  C2  UNL     1      20.832  84.034  23.725  1.00  0.00     0.008 C 
HETATM    7  C1  UNL     1      21.884  82.969  23.485  1.00  0.00     0.012 C 
HETATM    8  C3  UNL     1      19.536  83.430  24.027  1.00  0.00     0.012 C 
ENDBRANCH   1   6
BRANCH   1   9
HETATM    9  N1  UNL     1      22.237  84.691  25.713  1.00  0.00    -0.402 N 
ATOM     10  H1  UNL     1      23.177  84.427  25.418  1.00  0.00     0.154 HD
BRANCH   9  11
HETATM   11  C5  UNL     1      22.036  84.624  27.057  1.00  0.00     0.015 C 
HETATM   12  C6  UNL     1      22.932  83.700  27.860  1.00  0.00     0.037 C 
HETATM   13  C7  UNL     1      20.648  83.869  27.213  1.00  0.00     0.037 C 
HETATM   14  C8  UNL     1      21.800  85.860  27.878  1.00  0.00     0.037 C 
ENDBRANCH   9  11
ENDBRANCH   1   9
TORSDOF 3
ENDMDL
