MODEL 1
REMARK VINA RESULT: -6.628196713      0.000      0.000
REMARK  6 active torsions:
REMARK  status: ('A' for Active; 'I' for Inactive)
REMARK    1  A    between atoms: C2_2  and  C4_4 
REMARK    2  A    between atoms: C4_4  and  C5_5 
REMARK    3  A    between atoms: C4_4  and  C6_8 
REMARK    4  A    between atoms: C6_8  and  N2_9 
REMARK    5  A    between atoms: C6_8  and  N3_13 
REMARK       I    between atoms: N3_13  and  C7_15 
REMARK    6  A    between atoms: C7_15  and  C8_17 
ROOT
HETATM    1  C6  UNL     1      26.853  65.339  11.058  1.00  0.00     0.297 C 
ENDROOT
BRANCH   1   2
HETATM    2  C4  UNL     1      26.403  63.940  10.844  1.00  0.00     0.128 C 
BRANCH   2   3
HETATM    3  C2  UNL     1      25.810  63.614   9.526  1.00  0.00    -0.006 C 
HETATM    4  C1  UNL     1      24.728  62.573   9.747  1.00  0.00     0.010 C 
HETATM    5  C3  UNL     1      25.243  64.728   8.738  1.00  0.00     0.010 C 
ENDBRANCH   2   3
BRANCH   2   6
HETATM    6  C5  UNL     1      27.570  63.041  11.053  1.00  0.00     0.239 C 
HETATM    7  N1  UNL     1      28.099  62.731  12.338  1.00  0.00    -0.062 NA
HETATM    8  O1  UNL     1      28.153  62.505  10.078  1.00  0.00    -0.276 OA
ENDBRANCH   2   6
ENDBRANCH   1   2
BRANCH   1   9
HETATM    9  N2  UNL     1      26.865  65.781  12.422  1.00  0.00    -0.058 N 
ATOM     10  H23 UNL     1      25.928  65.710  12.821  1.00  0.00     0.276 HD
ATOM     11  H22 UNL     1      27.361  65.107  13.004  1.00  0.00     0.276 HD
ATOM     12  H21 UNL     1      27.240  66.717  12.577  1.00  0.00     0.276 HD
ENDBRANCH   1   9
BRANCH   1  13
HETATM   13  N3  UNL     1      28.208  65.464  10.555  1.00  0.00    -0.329 N 
HETATM   14  C7  UNL     1      28.904  66.708  10.539  1.00  0.00     0.243 C 
HETATM   15  O2  UNL     1      28.308  67.703  10.976  1.00  0.00    -0.269 OA
ATOM     16  H3  UNL     1      28.679  64.632  10.201  1.00  0.00     0.164 HD
BRANCH  14  17
HETATM   17  C8  UNL     1      30.252  66.795  10.033  1.00  0.00     0.087 C 
HETATM   18  C9  UNL     1      30.676  66.649   8.807  1.00  0.00     0.016 C 
HETATM   19  C10 UNL     1      32.137  66.773   8.429  1.00  0.00     0.064 C 
HETATM   20  C12 UNL     1      30.007  66.350   7.562  1.00  0.00     0.247 C 
HETATM   21  C11 UNL     1      32.076  67.340   7.025  1.00  0.00     0.128 C 
HETATM   22  N4  UNL     1      30.763  67.015   6.534  1.00  0.00    -0.357 N 
ATOM     23  H4  UNL     1      30.420  67.224   5.597  1.00  0.00     0.162 HD
HETATM   24  O3  UNL     1      28.983  65.657   7.390  1.00  0.00    -0.268 OA
ENDBRANCH  14  17
ENDBRANCH   1  13
TORSDOF 6
ENDMDL
MODEL 2
REMARK VINA RESULT: -6.620038562      2.079      6.263
REMARK  6 active torsions:
REMARK  status: ('A' for Active; 'I' for Inactive)
REMARK    1  A    between atoms: C2_2  and  C4_4 
REMARK    2  A    between atoms: C4_4  and  C5_5 
REMARK    3  A    between atoms: C4_4  and  C6_8 
REMARK    4  A    between atoms: C6_8  and  N2_9 
REMARK    5  A    between atoms: C6_8  and  N3_13 
REMARK       I    between atoms: N3_13  and  C7_15 
REMARK    6  A    between atoms: C7_15  and  C8_17 
ROOT
HETATM    1  C6  UNL     1      30.437  65.589   8.971  1.00  0.00     0.297 C 
ENDROOT
BRANCH   1   2
HETATM    2  C4  UNL     1      30.519  66.896   8.270  1.00  0.00     0.128 C 
BRANCH   2   3
HETATM    3  C2  UNL     1      31.660  67.096   7.345  1.00  0.00    -0.006 C 
HETATM    4  C1  UNL     1      32.936  67.054   8.165  1.00  0.00     0.010 C 
HETATM    5  C3  UNL     1      31.793  66.157   6.212  1.00  0.00     0.010 C 
ENDBRANCH   2   3
BRANCH   2   6
HETATM    6  C5  UNL     1      29.264  67.086   7.495  1.00  0.00     0.239 C 
HETATM    7  N1  UNL     1      28.332  66.040   7.245  1.00  0.00    -0.062 NA
HETATM    8  O1  UNL     1      28.968  68.209   7.015  1.00  0.00    -0.276 OA
ENDBRANCH   2   6
ENDBRANCH   1   2
BRANCH   1   9
HETATM    9  N2  UNL     1      31.636  65.169   9.637  1.00  0.00    -0.058 N 
ATOM     10  H23 UNL     1      31.820  64.185   9.439  1.00  0.00     0.276 HD
ATOM     11  H22 UNL     1      32.449  65.598   9.196  1.00  0.00     0.276 HD
ATOM     12  H21 UNL     1      31.659  65.333  10.644  1.00  0.00     0.276 HD
ENDBRANCH   1   9
BRANCH   1  13
HETATM   13  N3  UNL     1      29.396  65.676   9.977  1.00  0.00    -0.329 N 
HETATM   14  C7  UNL     1      28.784  64.520  10.544  1.00  0.00     0.243 C 
HETATM   15  O2  UNL     1      29.174  63.413  10.147  1.00  0.00    -0.269 OA
ATOM     16  H3  UNL     1      29.090  66.598  10.290  1.00  0.00     0.164 HD
BRANCH  14  17
HETATM   17  C8  UNL     1      27.752  64.644  11.544  1.00  0.00     0.087 C 
HETATM   18  C9  UNL     1      26.490  64.321  11.461  1.00  0.00     0.016 C 
HETATM   19  C10 UNL     1      25.521  64.513  12.609  1.00  0.00     0.064 C 
HETATM   20  C12 UNL     1      25.683  63.761  10.401  1.00  0.00     0.247 C 
HETATM   21  C11 UNL     1      24.550  63.364  12.427  1.00  0.00     0.128 C 
HETATM   22  N4  UNL     1      24.667  62.974  11.047  1.00  0.00    -0.357 N 
ATOM     23  H4  UNL     1      24.112  62.249  10.594  1.00  0.00     0.162 HD
HETATM   24  O3  UNL     1      25.822  63.918   9.170  1.00  0.00    -0.268 OA
ENDBRANCH  14  17
ENDBRANCH   1  13
TORSDOF 6
ENDMDL
MODEL 3
REMARK VINA RESULT: -6.456852638      1.873      2.377
REMARK  6 active torsions:
REMARK  status: ('A' for Active; 'I' for Inactive)
REMARK    1  A    between atoms: C2_2  and  C4_4 
REMARK    2  A    between atoms: C4_4  and  C5_5 
REMARK    3  A    between atoms: C4_4  and  C6_8 
REMARK    4  A    between atoms: C6_8  and  N2_9 
REMARK    5  A    between atoms: C6_8  and  N3_13 
REMARK       I    between atoms: N3_13  and  C7_15 
REMARK    6  A    between atoms: C7_15  and  C8_17 
ROOT
HETATM    1  C6  UNL     1      28.478  64.696  11.815  1.00  0.00     0.297 C 
ENDROOT
BRANCH   1   2
HETATM    2  C4  UNL     1      27.181  63.975  11.848  1.00  0.00     0.128 C 
BRANCH   2   3
HETATM    3  C2  UNL     1      25.959  64.791  12.044  1.00  0.00    -0.006 C 
HETATM    4  C1  UNL     1      25.046  64.040  12.996  1.00  0.00     0.010 C 
HETATM    5  C3  UNL     1      26.132  66.172  12.542  1.00  0.00     0.010 C 
ENDBRANCH   2   3
BRANCH   2   6
HETATM    6  C5  UNL     1      27.031  63.232  10.568  1.00  0.00     0.239 C 
HETATM    7  N1  UNL     1      27.715  62.016  10.285  1.00  0.00    -0.062 NA
HETATM    8  O1  UNL     1      26.275  63.659   9.660  1.00  0.00    -0.276 OA
ENDBRANCH   2   6
ENDBRANCH   1   2
BRANCH   1   9
HETATM    9  N2  UNL     1      29.616  63.941  12.255  1.00  0.00    -0.058 N 
ATOM     10  H23 UNL     1      30.267  63.808  11.481  1.00  0.00     0.276 HD
ATOM     11  H22 UNL     1      30.189  64.506  12.881  1.00  0.00     0.276 HD
ATOM     12  H21 UNL     1      29.404  63.043  12.691  1.00  0.00     0.276 HD
ENDBRANCH   1   9
BRANCH   1  13
HETATM   13  N3  UNL     1      28.739  65.104  10.448  1.00  0.00    -0.329 N 
HETATM   14  C7  UNL     1      29.327  66.363  10.125  1.00  0.00     0.243 C 
HETATM   15  O2  UNL     1      29.617  67.116  11.066  1.00  0.00    -0.269 OA
ATOM     16  H3  UNL     1      28.492  64.468   9.690  1.00  0.00     0.164 HD
BRANCH  14  17
HETATM   17  C8  UNL     1      29.572  66.735   8.754  1.00  0.00     0.087 C 
HETATM   18  C9  UNL     1      30.713  66.876   8.136  1.00  0.00     0.016 C 
HETATM   19  C10 UNL     1      30.810  67.275   6.679  1.00  0.00     0.064 C 
HETATM   20  C12 UNL     1      32.088  66.736   8.561  1.00  0.00     0.247 C 
HETATM   21  C11 UNL     1      32.059  66.554   6.213  1.00  0.00     0.128 C 
HETATM   22  N4  UNL     1      32.818  66.287   7.406  1.00  0.00    -0.357 N 
ATOM     23  H4  UNL     1      33.737  65.845   7.429  1.00  0.00     0.162 HD
HETATM   24  O3  UNL     1      32.565  66.956   9.694  1.00  0.00    -0.268 OA
ENDBRANCH  14  17
ENDBRANCH   1  13
TORSDOF 6
ENDMDL
MODEL 4
REMARK VINA RESULT: -6.447762847      1.954      5.808
REMARK  6 active torsions:
REMARK  status: ('A' for Active; 'I' for Inactive)
REMARK    1  A    between atoms: C2_2  and  C4_4 
REMARK    2  A    between atoms: C4_4  and  C5_5 
REMARK    3  A    between atoms: C4_4  and  C6_8 
REMARK    4  A    between atoms: C6_8  and  N2_9 
REMARK    5  A    between atoms: C6_8  and  N3_13 
REMARK       I    between atoms: N3_13  and  C7_15 
REMARK    6  A    between atoms: C7_15  and  C8_17 
ROOT
HETATM    1  C6  UNL     1      29.409  66.673   9.562  1.00  0.00     0.297 C 
ENDROOT
BRANCH   1   2
HETATM    2  C4  UNL     1      29.978  66.993   8.228  1.00  0.00     0.128 C 
BRANCH   2   3
HETATM    3  C2  UNL     1      31.377  66.574   7.973  1.00  0.00    -0.006 C 
HETATM    4  C1  UNL     1      31.895  67.375   6.793  1.00  0.00     0.010 C 
HETATM    5  C3  UNL     1      32.340  66.693   9.088  1.00  0.00     0.010 C 
ENDBRANCH   2   3
BRANCH   2   6
HETATM    6  C5  UNL     1      29.118  66.361   7.193  1.00  0.00     0.239 C 
HETATM    7  N1  UNL     1      27.848  66.879   6.808  1.00  0.00    -0.062 NA
HETATM    8  O1  UNL     1      29.485  65.317   6.599  1.00  0.00    -0.276 OA
ENDBRANCH   2   6
ENDBRANCH   1   2
BRANCH   1   9
HETATM    9  N2  UNL     1      28.801  67.773  10.254  1.00  0.00    -0.058 N 
ATOM     10  H23 UNL     1      29.493  68.505  10.421  1.00  0.00     0.276 HD
ATOM     11  H22 UNL     1      28.162  68.267   9.631  1.00  0.00     0.276 HD
ATOM     12  H21 UNL     1      28.326  67.536  11.125  1.00  0.00     0.276 HD
ENDBRANCH   1   9
BRANCH   1  13
HETATM   13  N3  UNL     1      28.385  65.659   9.388  1.00  0.00    -0.329 N 
HETATM   14  C7  UNL     1      27.760  65.009  10.493  1.00  0.00     0.243 C 
HETATM   15  O2  UNL     1      28.121  65.341  11.631  1.00  0.00    -0.269 OA
ATOM     16  H3  UNL     1      28.103  65.403   8.443  1.00  0.00     0.164 HD
BRANCH  14  17
HETATM   17  C8  UNL     1      26.745  64.006  10.283  1.00  0.00     0.087 C 
HETATM   18  C9  UNL     1      25.655  64.082   9.568  1.00  0.00     0.016 C 
HETATM   19  C10 UNL     1      24.679  62.932   9.444  1.00  0.00     0.064 C 
HETATM   20  C12 UNL     1      25.073  65.136   8.769  1.00  0.00     0.247 C 
HETATM   21  C11 UNL     1      24.132  63.103   8.041  1.00  0.00     0.128 C 
HETATM   22  N4  UNL     1      24.367  64.481   7.700  1.00  0.00    -0.357 N 
ATOM     23  H4  UNL     1      24.076  64.927   6.831  1.00  0.00     0.162 HD
HETATM   24  O3  UNL     1      25.151  66.369   8.953  1.00  0.00    -0.268 OA
ENDBRANCH  14  17
ENDBRANCH   1  13
TORSDOF 6
ENDMDL
MODEL 5
REMARK VINA RESULT: -6.357754934      1.617      2.340
REMARK  6 active torsions:
REMARK  status: ('A' for Active; 'I' for Inactive)
REMARK    1  A    between atoms: C2_2  and  C4_4 
REMARK    2  A    between atoms: C4_4  and  C5_5 
REMARK    3  A    between atoms: C4_4  and  C6_8 
REMARK    4  A    between atoms: C6_8  and  N2_9 
REMARK    5  A    between atoms: C6_8  and  N3_13 
REMARK       I    between atoms: N3_13  and  C7_15 
REMARK    6  A    between atoms: C7_15  and  C8_17 
ROOT
HETATM    1  C6  UNL     1      26.614  65.368   9.830  1.00  0.00     0.297 C 
ENDROOT
BRANCH   1   2
HETATM    2  C4  UNL     1      26.896  64.604  11.071  1.00  0.00     0.128 C 
BRANCH   2   3
HETATM    3  C2  UNL     1      25.838  63.685  11.554  1.00  0.00    -0.006 C 
HETATM    4  C1  UNL     1      25.260  64.271  12.829  1.00  0.00     0.010 C 
HETATM    5  C3  UNL     1      24.728  63.375  10.629  1.00  0.00     0.010 C 
ENDBRANCH   2   3
BRANCH   2   6
HETATM    6  C5  UNL     1      28.130  63.802  10.852  1.00  0.00     0.239 C 
HETATM    7  N1  UNL     1      29.380  64.108  11.460  1.00  0.00    -0.062 NA
HETATM    8  O1  UNL     1      28.118  62.796  10.100  1.00  0.00    -0.276 OA
ENDBRANCH   2   6
ENDBRANCH   1   2
BRANCH   1   9
HETATM    9  N2  UNL     1      25.862  66.578  10.007  1.00  0.00    -0.058 N 
ATOM     10  H23 UNL     1      25.979  67.184   9.195  1.00  0.00     0.276 HD
ATOM     11  H22 UNL     1      24.864  66.381   9.944  1.00  0.00     0.276 HD
ATOM     12  H21 UNL     1      26.062  67.097  10.863  1.00  0.00     0.276 HD
ENDBRANCH   1   9
BRANCH   1  13
HETATM   13  N3  UNL     1      27.880  65.736   9.224  1.00  0.00    -0.329 N 
HETATM   14  C7  UNL     1      27.965  66.302   7.918  1.00  0.00     0.243 C 
HETATM   15  O2  UNL     1      26.904  66.477   7.300  1.00  0.00    -0.269 OA
ATOM     16  H3  UNL     1      28.739  65.584   9.751  1.00  0.00     0.164 HD
BRANCH  14  17
HETATM   17  C8  UNL     1      29.241  66.657   7.347  1.00  0.00     0.087 C 
HETATM   18  C9  UNL     1      30.372  66.889   7.955  1.00  0.00     0.016 C 
HETATM   19  C10 UNL     1      31.639  67.253   7.210  1.00  0.00     0.064 C 
HETATM   20  C12 UNL     1      30.761  66.893   9.347  1.00  0.00     0.247 C 
HETATM   21  C11 UNL     1      32.726  66.643   8.072  1.00  0.00     0.128 C 
HETATM   22  N4  UNL     1      32.140  66.484   9.376  1.00  0.00    -0.357 N 
ATOM     23  H4  UNL     1      32.629  66.133  10.199  1.00  0.00     0.162 HD
HETATM   24  O3  UNL     1      30.060  67.191  10.336  1.00  0.00    -0.268 OA
ENDBRANCH  14  17
ENDBRANCH   1  13
TORSDOF 6
ENDMDL
