MODEL 1
REMARK VINA RESULT: -9.490836187      0.000      0.000
REMARK  12 active torsions:
REMARK  status: ('A' for Active; 'I' for Inactive)
REMARK    1  A    between atoms: C2_2  and  C3_3 
REMARK    2  A    between atoms: C3_3  and  C4_4 
REMARK    3  A    between atoms: C4_4  and  C5_5 
REMARK    4  A    between atoms: C7_7  and  N1_8 
REMARK    5  A    between atoms: N1_8  and  C8_10 
REMARK    6  A    between atoms: C10_12  and  O1_13 
REMARK    7  A    between atoms: O1_13  and  C11_14 
REMARK    8  A    between atoms: C11_14  and  C12_15 
REMARK    9  A    between atoms: N4_24  and  C18_26 
REMARK   10  A    between atoms: C18_26  and  C19_27 
REMARK   11  A    between atoms: C19_27  and  C20_28 
REMARK   12  A    between atoms: C20_28  and  N5_29 
ROOT
HETATM    1  C8  UNL     1      18.575  22.978  17.257  1.00  0.00     0.126 A 
HETATM    2  C9  UNL     1      19.177  23.690  18.228  1.00  0.00     0.105 A 
HETATM    3  C10 UNL     1      18.979  23.378  19.602  1.00  0.00     0.161 A 
HETATM    4  N3  UNL     1      18.153  22.312  19.847  1.00  0.00    -0.171 N 
ATOM      5  H3  UNL     1      17.981  22.041  20.815  1.00  0.00     0.186 HD
HETATM    6  C17 UNL     1      17.565  21.614  18.880  1.00  0.00     0.681 A 
HETATM    7  N4  UNL     1      16.731  20.623  19.090  1.00  0.00    -0.225 N 
ATOM      8  H4  UNL     1      16.500  20.372  20.051  1.00  0.00     0.177 HD
HETATM    9  N7  UNL     1      17.773  21.947  17.548  1.00  0.00    -0.177 N 
ATOM     10  H7  UNL     1      17.322  21.414  16.804  1.00  0.00     0.186 HD
ENDROOT
BRANCH   7  11
HETATM   11  C18 UNL     1      16.139  19.887  18.033  1.00  0.00     0.149 C 
BRANCH  11  12
HETATM   12  C19 UNL     1      14.749  19.354  18.307  1.00  0.00     0.006 C 
HETATM   13  C26 UNL     1      14.587  17.927  18.320  1.00  0.00     0.039 C 
HETATM   14  C27 UNL     1      13.481  17.390  19.204  1.00  0.00     0.168 C 
HETATM   15  O2  UNL     1      13.418  17.933  20.471  1.00  0.00    -0.391 OA
HETATM   16  C28 UNL     1      13.400  19.301  20.481  1.00  0.00     0.168 C 
HETATM   17  C29 UNL     1      14.653  19.791  19.850  1.00  0.00     0.039 C 
BRANCH  12  18
HETATM   18  C20 UNL     1      13.791  20.304  17.623  1.00  0.00     0.283 C 
BRANCH  18  19
HETATM   19  N5  UNL     1      14.191  20.565  16.255  1.00  0.00     0.092 N 
HETATM   20  C21 UNL     1      13.083  20.383  15.292  1.00  0.00     0.302 C 
HETATM   21  C22 UNL     1      13.773  20.598  13.938  1.00  0.00     0.302 C 
HETATM   22  N6  UNL     1      14.356  21.878  13.749  1.00  0.00     0.087 N 
HETATM   23  C23 UNL     1      15.475  21.766  12.837  1.00  0.00     0.310 C 
HETATM   24  C24 UNL     1      14.867  22.507  14.939  1.00  0.00     0.302 C 
HETATM   25  C25 UNL     1      14.252  22.093  16.194  1.00  0.00     0.302 C 
ENDBRANCH  18  19
ENDBRANCH  12  18
ENDBRANCH  11  12
ENDBRANCH   7  11
BRANCH   3  26
HETATM   26  O1  UNL     1      19.592  24.107  20.486  1.00  0.00    -0.333 OA
BRANCH  26  27
HETATM   27  C11 UNL     1      20.197  24.825  21.359  1.00  0.00     0.213 C 
BRANCH  27  28
HETATM   28  C12 UNL     1      21.078  25.922  20.723  1.00  0.00     0.246 C 
HETATM   29  C13 UNL     1      21.894  26.654  21.680  1.00  0.00     0.040 C 
HETATM   30  C14 UNL     1      23.253  26.014  21.526  1.00  0.00     0.032 C 
HETATM   31  C15 UNL     1      23.061  24.909  20.481  1.00  0.00     0.272 C 
HETATM   32  N2  UNL     1      21.870  25.306  19.713  1.00  0.00     0.090 N 
HETATM   33  C16 UNL     1      22.254  26.029  18.555  1.00  0.00     0.310 C 
ENDBRANCH  27  28
ENDBRANCH  26  27
ENDBRANCH   3  26
BRANCH   1  34
HETATM   34  N1  UNL     1      18.644  23.274  15.840  1.00  0.00    -0.327 N 
ATOM     35  H1  UNL     1      18.086  22.755  15.163  1.00  0.00     0.169 HD
BRANCH  34  36
HETATM   36  C7  UNL     1      19.459  24.244  15.458  1.00  0.00     0.123 A 
HETATM   37  C6  UNL     1      19.086  25.537  15.253  1.00  0.00     0.076 A 
HETATM   38  C5  UNL     1      20.201  26.243  14.811  1.00  0.00     0.029 A 
HETATM   39  N9  UNL     1      21.195  25.371  14.765  1.00  0.00    -0.303 N 
HETATM   40  N8  UNL     1      20.767  24.184  15.149  1.00  0.00    -0.285 N 
ATOM     41  H9  UNL     1      22.150  25.584  14.475  1.00  0.00     0.186 HD
ATOM     42  H8  UNL     1      21.342  23.344  15.203  1.00  0.00     0.188 HD
BRANCH  38  43
HETATM   43  C4  UNL     1      20.193  27.684  14.542  1.00  0.00     0.058 C 
BRANCH  43  44
HETATM   44  C3  UNL     1      21.521  28.014  13.857  1.00  0.00     0.006 C 
BRANCH  44  45
HETATM   45  C2  UNL     1      22.337  28.937  14.757  1.00  0.00    -0.004 C 
HETATM   46  C1  UNL     1      23.420  28.150  15.466  1.00  0.00     0.005 C 
ENDBRANCH  44  45
ENDBRANCH  43  44
ENDBRANCH  38  43
ENDBRANCH  34  36
ENDBRANCH   1  34
TORSDOF 12
ENDMDL
MODEL 2
REMARK VINA RESULT: -9.372791614      0.705      1.136
REMARK  12 active torsions:
REMARK  status: ('A' for Active; 'I' for Inactive)
REMARK    1  A    between atoms: C2_2  and  C3_3 
REMARK    2  A    between atoms: C3_3  and  C4_4 
REMARK    3  A    between atoms: C4_4  and  C5_5 
REMARK    4  A    between atoms: C7_7  and  N1_8 
REMARK    5  A    between atoms: N1_8  and  C8_10 
REMARK    6  A    between atoms: C10_12  and  O1_13 
REMARK    7  A    between atoms: O1_13  and  C11_14 
REMARK    8  A    between atoms: C11_14  and  C12_15 
REMARK    9  A    between atoms: N4_24  and  C18_26 
REMARK   10  A    between atoms: C18_26  and  C19_27 
REMARK   11  A    between atoms: C19_27  and  C20_28 
REMARK   12  A    between atoms: C20_28  and  N5_29 
ROOT
HETATM    1  C8  UNL     1      18.313  22.749  17.290  1.00  0.00     0.126 A 
HETATM    2  C9  UNL     1      18.895  23.498  18.245  1.00  0.00     0.105 A 
HETATM    3  C10 UNL     1      18.676  23.236  19.626  1.00  0.00     0.161 A 
HETATM    4  N3  UNL     1      17.850  22.176  19.896  1.00  0.00    -0.171 N 
ATOM      5  H3  UNL     1      17.664  21.940  20.870  1.00  0.00     0.186 HD
HETATM    6  C17 UNL     1      17.282  21.440  18.946  1.00  0.00     0.681 A 
HETATM    7  N4  UNL     1      16.448  20.453  19.179  1.00  0.00    -0.225 N 
ATOM      8  H4  UNL     1      16.202  20.237  20.145  1.00  0.00     0.177 HD
HETATM    9  N7  UNL     1      17.510  21.725  17.606  1.00  0.00    -0.177 N 
ATOM     10  H7  UNL     1      17.074  21.163  16.876  1.00  0.00     0.186 HD
ENDROOT
BRANCH   7  11
HETATM   11  C18 UNL     1      15.877  19.676  18.140  1.00  0.00     0.149 C 
BRANCH  11  12
HETATM   12  C19 UNL     1      14.460  19.202  18.382  1.00  0.00     0.006 C 
HETATM   13  C26 UNL     1      14.234  17.785  18.375  1.00  0.00     0.039 C 
HETATM   14  C27 UNL     1      13.089  17.288  19.231  1.00  0.00     0.168 C 
HETATM   15  O2  UNL     1      13.027  17.817  20.504  1.00  0.00    -0.391 OA
HETATM   16  C28 UNL     1      13.071  19.184  20.532  1.00  0.00     0.168 C 
HETATM   17  C29 UNL     1      14.355  19.625  19.929  1.00  0.00     0.039 C 
BRANCH  12  18
HETATM   18  C20 UNL     1      13.558  20.203  17.694  1.00  0.00     0.283 C 
BRANCH  18  19
HETATM   19  N5  UNL     1      14.013  20.488  16.348  1.00  0.00     0.092 N 
HETATM   20  C21 UNL     1      12.940  20.341  15.340  1.00  0.00     0.302 C 
HETATM   21  C22 UNL     1      13.684  20.574  14.018  1.00  0.00     0.302 C 
HETATM   22  N6  UNL     1      14.291  21.851  13.879  1.00  0.00     0.087 N 
HETATM   23  C23 UNL     1      15.442  21.742  13.008  1.00  0.00     0.310 C 
HETATM   24  C24 UNL     1      14.764  22.447  15.100  1.00  0.00     0.302 C 
HETATM   25  C25 UNL     1      14.096  22.016  16.322  1.00  0.00     0.302 C 
ENDBRANCH  18  19
ENDBRANCH  12  18
ENDBRANCH  11  12
ENDBRANCH   7  11
BRANCH   3  26
HETATM   26  O1  UNL     1      19.271  24.001  20.492  1.00  0.00    -0.333 OA
BRANCH  26  27
HETATM   27  C11 UNL     1      19.860  24.754  21.346  1.00  0.00     0.213 C 
BRANCH  27  28
HETATM   28  C12 UNL     1      21.278  25.168  20.898  1.00  0.00     0.246 C 
HETATM   29  C13 UNL     1      21.342  25.677  19.536  1.00  0.00     0.040 C 
HETATM   30  C14 UNL     1      21.386  27.173  19.735  1.00  0.00     0.032 C 
HETATM   31  C15 UNL     1      21.300  27.380  21.251  1.00  0.00     0.272 C 
HETATM   32  N2  UNL     1      21.768  26.115  21.841  1.00  0.00     0.090 N 
HETATM   33  C16 UNL     1      23.154  26.195  22.132  1.00  0.00     0.310 C 
ENDBRANCH  27  28
ENDBRANCH  26  27
ENDBRANCH   3  26
BRANCH   1  34
HETATM   34  N1  UNL     1      18.403  22.992  15.866  1.00  0.00    -0.327 N 
ATOM     35  H1  UNL     1      17.883  22.425  15.197  1.00  0.00     0.169 HD
BRANCH  34  36
HETATM   36  C7  UNL     1      19.188  23.979  15.464  1.00  0.00     0.123 A 
HETATM   37  C6  UNL     1      18.756  25.220  15.110  1.00  0.00     0.076 A 
HETATM   38  C5  UNL     1      19.860  25.961  14.698  1.00  0.00     0.029 A 
HETATM   39  N9  UNL     1      20.906  25.158  14.815  1.00  0.00    -0.303 N 
HETATM   40  N8  UNL     1      20.519  23.983  15.270  1.00  0.00    -0.285 N 
ATOM     41  H9  UNL     1      21.868  25.411  14.586  1.00  0.00     0.186 HD
ATOM     42  H8  UNL     1      21.138  23.192  15.449  1.00  0.00     0.188 HD
BRANCH  38  43
HETATM   43  C4  UNL     1      19.788  27.369  14.298  1.00  0.00     0.058 C 
BRANCH  43  44
HETATM   44  C3  UNL     1      20.948  28.087  14.991  1.00  0.00     0.006 C 
BRANCH  44  45
HETATM   45  C2  UNL     1      21.850  28.722  13.938  1.00  0.00    -0.004 C 
HETATM   46  C1  UNL     1      23.071  29.333  14.594  1.00  0.00     0.005 C 
ENDBRANCH  44  45
ENDBRANCH  43  44
ENDBRANCH  38  43
ENDBRANCH  34  36
ENDBRANCH   1  34
TORSDOF 12
ENDMDL
MODEL 3
REMARK VINA RESULT: -9.221078156      0.926      1.174
REMARK  12 active torsions:
REMARK  status: ('A' for Active; 'I' for Inactive)
REMARK    1  A    between atoms: C2_2  and  C3_3 
REMARK    2  A    between atoms: C3_3  and  C4_4 
REMARK    3  A    between atoms: C4_4  and  C5_5 
REMARK    4  A    between atoms: C7_7  and  N1_8 
REMARK    5  A    between atoms: N1_8  and  C8_10 
REMARK    6  A    between atoms: C10_12  and  O1_13 
REMARK    7  A    between atoms: O1_13  and  C11_14 
REMARK    8  A    between atoms: C11_14  and  C12_15 
REMARK    9  A    between atoms: N4_24  and  C18_26 
REMARK   10  A    between atoms: C18_26  and  C19_27 
REMARK   11  A    between atoms: C19_27  and  C20_28 
REMARK   12  A    between atoms: C20_28  and  N5_29 
ROOT
HETATM    1  C8  UNL     1      18.432  22.770  17.289  1.00  0.00     0.126 A 
HETATM    2  C9  UNL     1      19.055  23.476  18.251  1.00  0.00     0.105 A 
HETATM    3  C10 UNL     1      18.809  23.224  19.629  1.00  0.00     0.161 A 
HETATM    4  N3  UNL     1      17.912  22.221  19.889  1.00  0.00    -0.171 N 
ATOM      5  H3  UNL     1      17.702  21.995  20.861  1.00  0.00     0.186 HD
HETATM    6  C17 UNL     1      17.303  21.528  18.932  1.00  0.00     0.681 A 
HETATM    7  N4  UNL     1      16.404  20.598  19.154  1.00  0.00    -0.225 N 
ATOM      8  H4  UNL     1      16.136  20.395  20.117  1.00  0.00     0.177 HD
HETATM    9  N7  UNL     1      17.561  21.801  17.595  1.00  0.00    -0.177 N 
ATOM     10  H7  UNL     1      17.093  21.272  16.859  1.00  0.00     0.186 HD
ENDROOT
BRANCH   7  11
HETATM   11  C18 UNL     1      15.790  19.864  18.108  1.00  0.00     0.149 C 
BRANCH  11  12
HETATM   12  C19 UNL     1      14.410  19.322  18.413  1.00  0.00     0.006 C 
HETATM   13  C26 UNL     1      14.240  17.898  18.355  1.00  0.00     0.039 C 
HETATM   14  C27 UNL     1      13.170  17.317  19.256  1.00  0.00     0.168 C 
HETATM   15  O2  UNL     1      13.165  17.789  20.552  1.00  0.00    -0.391 OA
HETATM   16  C28 UNL     1      13.157  19.155  20.638  1.00  0.00     0.168 C 
HETATM   17  C29 UNL     1      14.383  19.674  19.980  1.00  0.00     0.039 C 
BRANCH  12  18
HETATM   18  C20 UNL     1      13.429  20.312  17.825  1.00  0.00     0.283 C 
BRANCH  18  19
HETATM   19  N5  UNL     1      13.012  19.918  16.494  1.00  0.00     0.092 N 
HETATM   20  C21 UNL     1      11.541  19.863  16.350  1.00  0.00     0.302 C 
HETATM   21  C22 UNL     1      11.361  19.321  14.925  1.00  0.00     0.302 C 
HETATM   22  N6  UNL     1      11.905  20.131  13.894  1.00  0.00     0.087 N 
HETATM   23  C23 UNL     1      12.279  19.293  12.774  1.00  0.00     0.310 C 
HETATM   24  C24 UNL     1      13.083  20.877  14.250  1.00  0.00     0.302 C 
HETATM   25  C25 UNL     1      13.241  21.185  15.666  1.00  0.00     0.302 C 
ENDBRANCH  18  19
ENDBRANCH  12  18
ENDBRANCH  11  12
ENDBRANCH   7  11
BRANCH   3  26
HETATM   26  O1  UNL     1      19.447  23.944  20.503  1.00  0.00    -0.333 OA
BRANCH  26  27
HETATM   27  C11 UNL     1      20.075  24.656  21.365  1.00  0.00     0.213 C 
BRANCH  27  28
HETATM   28  C12 UNL     1      20.858  25.820  20.720  1.00  0.00     0.246 C 
HETATM   29  C13 UNL     1      21.592  26.639  21.673  1.00  0.00     0.040 C 
HETATM   30  C14 UNL     1      23.006  26.124  21.541  1.00  0.00     0.032 C 
HETATM   31  C15 UNL     1      22.929  24.991  20.512  1.00  0.00     0.272 C 
HETATM   32  N2  UNL     1      21.714  25.265  19.727  1.00  0.00     0.090 N 
HETATM   33  C16 UNL     1      22.042  26.003  18.561  1.00  0.00     0.310 C 
ENDBRANCH  27  28
ENDBRANCH  26  27
ENDBRANCH   3  26
BRANCH   1  34
HETATM   34  N1  UNL     1      18.550  23.012  15.866  1.00  0.00    -0.327 N 
ATOM     35  H1  UNL     1      18.063  22.427  15.187  1.00  0.00     0.169 HD
BRANCH  34  36
HETATM   36  C7  UNL     1      19.315  24.021  15.480  1.00  0.00     0.123 A 
HETATM   37  C6  UNL     1      18.859  25.264  15.163  1.00  0.00     0.076 A 
HETATM   38  C5  UNL     1      19.946  26.032  14.756  1.00  0.00     0.029 A 
HETATM   39  N9  UNL     1      21.006  25.243  14.839  1.00  0.00    -0.303 N 
HETATM   40  N8  UNL     1      20.643  24.050  15.269  1.00  0.00    -0.285 N 
ATOM     41  H9  UNL     1      21.961  25.516  14.605  1.00  0.00     0.186 HD
ATOM     42  H8  UNL     1      21.276  23.265  15.420  1.00  0.00     0.188 HD
BRANCH  38  43
HETATM   43  C4  UNL     1      19.847  27.448  14.393  1.00  0.00     0.058 C 
BRANCH  43  44
HETATM   44  C3  UNL     1      21.028  28.159  15.057  1.00  0.00     0.006 C 
BRANCH  44  45
HETATM   45  C2  UNL     1      21.908  28.788  13.982  1.00  0.00    -0.004 C 
HETATM   46  C1  UNL     1      23.187  29.318  14.598  1.00  0.00     0.005 C 
ENDBRANCH  44  45
ENDBRANCH  43  44
ENDBRANCH  38  43
ENDBRANCH  34  36
ENDBRANCH   1  34
TORSDOF 12
ENDMDL
MODEL 4
REMARK VINA RESULT: -8.915111520      1.345      1.740
REMARK  12 active torsions:
REMARK  status: ('A' for Active; 'I' for Inactive)
REMARK    1  A    between atoms: C2_2  and  C3_3 
REMARK    2  A    between atoms: C3_3  and  C4_4 
REMARK    3  A    between atoms: C4_4  and  C5_5 
REMARK    4  A    between atoms: C7_7  and  N1_8 
REMARK    5  A    between atoms: N1_8  and  C8_10 
REMARK    6  A    between atoms: C10_12  and  O1_13 
REMARK    7  A    between atoms: O1_13  and  C11_14 
REMARK    8  A    between atoms: C11_14  and  C12_15 
REMARK    9  A    between atoms: N4_24  and  C18_26 
REMARK   10  A    between atoms: C18_26  and  C19_27 
REMARK   11  A    between atoms: C19_27  and  C20_28 
REMARK   12  A    between atoms: C20_28  and  N5_29 
ROOT
HETATM    1  C8  UNL     1      17.651  24.057  18.436  1.00  0.00     0.126 A 
HETATM    2  C9  UNL     1      18.941  23.977  18.812  1.00  0.00     0.105 A 
HETATM    3  C10 UNL     1      19.419  22.885  19.589  1.00  0.00     0.161 A 
HETATM    4  N3  UNL     1      18.479  21.939  19.907  1.00  0.00    -0.171 N 
ATOM      5  H3  UNL     1      18.768  21.132  20.458  1.00  0.00     0.186 HD
HETATM    6  C17 UNL     1      17.207  22.026  19.529  1.00  0.00     0.681 A 
HETATM    7  N4  UNL     1      16.279  21.161  19.863  1.00  0.00    -0.225 N 
ATOM      8  H4  UNL     1      16.534  20.375  20.463  1.00  0.00     0.177 HD
HETATM    9  N7  UNL     1      16.771  23.108  18.776  1.00  0.00    -0.177 N 
ATOM     10  H7  UNL     1      15.795  23.178  18.487  1.00  0.00     0.186 HD
ENDROOT
BRANCH   7  11
HETATM   11  C18 UNL     1      14.936  21.274  19.425  1.00  0.00     0.149 C 
BRANCH  11  12
HETATM   12  C19 UNL     1      14.375  20.060  18.717  1.00  0.00     0.006 C 
HETATM   13  C26 UNL     1      15.296  19.008  18.392  1.00  0.00     0.039 C 
HETATM   14  C27 UNL     1      14.718  17.610  18.331  1.00  0.00     0.168 C 
HETATM   15  O2  UNL     1      13.884  17.267  19.376  1.00  0.00    -0.391 OA
HETATM   16  C28 UNL     1      12.886  18.175  19.601  1.00  0.00     0.168 C 
HETATM   17  C29 UNL     1      13.508  19.481  19.940  1.00  0.00     0.039 C 
BRANCH  12  18
HETATM   18  C20 UNL     1      13.319  20.578  17.766  1.00  0.00     0.283 C 
BRANCH  18  19
HETATM   19  N5  UNL     1      13.840  20.718  16.421  1.00  0.00     0.092 N 
HETATM   20  C21 UNL     1      12.805  20.512  15.384  1.00  0.00     0.302 C 
HETATM   21  C22 UNL     1      13.612  20.595  14.081  1.00  0.00     0.302 C 
HETATM   22  N6  UNL     1      14.271  21.831  13.851  1.00  0.00     0.087 N 
HETATM   23  C23 UNL     1      15.453  21.602  13.047  1.00  0.00     0.310 C 
HETATM   24  C24 UNL     1      14.714  22.525  15.031  1.00  0.00     0.302 C 
HETATM   25  C25 UNL     1      13.981  22.233  16.256  1.00  0.00     0.302 C 
ENDBRANCH  18  19
ENDBRANCH  12  18
ENDBRANCH  11  12
ENDBRANCH   7  11
BRANCH   3  26
HETATM   26  O1  UNL     1      20.677  22.874  19.915  1.00  0.00    -0.333 OA
BRANCH  26  27
HETATM   27  C11 UNL     1      21.918  22.864  20.235  1.00  0.00     0.213 C 
BRANCH  27  28
HETATM   28  C12 UNL     1      22.317  24.071  21.111  1.00  0.00     0.246 C 
HETATM   29  C13 UNL     1      23.754  24.235  21.273  1.00  0.00     0.040 C 
HETATM   30  C14 UNL     1      24.083  25.331  20.288  1.00  0.00     0.032 C 
HETATM   31  C15 UNL     1      22.753  25.673  19.606  1.00  0.00     0.272 C 
HETATM   32  N2  UNL     1      21.712  25.230  20.548  1.00  0.00     0.090 N 
HETATM   33  C16 UNL     1      21.310  26.310  21.375  1.00  0.00     0.310 C 
ENDBRANCH  27  28
ENDBRANCH  26  27
ENDBRANCH   3  26
BRANCH   1  34
HETATM   34  N1  UNL     1      17.056  25.169  17.724  1.00  0.00    -0.327 N 
ATOM     35  H1  UNL     1      16.270  25.689  18.116  1.00  0.00     0.169 HD
BRANCH  34  36
HETATM   36  C7  UNL     1      17.569  25.484  16.546  1.00  0.00     0.123 A 
HETATM   37  C6  UNL     1      18.865  25.842  16.334  1.00  0.00     0.076 A 
HETATM   38  C5  UNL     1      19.013  26.148  14.984  1.00  0.00     0.029 A 
HETATM   39  N9  UNL     1      17.823  25.968  14.433  1.00  0.00    -0.303 N 
HETATM   40  N8  UNL     1      16.961  25.572  15.349  1.00  0.00    -0.285 N 
ATOM     41  H9  UNL     1      17.605  26.114  13.447  1.00  0.00     0.186 HD
ATOM     42  H8  UNL     1      15.978  25.364  15.176  1.00  0.00     0.188 HD
BRANCH  38  43
HETATM   43  C4  UNL     1      20.292  26.519  14.373  1.00  0.00     0.058 C 
BRANCH  43  44
HETATM   44  C3  UNL     1      20.517  28.002  14.680  1.00  0.00     0.006 C 
BRANCH  44  45
HETATM   45  C2  UNL     1      21.501  28.583  13.670  1.00  0.00    -0.004 C 
HETATM   46  C1  UNL     1      22.705  29.159  14.386  1.00  0.00     0.005 C 
ENDBRANCH  44  45
ENDBRANCH  43  44
ENDBRANCH  38  43
ENDBRANCH  34  36
ENDBRANCH   1  34
TORSDOF 12
ENDMDL
MODEL 5
REMARK VINA RESULT: -8.716476125      2.280     10.207
REMARK  12 active torsions:
REMARK  status: ('A' for Active; 'I' for Inactive)
REMARK    1  A    between atoms: C2_2  and  C3_3 
REMARK    2  A    between atoms: C3_3  and  C4_4 
REMARK    3  A    between atoms: C4_4  and  C5_5 
REMARK    4  A    between atoms: C7_7  and  N1_8 
REMARK    5  A    between atoms: N1_8  and  C8_10 
REMARK    6  A    between atoms: C10_12  and  O1_13 
REMARK    7  A    between atoms: O1_13  and  C11_14 
REMARK    8  A    between atoms: C11_14  and  C12_15 
REMARK    9  A    between atoms: N4_24  and  C18_26 
REMARK   10  A    between atoms: C18_26  and  C19_27 
REMARK   11  A    between atoms: C19_27  and  C20_28 
REMARK   12  A    between atoms: C20_28  and  N5_29 
ROOT
HETATM    1  C8  UNL     1      17.345  22.062  17.173  1.00  0.00     0.126 A 
HETATM    2  C9  UNL     1      16.175  21.856  16.540  1.00  0.00     0.105 A 
HETATM    3  C10 UNL     1      15.897  22.465  15.285  1.00  0.00     0.161 A 
HETATM    4  N3  UNL     1      16.901  23.251  14.782  1.00  0.00    -0.171 N 
ATOM      5  H3  UNL     1      16.757  23.707  13.881  1.00  0.00     0.186 HD
HETATM    6  C17 UNL     1      18.054  23.446  15.414  1.00  0.00     0.681 A 
HETATM    7  N4  UNL     1      19.009  24.234  14.978  1.00  0.00    -0.225 N 
ATOM      8  H4  UNL     1      18.863  24.746  14.107  1.00  0.00     0.177 HD
HETATM    9  N7  UNL     1      18.293  22.842  16.641  1.00  0.00    -0.177 N 
ATOM     10  H7  UNL     1      19.176  22.992  17.129  1.00  0.00     0.186 HD
ENDROOT
BRANCH   7  11
HETATM   11  C18 UNL     1      20.235  24.402  15.668  1.00  0.00     0.149 C 
BRANCH  11  12
HETATM   12  C19 UNL     1      20.715  25.830  15.811  1.00  0.00     0.006 C 
HETATM   13  C26 UNL     1      22.021  26.136  15.299  1.00  0.00     0.039 C 
HETATM   14  C27 UNL     1      22.235  27.557  14.824  1.00  0.00     0.168 C 
HETATM   15  O2  UNL     1      21.232  28.075  14.031  1.00  0.00    -0.391 OA
HETATM   16  C28 UNL     1      19.983  27.948  14.575  1.00  0.00     0.168 C 
HETATM   17  C29 UNL     1      19.698  26.502  14.764  1.00  0.00     0.039 C 
BRANCH  12  18
HETATM   18  C20 UNL     1      20.199  26.316  17.147  1.00  0.00     0.283 C 
BRANCH  18  19
HETATM   19  N5  UNL     1      21.169  26.097  18.201  1.00  0.00     0.092 N 
HETATM   20  C21 UNL     1      21.295  27.257  19.111  1.00  0.00     0.302 C 
HETATM   21  C22 UNL     1      22.438  26.833  20.043  1.00  0.00     0.302 C 
HETATM   22  N6  UNL     1      22.196  25.660  20.805  1.00  0.00     0.087 N 
HETATM   23  C23 UNL     1      23.456  25.006  21.090  1.00  0.00     0.310 C 
HETATM   24  C24 UNL     1      21.363  24.672  20.174  1.00  0.00     0.302 C 
HETATM   25  C25 UNL     1      20.431  25.170  19.170  1.00  0.00     0.302 C 
ENDBRANCH  18  19
ENDBRANCH  12  18
ENDBRANCH  11  12
ENDBRANCH   7  11
BRANCH   3  26
HETATM   26  O1  UNL     1      14.747  22.221  14.731  1.00  0.00    -0.333 OA
BRANCH  26  27
HETATM   27  C11 UNL     1      13.612  21.982  14.185  1.00  0.00     0.213 C 
BRANCH  27  28
HETATM   28  C12 UNL     1      13.161  20.517  14.363  1.00  0.00     0.246 C 
HETATM   29  C13 UNL     1      13.326  20.008  15.717  1.00  0.00     0.040 C 
HETATM   30  C14 UNL     1      11.930  20.101  16.286  1.00  0.00     0.032 C 
HETATM   31  C15 UNL     1      11.080  20.715  15.167  1.00  0.00     0.272 C 
HETATM   32  N2  UNL     1      11.811  20.424  13.923  1.00  0.00     0.090 N 
HETATM   33  C16 UNL     1      11.321  19.229  13.337  1.00  0.00     0.310 C 
ENDBRANCH  27  28
ENDBRANCH  26  27
ENDBRANCH   3  26
BRANCH   1  34
HETATM   34  N1  UNL     1      17.682  21.560  18.489  1.00  0.00    -0.327 N 
ATOM     35  H1  UNL     1      18.647  21.356  18.747  1.00  0.00     0.169 HD
BRANCH  34  36
HETATM   36  C7  UNL     1      16.689  21.375  19.345  1.00  0.00     0.123 A 
HETATM   37  C6  UNL     1      15.984  20.218  19.479  1.00  0.00     0.076 A 
HETATM   38  C5  UNL     1      14.994  20.423  20.435  1.00  0.00     0.029 A 
HETATM   39  N9  UNL     1      15.130  21.675  20.842  1.00  0.00    -0.303 N 
HETATM   40  N8  UNL     1      16.133  22.247  20.204  1.00  0.00    -0.285 N 
ATOM     41  H9  UNL     1      14.547  22.131  21.545  1.00  0.00     0.186 HD
ATOM     42  H8  UNL     1      16.442  23.209  20.342  1.00  0.00     0.188 HD
BRANCH  38  43
HETATM   43  C4  UNL     1      14.074  19.376  20.887  1.00  0.00     0.058 C 
BRANCH  43  44
HETATM   44  C3  UNL     1      13.126  19.086  19.722  1.00  0.00     0.006 C 
BRANCH  44  45
HETATM   45  C2  UNL     1      13.122  17.588  19.436  1.00  0.00    -0.004 C 
HETATM   46  C1  UNL     1      14.240  17.236  18.475  1.00  0.00     0.005 C 
ENDBRANCH  44  45
ENDBRANCH  43  44
ENDBRANCH  38  43
ENDBRANCH  34  36
ENDBRANCH   1  34
TORSDOF 12
ENDMDL
