MODEL 1
REMARK VINA RESULT: -9.056136026      0.000      0.000
REMARK  14 active torsions:
REMARK  status: ('A' for Active; 'I' for Inactive)
REMARK    1  A    between atoms: O1_2  and  C2_3 
REMARK    2  A    between atoms: C7_10  and  N2_11 
REMARK    3  A    between atoms: N2_11  and  C8_12 
REMARK    4  A    between atoms: C8_12  and  C9_13 
REMARK    5  A    between atoms: C9_13  and  C10_14 
REMARK    6  A    between atoms: C10_14  and  N3_15 
REMARK    7  A    between atoms: N3_15  and  C11_17 
REMARK    8  A    between atoms: C12_20  and  N5_21 
REMARK    9  A    between atoms: N5_21  and  C13_23 
REMARK   10  A    between atoms: C13_23  and  C14_24 
REMARK   11  A    between atoms: C14_24  and  C15_25 
REMARK   12  A    between atoms: C15_25  and  N6_26 
REMARK   13  A    between atoms: N6_26  and  C17_28 
REMARK   14  A    between atoms: C23_38  and  O3_39 
ROOT
HETATM    1  C9  UNL     1      16.211  24.696  18.429  1.00  0.00     0.079 C 
ENDROOT
BRANCH   1   2
HETATM    2  C8  UNL     1      17.356  25.015  17.475  1.00  0.00     0.157 C 
BRANCH   2   3
HETATM    3  N2  UNL     1      18.562  24.745  17.999  1.00  0.00    -0.421 NA
BRANCH   3   4
HETATM    4  C7  UNL     1      19.655  24.850  18.499  1.00  0.00     0.126 A 
HETATM    5  C6  UNL     1      20.049  24.064  19.613  1.00  0.00     0.006 A 
HETATM    6  C5  UNL     1      21.277  24.174  20.193  1.00  0.00     0.019 A 
HETATM    7  C25 UNL     1      19.014  23.089  20.114  1.00  0.00     0.044 C 
HETATM    8  N1  UNL     1      22.140  25.062  19.686  1.00  0.00    -0.358 N 
HETATM    9  C28 UNL     1      21.688  23.341  21.371  1.00  0.00     0.057 C 
HETATM   10  C4  UNL     1      21.843  25.842  18.633  1.00  0.00     0.049 A 
ATOM     11  H1  UNL     1      23.060  25.151  20.116  1.00  0.00     0.166 HD
HETATM   12  C3  UNL     1      22.783  26.752  18.146  1.00  0.00     0.070 A 
HETATM   13  C21 UNL     1      20.613  25.756  18.025  1.00  0.00     0.035 A 
HETATM   14  C2  UNL     1      22.517  27.566  17.072  1.00  0.00     0.103 A 
HETATM   15  C23 UNL     1      21.293  27.491  16.454  1.00  0.00     0.102 A 
HETATM   16  C22 UNL     1      20.365  26.586  16.943  1.00  0.00     0.057 A 
HETATM   17  C27 UNL     1      20.825  22.123  21.462  1.00  0.00     0.006 C 
HETATM   18  C26 UNL     1      19.383  22.615  21.486  1.00  0.00     0.005 C 
BRANCH  14  19
HETATM   19  O1  UNL     1      23.484  28.451  16.629  1.00  0.00    -0.353 OA
HETATM   20  C1  UNL     1      24.840  28.139  16.538  1.00  0.00     0.210 C 
ENDBRANCH  14  19
BRANCH  15  21
HETATM   21  O3  UNL     1      21.054  28.314  15.386  1.00  0.00    -0.353 OA
HETATM   22  C24 UNL     1      20.753  27.846  14.083  1.00  0.00     0.210 C 
ENDBRANCH  15  21
ENDBRANCH   3   4
ENDBRANCH   2   3
ENDBRANCH   1   2
BRANCH   1  23
HETATM   23  C10 UNL     1      15.812  23.246  18.406  1.00  0.00     0.128 C 
BRANCH  23  24
HETATM   24  N3  UNL     1      14.461  23.006  17.988  1.00  0.00    -0.370 N 
ATOM     25  H3  UNL     1      13.676  23.433  18.478  1.00  0.00     0.161 HD
BRANCH  24  26
HETATM   26  C11 UNL     1      14.270  22.231  16.969  1.00  0.00     0.164 A 
HETATM   27  N4  UNL     1      13.364  21.234  16.935  1.00  0.00    -0.170 N 
HETATM   28  C12 UNL     1      13.129  20.418  15.921  1.00  0.00     0.683 A 
ATOM     29  H4  UNL     1      12.803  21.095  17.776  1.00  0.00     0.186 HD
HETATM   30  N7  UNL     1      13.746  20.419  14.724  1.00  0.00    -0.150 N 
HETATM   31  C20 UNL     1      14.720  21.260  14.346  1.00  0.00     0.305 A 
ATOM     32  H7  UNL     1      13.446  19.719  14.045  1.00  0.00     0.188 HD
HETATM   33  O2  UNL     1      15.246  21.185  13.188  1.00  0.00    -0.259 OA
HETATM   34  S1  UNL     1      15.166  22.399  15.531  1.00  0.00     0.008 SA
BRANCH  28  35
HETATM   35  N5  UNL     1      12.215  19.504  16.053  1.00  0.00    -0.226 N 
ATOM     36  H5  UNL     1      12.119  18.770  15.351  1.00  0.00     0.177 HD
BRANCH  35  37
HETATM   37  C13 UNL     1      11.342  19.531  17.190  1.00  0.00     0.140 C 
BRANCH  37  38
HETATM   38  C14 UNL     1      11.145  18.128  17.770  1.00  0.00     0.050 C 
BRANCH  38  39
HETATM   39  C15 UNL     1      12.408  17.651  18.425  1.00  0.00     0.274 C 
BRANCH  39  40
HETATM   40  N6  UNL     1      12.849  18.517  19.485  1.00  0.00     0.088 N 
HETATM   41  C16 UNL     1      12.082  18.366  20.690  1.00  0.00     0.310 C 
BRANCH  40  42
HETATM   42  C17 UNL     1      14.275  18.381  19.722  1.00  0.00     0.222 A 
HETATM   43  C18 UNL     1      15.148  19.596  19.604  1.00  0.00     0.038 A 
HETATM   44  C19 UNL     1      15.200  18.542  18.570  1.00  0.00     0.038 A 
ENDBRANCH  40  42
ENDBRANCH  39  40
ENDBRANCH  38  39
ENDBRANCH  37  38
ENDBRANCH  35  37
ENDBRANCH  28  35
ENDBRANCH  24  26
ENDBRANCH  23  24
ENDBRANCH   1  23
TORSDOF 14
ENDMDL
MODEL 2
REMARK VINA RESULT: -8.954184169      2.085      3.993
REMARK  14 active torsions:
REMARK  status: ('A' for Active; 'I' for Inactive)
REMARK    1  A    between atoms: O1_2  and  C2_3 
REMARK    2  A    between atoms: C7_10  and  N2_11 
REMARK    3  A    between atoms: N2_11  and  C8_12 
REMARK    4  A    between atoms: C8_12  and  C9_13 
REMARK    5  A    between atoms: C9_13  and  C10_14 
REMARK    6  A    between atoms: C10_14  and  N3_15 
REMARK    7  A    between atoms: N3_15  and  C11_17 
REMARK    8  A    between atoms: C12_20  and  N5_21 
REMARK    9  A    between atoms: N5_21  and  C13_23 
REMARK   10  A    between atoms: C13_23  and  C14_24 
REMARK   11  A    between atoms: C14_24  and  C15_25 
REMARK   12  A    between atoms: C15_25  and  N6_26 
REMARK   13  A    between atoms: N6_26  and  C17_28 
REMARK   14  A    between atoms: C23_38  and  O3_39 
ROOT
HETATM    1  C9  UNL     1      16.710  22.714  18.619  1.00  0.00     0.079 C 
ENDROOT
BRANCH   1   2
HETATM    2  C8  UNL     1      17.853  22.399  17.663  1.00  0.00     0.157 C 
BRANCH   2   3
HETATM    3  N2  UNL     1      18.634  23.463  17.415  1.00  0.00    -0.421 NA
BRANCH   3   4
HETATM    4  C7  UNL     1      19.334  24.437  17.541  1.00  0.00     0.126 A 
HETATM    5  C6  UNL     1      19.534  25.361  16.481  1.00  0.00     0.006 A 
HETATM    6  C5  UNL     1      20.326  26.461  16.604  1.00  0.00     0.019 A 
HETATM    7  C25 UNL     1      18.803  25.042  15.201  1.00  0.00     0.044 C 
HETATM    8  N1  UNL     1      20.938  26.674  17.776  1.00  0.00    -0.358 N 
HETATM    9  C28 UNL     1      20.534  27.434  15.481  1.00  0.00     0.057 C 
HETATM   10  C4  UNL     1      20.799  25.848  18.827  1.00  0.00     0.049 A 
ATOM     11  H1  UNL     1      21.533  27.496  17.875  1.00  0.00     0.166 HD
HETATM   12  C3  UNL     1      21.461  26.119  20.025  1.00  0.00     0.070 A 
HETATM   13  C21 UNL     1      20.007  24.728  18.735  1.00  0.00     0.035 A 
HETATM   14  C2  UNL     1      21.345  25.299  21.121  1.00  0.00     0.103 A 
HETATM   15  C23 UNL     1      20.557  24.177  21.045  1.00  0.00     0.102 A 
HETATM   16  C22 UNL     1      19.902  23.915  19.852  1.00  0.00     0.057 A 
HETATM   17  C27 UNL     1      19.428  27.306  14.483  1.00  0.00     0.006 C 
HETATM   18  C26 UNL     1      19.382  25.839  14.073  1.00  0.00     0.005 C 
BRANCH  14  19
HETATM   19  O1  UNL     1      22.023  25.614  22.286  1.00  0.00    -0.353 OA
HETATM   20  C1  UNL     1      21.940  26.851  22.924  1.00  0.00     0.210 C 
ENDBRANCH  14  19
BRANCH  15  21
HETATM   21  O3  UNL     1      20.458  23.377  22.152  1.00  0.00    -0.353 OA
HETATM   22  C24 UNL     1      20.117  22.003  22.102  1.00  0.00     0.210 C 
ENDBRANCH  15  21
ENDBRANCH   3   4
ENDBRANCH   2   3
ENDBRANCH   1   2
BRANCH   1  23
HETATM   23  C10 UNL     1      15.829  23.834  18.138  1.00  0.00     0.128 C 
BRANCH  23  24
HETATM   24  N3  UNL     1      14.494  23.439  17.796  1.00  0.00    -0.370 N 
ATOM     25  H3  UNL     1      13.688  23.853  18.264  1.00  0.00     0.161 HD
BRANCH  24  26
HETATM   26  C11 UNL     1      14.343  22.541  16.876  1.00  0.00     0.164 A 
HETATM   27  N4  UNL     1      13.581  21.438  17.012  1.00  0.00    -0.170 N 
HETATM   28  C12 UNL     1      13.393  20.495  16.105  1.00  0.00     0.683 A 
ATOM     29  H4  UNL     1      13.101  21.319  17.905  1.00  0.00     0.186 HD
HETATM   30  N7  UNL     1      13.924  20.447  14.868  1.00  0.00    -0.150 N 
HETATM   31  C20 UNL     1      14.748  21.360  14.333  1.00  0.00     0.305 A 
ATOM     32  H7  UNL     1      13.678  19.645  14.287  1.00  0.00     0.188 HD
HETATM   33  O2  UNL     1      15.202  21.229  13.150  1.00  0.00    -0.259 OA
HETATM   34  S1  UNL     1      15.112  22.668  15.362  1.00  0.00     0.008 SA
BRANCH  28  35
HETATM   35  N5  UNL     1      12.622  19.490  16.398  1.00  0.00    -0.226 N 
ATOM     36  H5  UNL     1      12.696  18.618  15.873  1.00  0.00     0.177 HD
BRANCH  35  37
HETATM   37  C13 UNL     1      11.669  19.612  17.461  1.00  0.00     0.140 C 
BRANCH  37  38
HETATM   38  C14 UNL     1      11.279  18.239  18.015  1.00  0.00     0.050 C 
BRANCH  38  39
HETATM   39  C15 UNL     1      12.478  17.550  18.596  1.00  0.00     0.274 C 
BRANCH  39  40
HETATM   40  N6  UNL     1      12.960  18.183  19.793  1.00  0.00     0.088 N 
HETATM   41  C16 UNL     1      12.353  17.664  20.987  1.00  0.00     0.310 C 
BRANCH  40  42
HETATM   42  C17 UNL     1      14.411  18.157  19.859  1.00  0.00     0.222 A 
HETATM   43  C18 UNL     1      15.170  19.423  19.591  1.00  0.00     0.038 A 
HETATM   44  C19 UNL     1      15.177  18.329  18.598  1.00  0.00     0.038 A 
ENDBRANCH  40  42
ENDBRANCH  39  40
ENDBRANCH  38  39
ENDBRANCH  37  38
ENDBRANCH  35  37
ENDBRANCH  28  35
ENDBRANCH  24  26
ENDBRANCH  23  24
ENDBRANCH   1  23
TORSDOF 14
ENDMDL
MODEL 3
REMARK VINA RESULT: -8.648888052      2.500      4.430
REMARK  14 active torsions:
REMARK  status: ('A' for Active; 'I' for Inactive)
REMARK    1  A    between atoms: O1_2  and  C2_3 
REMARK    2  A    between atoms: C7_10  and  N2_11 
REMARK    3  A    between atoms: N2_11  and  C8_12 
REMARK    4  A    between atoms: C8_12  and  C9_13 
REMARK    5  A    between atoms: C9_13  and  C10_14 
REMARK    6  A    between atoms: C10_14  and  N3_15 
REMARK    7  A    between atoms: N3_15  and  C11_17 
REMARK    8  A    between atoms: C12_20  and  N5_21 
REMARK    9  A    between atoms: N5_21  and  C13_23 
REMARK   10  A    between atoms: C13_23  and  C14_24 
REMARK   11  A    between atoms: C14_24  and  C15_25 
REMARK   12  A    between atoms: C15_25  and  N6_26 
REMARK   13  A    between atoms: N6_26  and  C17_28 
REMARK   14  A    between atoms: C23_38  and  O3_39 
ROOT
HETATM    1  C9  UNL     1      16.711  23.134  16.291  1.00  0.00     0.079 C 
ENDROOT
BRANCH   1   2
HETATM    2  C8  UNL     1      17.988  22.687  16.992  1.00  0.00     0.157 C 
BRANCH   2   3
HETATM    3  N2  UNL     1      18.929  23.644  17.021  1.00  0.00    -0.421 NA
BRANCH   3   4
HETATM    4  C7  UNL     1      19.577  24.620  17.309  1.00  0.00     0.126 A 
HETATM    5  C6  UNL     1      19.930  25.599  16.343  1.00  0.00     0.006 A 
HETATM    6  C5  UNL     1      20.665  26.703  16.650  1.00  0.00     0.019 A 
HETATM    7  C25 UNL     1      19.430  25.336  14.945  1.00  0.00     0.044 C 
HETATM    8  N1  UNL     1      21.068  26.864  17.917  1.00  0.00    -0.358 N 
HETATM    9  C28 UNL     1      21.035  27.735  15.626  1.00  0.00     0.057 C 
HETATM   10  C4  UNL     1      20.775  25.984  18.889  1.00  0.00     0.049 A 
ATOM     11  H1  UNL     1      21.620  27.689  18.154  1.00  0.00     0.166 HD
HETATM   12  C3  UNL     1      21.222  26.203  20.192  1.00  0.00     0.070 A 
HETATM   13  C21 UNL     1      20.035  24.860  18.612  1.00  0.00     0.035 A 
HETATM   14  C2  UNL     1      20.943  25.327  21.212  1.00  0.00     0.103 A 
HETATM   15  C23 UNL     1      20.204  24.199  20.952  1.00  0.00     0.102 A 
HETATM   16  C22 UNL     1      19.764  23.988  19.655  1.00  0.00     0.057 A 
HETATM   17  C27 UNL     1      20.114  27.642  14.452  1.00  0.00     0.006 C 
HETATM   18  C26 UNL     1      20.170  26.198  13.970  1.00  0.00     0.005 C 
BRANCH  14  19
HETATM   19  O1  UNL     1      21.411  25.591  22.488  1.00  0.00    -0.353 OA
HETATM   20  C1  UNL     1      21.974  26.807  22.874  1.00  0.00     0.210 C 
ENDBRANCH  14  19
BRANCH  15  21
HETATM   21  O3  UNL     1      19.941  23.342  21.987  1.00  0.00    -0.353 OA
HETATM   22  C24 UNL     1      20.056  21.933  21.891  1.00  0.00     0.210 C 
ENDBRANCH  15  21
ENDBRANCH   3   4
ENDBRANCH   2   3
ENDBRANCH   1   2
BRANCH   1  23
HETATM   23  C10 UNL     1      16.055  22.034  15.503  1.00  0.00     0.128 C 
BRANCH  23  24
HETATM   24  N3  UNL     1      14.712  22.318  15.086  1.00  0.00    -0.370 N 
ATOM     25  H3  UNL     1      14.480  23.199  14.629  1.00  0.00     0.161 HD
BRANCH  24  26
HETATM   26  C11 UNL     1      13.805  21.422  15.309  1.00  0.00     0.164 A 
HETATM   27  N4  UNL     1      13.325  21.117  16.530  1.00  0.00    -0.170 N 
HETATM   28  C12 UNL     1      12.400  20.214  16.809  1.00  0.00     0.683 A 
ATOM     29  H4  UNL     1      13.715  21.634  17.319  1.00  0.00     0.186 HD
HETATM   30  N7  UNL     1      11.755  19.421  15.932  1.00  0.00    -0.150 N 
HETATM   31  C20 UNL     1      11.941  19.409  14.604  1.00  0.00     0.305 A 
ATOM     32  H7  UNL     1      11.064  18.773  16.311  1.00  0.00     0.188 HD
HETATM   33  O2  UNL     1      11.282  18.620  13.851  1.00  0.00    -0.259 OA
HETATM   34  S1  UNL     1      13.108  20.517  14.046  1.00  0.00     0.008 SA
BRANCH  28  35
HETATM   35  N5  UNL     1      12.048  20.041  18.048  1.00  0.00    -0.226 N 
ATOM     36  H5  UNL     1      12.049  20.830  18.695  1.00  0.00     0.177 HD
BRANCH  35  37
HETATM   37  C13 UNL     1      11.660  18.738  18.502  1.00  0.00     0.140 C 
BRANCH  37  38
HETATM   38  C14 UNL     1      12.662  18.184  19.517  1.00  0.00     0.050 C 
BRANCH  38  39
HETATM   39  C15 UNL     1      13.643  19.247  19.917  1.00  0.00     0.274 C 
BRANCH  39  40
HETATM   40  N6  UNL     1      14.988  18.949  19.506  1.00  0.00     0.088 N 
HETATM   41  C16 UNL     1      15.080  17.763  18.701  1.00  0.00     0.310 C 
BRANCH  40  42
HETATM   42  C17 UNL     1      15.614  20.095  18.870  1.00  0.00     0.222 A 
HETATM   43  C18 UNL     1      16.750  20.781  19.569  1.00  0.00     0.038 A 
HETATM   44  C19 UNL     1      15.427  21.433  19.487  1.00  0.00     0.038 A 
ENDBRANCH  40  42
ENDBRANCH  39  40
ENDBRANCH  38  39
ENDBRANCH  37  38
ENDBRANCH  35  37
ENDBRANCH  28  35
ENDBRANCH  24  26
ENDBRANCH  23  24
ENDBRANCH   1  23
TORSDOF 14
ENDMDL
MODEL 4
REMARK VINA RESULT: -8.573442380      1.616      1.917
REMARK  14 active torsions:
REMARK  status: ('A' for Active; 'I' for Inactive)
REMARK    1  A    between atoms: O1_2  and  C2_3 
REMARK    2  A    between atoms: C7_10  and  N2_11 
REMARK    3  A    between atoms: N2_11  and  C8_12 
REMARK    4  A    between atoms: C8_12  and  C9_13 
REMARK    5  A    between atoms: C9_13  and  C10_14 
REMARK    6  A    between atoms: C10_14  and  N3_15 
REMARK    7  A    between atoms: N3_15  and  C11_17 
REMARK    8  A    between atoms: C12_20  and  N5_21 
REMARK    9  A    between atoms: N5_21  and  C13_23 
REMARK   10  A    between atoms: C13_23  and  C14_24 
REMARK   11  A    between atoms: C14_24  and  C15_25 
REMARK   12  A    between atoms: C15_25  and  N6_26 
REMARK   13  A    between atoms: N6_26  and  C17_28 
REMARK   14  A    between atoms: C23_38  and  O3_39 
ROOT
HETATM    1  C9  UNL     1      16.686  22.775  15.730  1.00  0.00     0.079 C 
ENDROOT
BRANCH   1   2
HETATM    2  C8  UNL     1      17.288  21.908  16.829  1.00  0.00     0.157 C 
BRANCH   2   3
HETATM    3  N2  UNL     1      18.348  22.478  17.422  1.00  0.00    -0.421 NA
BRANCH   3   4
HETATM    4  C7  UNL     1      19.053  23.197  18.088  1.00  0.00     0.126 A 
HETATM    5  C6  UNL     1      19.417  22.866  19.420  1.00  0.00     0.006 A 
HETATM    6  C5  UNL     1      20.206  23.669  20.187  1.00  0.00     0.019 A 
HETATM    7  C25 UNL     1      18.872  21.557  19.932  1.00  0.00     0.044 C 
HETATM    8  N1  UNL     1      20.652  24.814  19.655  1.00  0.00    -0.358 N 
HETATM    9  C28 UNL     1      20.587  23.315  21.594  1.00  0.00     0.057 C 
HETATM   10  C4  UNL     1      20.353  25.198  18.403  1.00  0.00     0.049 A 
ATOM     11  H1  UNL     1      21.242  25.420  20.225  1.00  0.00     0.166 HD
HETATM   12  C3  UNL     1      20.845  26.402  17.901  1.00  0.00     0.070 A 
HETATM   13  C21 UNL     1      19.559  24.410  17.603  1.00  0.00     0.035 A 
HETATM   14  C2  UNL     1      20.562  26.828  16.626  1.00  0.00     0.103 A 
HETATM   15  C23 UNL     1      19.770  26.053  15.815  1.00  0.00     0.102 A 
HETATM   16  C22 UNL     1      19.285  24.858  16.320  1.00  0.00     0.057 A 
HETATM   17  C27 UNL     1      20.423  21.846  21.814  1.00  0.00     0.006 C 
HETATM   18  C26 UNL     1      18.990  21.506  21.424  1.00  0.00     0.005 C 
BRANCH  14  19
HETATM   19  O1  UNL     1      21.076  28.033  16.177  1.00  0.00    -0.353 OA
HETATM   20  C1  UNL     1      22.439  28.323  16.118  1.00  0.00     0.210 C 
ENDBRANCH  14  19
BRANCH  15  21
HETATM   21  O3  UNL     1      19.503  26.501  14.549  1.00  0.00    -0.353 OA
HETATM   22  C24 UNL     1      18.219  26.458  13.953  1.00  0.00     0.210 C 
ENDBRANCH  15  21
ENDBRANCH   3   4
ENDBRANCH   2   3
ENDBRANCH   1   2
BRANCH   1  23
HETATM   23  C10 UNL     1      15.214  23.023  15.915  1.00  0.00     0.128 C 
BRANCH  23  24
HETATM   24  N3  UNL     1      14.545  22.059  16.741  1.00  0.00    -0.370 N 
ATOM     25  H3  UNL     1      14.720  22.017  17.745  1.00  0.00     0.161 HD
BRANCH  24  26
HETATM   26  C11 UNL     1      13.715  21.245  16.173  1.00  0.00     0.164 A 
HETATM   27  N4  UNL     1      12.751  20.568  16.827  1.00  0.00    -0.170 N 
HETATM   28  C12 UNL     1      11.879  19.728  16.293  1.00  0.00     0.683 A 
ATOM     29  H4  UNL     1      12.688  20.717  17.834  1.00  0.00     0.186 HD
HETATM   30  N7  UNL     1      11.780  19.384  14.995  1.00  0.00    -0.150 N 
HETATM   31  C20 UNL     1      12.560  19.838  14.002  1.00  0.00     0.305 A 
ATOM     32  H7  UNL     1      11.048  18.719  14.745  1.00  0.00     0.188 HD
HETATM   33  O2  UNL     1      12.390  19.453  12.800  1.00  0.00    -0.259 OA
HETATM   34  S1  UNL     1      13.757  20.943  14.497  1.00  0.00     0.008 SA
BRANCH  28  35
HETATM   35  N5  UNL     1      11.010  19.154  17.069  1.00  0.00    -0.226 N 
ATOM     36  H5  UNL     1      10.332  19.716  17.584  1.00  0.00     0.177 HD
BRANCH  35  37
HETATM   37  C13 UNL     1      11.007  17.726  17.199  1.00  0.00     0.140 C 
BRANCH  37  38
HETATM   38  C14 UNL     1      11.459  17.297  18.597  1.00  0.00     0.050 C 
BRANCH  38  39
HETATM   39  C15 UNL     1      12.951  17.405  18.721  1.00  0.00     0.274 C 
BRANCH  39  40
HETATM   40  N6  UNL     1      13.362  18.406  19.666  1.00  0.00     0.088 N 
HETATM   41  C16 UNL     1      12.797  18.212  20.972  1.00  0.00     0.310 C 
BRANCH  40  42
HETATM   42  C17 UNL     1      14.808  18.535  19.707  1.00  0.00     0.222 A 
HETATM   43  C18 UNL     1      15.421  19.890  19.510  1.00  0.00     0.038 A 
HETATM   44  C19 UNL     1      15.523  18.868  18.448  1.00  0.00     0.038 A 
ENDBRANCH  40  42
ENDBRANCH  39  40
ENDBRANCH  38  39
ENDBRANCH  37  38
ENDBRANCH  35  37
ENDBRANCH  28  35
ENDBRANCH  24  26
ENDBRANCH  23  24
ENDBRANCH   1  23
TORSDOF 14
ENDMDL
MODEL 5
REMARK VINA RESULT: -8.546734477      2.263      4.418
REMARK  14 active torsions:
REMARK  status: ('A' for Active; 'I' for Inactive)
REMARK    1  A    between atoms: O1_2  and  C2_3 
REMARK    2  A    between atoms: C7_10  and  N2_11 
REMARK    3  A    between atoms: N2_11  and  C8_12 
REMARK    4  A    between atoms: C8_12  and  C9_13 
REMARK    5  A    between atoms: C9_13  and  C10_14 
REMARK    6  A    between atoms: C10_14  and  N3_15 
REMARK    7  A    between atoms: N3_15  and  C11_17 
REMARK    8  A    between atoms: C12_20  and  N5_21 
REMARK    9  A    between atoms: N5_21  and  C13_23 
REMARK   10  A    between atoms: C13_23  and  C14_24 
REMARK   11  A    between atoms: C14_24  and  C15_25 
REMARK   12  A    between atoms: C15_25  and  N6_26 
REMARK   13  A    between atoms: N6_26  and  C17_28 
REMARK   14  A    between atoms: C23_38  and  O3_39 
ROOT
HETATM    1  C9  UNL     1      16.948  23.891  16.562  1.00  0.00     0.079 C 
ENDROOT
BRANCH   1   2
HETATM    2  C8  UNL     1      18.260  23.145  16.774  1.00  0.00     0.157 C 
BRANCH   2   3
HETATM    3  N2  UNL     1      19.295  23.966  17.010  1.00  0.00    -0.421 NA
BRANCH   3   4
HETATM    4  C7  UNL     1      19.971  24.908  17.347  1.00  0.00     0.126 A 
HETATM    5  C6  UNL     1      20.411  25.887  16.419  1.00  0.00     0.006 A 
HETATM    6  C5  UNL     1      21.179  26.951  16.782  1.00  0.00     0.019 A 
HETATM    7  C25 UNL     1      19.968  25.671  14.994  1.00  0.00     0.044 C 
HETATM    8  N1  UNL     1      21.528  27.071  18.069  1.00  0.00    -0.358 N 
HETATM    9  C28 UNL     1      21.643  27.983  15.796  1.00  0.00     0.057 C 
HETATM   10  C4  UNL     1      21.151  26.188  19.008  1.00  0.00     0.049 A 
ATOM     11  H1  UNL     1      22.104  27.865  18.347  1.00  0.00     0.166 HD
HETATM   12  C3  UNL     1      21.544  26.364  20.335  1.00  0.00     0.070 A 
HETATM   13  C21 UNL     1      20.375  25.103  18.675  1.00  0.00     0.035 A 
HETATM   14  C2  UNL     1      21.179  25.483  21.324  1.00  0.00     0.103 A 
HETATM   15  C23 UNL     1      20.404  24.394  21.006  1.00  0.00     0.102 A 
HETATM   16  C22 UNL     1      20.017  24.227  19.687  1.00  0.00     0.057 A 
HETATM   17  C27 UNL     1      20.775  27.952  14.579  1.00  0.00     0.006 C 
HETATM   18  C26 UNL     1      20.791  26.516  14.071  1.00  0.00     0.005 C 
BRANCH  14  19
HETATM   19  O1  UNL     1      21.596  25.703  22.625  1.00  0.00    -0.353 OA
HETATM   20  C1  UNL     1      21.891  26.963  23.144  1.00  0.00     0.210 C 
ENDBRANCH  14  19
BRANCH  15  21
HETATM   21  O3  UNL     1      20.054  23.532  22.011  1.00  0.00    -0.353 OA
HETATM   22  C24 UNL     1      20.077  22.121  21.881  1.00  0.00     0.210 C 
ENDBRANCH  15  21
ENDBRANCH   3   4
ENDBRANCH   2   3
ENDBRANCH   1   2
BRANCH   1  23
HETATM   23  C10 UNL     1      16.136  24.028  17.821  1.00  0.00     0.128 C 
BRANCH  23  24
HETATM   24  N3  UNL     1      14.742  23.733  17.666  1.00  0.00    -0.370 N 
ATOM     25  H3  UNL     1      14.028  24.392  17.976  1.00  0.00     0.161 HD
BRANCH  24  26
HETATM   26  C11 UNL     1      14.417  22.604  17.123  1.00  0.00     0.164 A 
HETATM   27  N4  UNL     1      14.580  21.404  17.714  1.00  0.00    -0.170 N 
HETATM   28  C12 UNL     1      14.263  20.226  17.203  1.00  0.00     0.683 A 
ATOM     29  H4  UNL     1      14.989  21.404  18.648  1.00  0.00     0.186 HD
HETATM   30  N7  UNL     1      13.717  19.990  15.995  1.00  0.00    -0.150 N 
HETATM   31  C20 UNL     1      13.394  20.922  15.085  1.00  0.00     0.305 A 
ATOM     32  H7  UNL     1      13.532  19.017  15.749  1.00  0.00     0.188 HD
HETATM   33  O2  UNL     1      12.880  20.603  13.965  1.00  0.00    -0.259 OA
HETATM   34  S1  UNL     1      13.731  22.521  15.566  1.00  0.00     0.008 SA
BRANCH  28  35
HETATM   35  N5  UNL     1      14.487  19.158  17.908  1.00  0.00    -0.226 N 
ATOM     36  H5  UNL     1      14.206  18.243  17.556  1.00  0.00     0.177 HD
BRANCH  35  37
HETATM   37  C13 UNL     1      15.131  19.271  19.184  1.00  0.00     0.140 C 
BRANCH  37  38
HETATM   38  C14 UNL     1      14.278  18.648  20.292  1.00  0.00     0.050 C 
BRANCH  38  39
HETATM   39  C15 UNL     1      12.824  18.700  19.924  1.00  0.00     0.274 C 
BRANCH  39  40
HETATM   40  N6  UNL     1      12.180  17.418  20.005  1.00  0.00     0.088 N 
HETATM   41  C16 UNL     1      11.831  17.048  21.348  1.00  0.00     0.310 C 
BRANCH  40  42
HETATM   42  C17 UNL     1      11.047  17.335  19.101  1.00  0.00     0.222 A 
HETATM   43  C18 UNL     1      11.147  16.449  17.894  1.00  0.00     0.038 A 
HETATM   44  C19 UNL     1      11.186  17.918  17.741  1.00  0.00     0.038 A 
ENDBRANCH  40  42
ENDBRANCH  39  40
ENDBRANCH  38  39
ENDBRANCH  37  38
ENDBRANCH  35  37
ENDBRANCH  28  35
ENDBRANCH  24  26
ENDBRANCH  23  24
ENDBRANCH   1  23
TORSDOF 14
ENDMDL
