MODEL 1
REMARK VINA RESULT: -8.792345369      0.000      0.000
REMARK  13 active torsions:
REMARK  status: ('A' for Active; 'I' for Inactive)
REMARK    1  A    between atoms: C4_4  and  O1_5 
REMARK    2  A    between atoms: C5_7  and  O2_8 
REMARK    3  A    between atoms: C6_10  and  N1_11 
REMARK    4  A    between atoms: C8_13  and  C9_14 
REMARK    5  A    between atoms: C9_14  and  C10_15 
REMARK    6  A    between atoms: C10_15  and  C11_16 
REMARK    7  A    between atoms: C11_16  and  C12_17 
REMARK    8  A    between atoms: C12_17  and  C13_18 
REMARK    9  A    between atoms: C13_18  and  C14_19 
REMARK   10  A    between atoms: C14_19  and  C15_20 
REMARK   11  A    between atoms: C15_20  and  N2_21 
REMARK       I    between atoms: N6_32  and  C19_33 
REMARK   12  A    between atoms: C19_33  and  C20_35 
REMARK   13  A    between atoms: N7_37  and  C22_38 
ROOT
HETATM    1  C1  UNL     1      17.329  21.465  16.033  1.00  0.00     0.032 C 
HETATM    2  C2  UNL     1      16.757  22.665  16.765  1.00  0.00     0.087 C 
HETATM    3  C3  UNL     1      15.778  23.441  15.873  1.00  0.00     0.059 C 
HETATM    4  C4  UNL     1      14.487  22.735  15.662  1.00  0.00     0.152 C 
HETATM    5  C5  UNL     1      14.109  21.722  16.685  1.00  0.00     0.191 C 
HETATM    6  C6  UNL     1      14.786  21.794  17.994  1.00  0.00     0.243 C 
HETATM    7  N6  UNL     1      16.118  22.320  18.014  1.00  0.00    -0.322 N 
HETATM    8  C19 UNL     1      16.756  22.496  19.266  1.00  0.00     0.227 C 
HETATM    9  O4  UNL     1      16.177  22.158  20.359  1.00  0.00    -0.273 OA
ENDROOT
BRANCH   6  10
HETATM   10  N1  UNL     1      14.642  20.511  18.661  1.00  0.00    -0.261 N 
HETATM   11  C7  UNL     1      13.710  20.011  19.463  1.00  0.00     0.140 A 
HETATM   12  C8  UNL     1      14.081  18.728  19.807  1.00  0.00     0.044 A 
HETATM   13  N4  UNL     1      15.234  18.504  19.194  1.00  0.00    -0.289 N 
HETATM   14  N5  UNL     1      15.576  19.556  18.512  1.00  0.00    -0.239 N 
ATOM     15  H4  UNL     1      15.771  17.638  19.250  1.00  0.00     0.188 HD
ATOM     16  H5  UNL     1      16.423  19.642  17.950  1.00  0.00     0.208 HD
BRANCH  12  17
HETATM   17  C9  UNL     1      13.379  17.752  20.675  1.00  0.00     0.060 C 
BRANCH  17  18
HETATM   18  C10 UNL     1      11.902  17.947  20.751  1.00  0.00     0.006 C 
BRANCH  18  19
HETATM   19  C11 UNL     1      11.104  17.073  19.829  1.00  0.00     0.000 C 
BRANCH  19  20
HETATM   20  C12 UNL     1      10.090  16.268  20.605  1.00  0.00     0.000 C 
BRANCH  20  21
HETATM   21  C13 UNL     1       9.216  15.463  19.689  1.00  0.00     0.002 C 
BRANCH  21  22
HETATM   22  C14 UNL     1       9.957  14.837  18.551  1.00  0.00     0.020 C 
BRANCH  22  23
HETATM   23  C15 UNL     1       9.278  15.139  17.230  1.00  0.00     0.127 C 
BRANCH  23  24
HETATM   24  N2  UNL     1      10.209  15.357  16.155  1.00  0.00    -0.333 N 
HETATM   25  C16 UNL     1      10.839  14.441  15.237  1.00  0.00     0.147 C 
HETATM   26  C17 UNL     1      11.210  15.296  14.045  1.00  0.00     0.144 C 
HETATM   27  N3  UNL     1      11.482  16.591  14.636  1.00  0.00    -0.341 N 
HETATM   28  C18 UNL     1      10.693  16.649  15.805  1.00  0.00     0.318 C 
ATOM     29  H3  UNL     1      12.113  17.309  14.281  1.00  0.00     0.164 HD
HETATM   30  O3  UNL     1      10.463  17.735  16.437  1.00  0.00    -0.247 OA
ENDBRANCH  23  24
ENDBRANCH  22  23
ENDBRANCH  21  22
ENDBRANCH  20  21
ENDBRANCH  19  20
ENDBRANCH  18  19
ENDBRANCH  17  18
ENDBRANCH  12  17
ENDBRANCH   6  10
BRANCH   5  31
HETATM   31  O2  UNL     1      14.106  20.472  16.070  1.00  0.00    -0.389 OA
ATOM     32  H2  UNL     1      14.593  19.874  16.623  1.00  0.00     0.210 HD
ENDBRANCH   5  31
BRANCH   4  33
HETATM   33  O1  UNL     1      13.493  23.731  15.493  1.00  0.00    -0.393 OA
ATOM     34  H1  UNL     1      12.907  23.669  16.239  1.00  0.00     0.210 HD
ENDBRANCH   4  33
BRANCH   8  35
HETATM   35  C20 UNL     1      18.108  23.070  19.464  1.00  0.00     0.098 C 
HETATM   36  C21 UNL     1      18.189  23.837  20.744  1.00  0.00     0.132 C 
HETATM   37  N7  UNL     1      19.607  23.846  21.040  1.00  0.00    -0.400 N 
HETATM   38  C25 UNL     1      20.085  22.605  20.741  1.00  0.00     0.021 C 
HETATM   39  C26 UNL     1      19.878  21.716  21.982  1.00  0.00     0.038 C 
HETATM   40  C27 UNL     1      21.529  22.419  20.353  1.00  0.00     0.038 C 
HETATM   41  C28 UNL     1      19.162  22.009  19.671  1.00  0.00     0.045 C 
BRANCH  37  42
HETATM   42  C22 UNL     1      20.176  25.078  20.883  1.00  0.00     0.071 C 
HETATM   43  C23 UNL     1      21.154  25.343  22.038  1.00  0.00     0.031 C 
HETATM   44  C24 UNL     1      20.886  25.482  19.645  1.00  0.00     0.031 C 
ENDBRANCH  37  42
ENDBRANCH   8  35
TORSDOF 13
ENDMDL
MODEL 2
REMARK VINA RESULT: -8.597172666      3.630     11.374
REMARK  13 active torsions:
REMARK  status: ('A' for Active; 'I' for Inactive)
REMARK    1  A    between atoms: C4_4  and  O1_5 
REMARK    2  A    between atoms: C5_7  and  O2_8 
REMARK    3  A    between atoms: C6_10  and  N1_11 
REMARK    4  A    between atoms: C8_13  and  C9_14 
REMARK    5  A    between atoms: C9_14  and  C10_15 
REMARK    6  A    between atoms: C10_15  and  C11_16 
REMARK    7  A    between atoms: C11_16  and  C12_17 
REMARK    8  A    between atoms: C12_17  and  C13_18 
REMARK    9  A    between atoms: C13_18  and  C14_19 
REMARK   10  A    between atoms: C14_19  and  C15_20 
REMARK   11  A    between atoms: C15_20  and  N2_21 
REMARK       I    between atoms: N6_32  and  C19_33 
REMARK   12  A    between atoms: C19_33  and  C20_35 
REMARK   13  A    between atoms: N7_37  and  C22_38 
ROOT
HETATM    1  C1  UNL     1      18.784  21.454  18.943  1.00  0.00     0.032 C 
HETATM    2  C2  UNL     1      17.524  22.297  19.011  1.00  0.00     0.087 C 
HETATM    3  C3  UNL     1      17.358  22.931  20.399  1.00  0.00     0.059 C 
HETATM    4  C4  UNL     1      18.320  24.034  20.661  1.00  0.00     0.152 C 
HETATM    5  C5  UNL     1      18.904  24.705  19.468  1.00  0.00     0.191 C 
HETATM    6  C6  UNL     1      18.200  24.536  18.182  1.00  0.00     0.243 C 
HETATM    7  N6  UNL     1      17.467  23.320  17.992  1.00  0.00    -0.322 N 
HETATM    8  C19 UNL     1      16.698  23.172  16.811  1.00  0.00     0.227 C 
HETATM    9  O4  UNL     1      16.685  24.083  15.910  1.00  0.00    -0.273 OA
ENDROOT
BRANCH   6  10
HETATM   10  N1  UNL     1      19.121  24.851  17.104  1.00  0.00    -0.261 N 
HETATM   11  C7  UNL     1      19.288  25.927  16.346  1.00  0.00     0.140 A 
HETATM   12  C8  UNL     1      20.326  25.681  15.471  1.00  0.00     0.044 A 
HETATM   13  N4  UNL     1      20.746  24.453  15.738  1.00  0.00    -0.289 N 
HETATM   14  N5  UNL     1      20.038  23.951  16.706  1.00  0.00    -0.239 N 
ATOM     15  H4  UNL     1      21.508  23.975  15.258  1.00  0.00     0.188 HD
ATOM     16  H5  UNL     1      20.159  23.018  17.101  1.00  0.00     0.208 HD
BRANCH  12  17
HETATM   17  C9  UNL     1      20.899  26.565  14.428  1.00  0.00     0.060 C 
BRANCH  17  18
HETATM   18  C10 UNL     1      21.231  27.940  14.900  1.00  0.00     0.006 C 
BRANCH  18  19
HETATM   19  C11 UNL     1      22.278  28.001  15.972  1.00  0.00     0.000 C 
BRANCH  19  20
HETATM   20  C12 UNL     1      23.503  27.220  15.564  1.00  0.00     0.000 C 
BRANCH  20  21
HETATM   21  C13 UNL     1      24.337  26.850  16.755  1.00  0.00     0.002 C 
BRANCH  21  22
HETATM   22  C14 UNL     1      23.540  26.314  17.901  1.00  0.00     0.020 C 
BRANCH  22  23
HETATM   23  C15 UNL     1      23.942  26.980  19.202  1.00  0.00     0.127 C 
BRANCH  23  24
HETATM   24  N2  UNL     1      22.969  26.807  20.248  1.00  0.00    -0.333 N 
HETATM   25  C16 UNL     1      23.084  26.263  21.578  1.00  0.00     0.147 C 
HETATM   26  C17 UNL     1      21.928  26.876  22.338  1.00  0.00     0.144 C 
HETATM   27  N3  UNL     1      20.908  27.036  21.320  1.00  0.00    -0.341 N 
HETATM   28  C18 UNL     1      21.606  27.192  20.104  1.00  0.00     0.318 C 
ATOM     29  H3  UNL     1      19.897  27.036  21.456  1.00  0.00     0.164 HD
HETATM   30  O3  UNL     1      21.056  27.624  19.034  1.00  0.00    -0.247 OA
ENDBRANCH  23  24
ENDBRANCH  22  23
ENDBRANCH  21  22
ENDBRANCH  20  21
ENDBRANCH  19  20
ENDBRANCH  18  19
ENDBRANCH  17  18
ENDBRANCH  12  17
ENDBRANCH   6  10
BRANCH   5  31
HETATM   31  O2  UNL     1      20.270  24.437  19.452  1.00  0.00    -0.389 OA
ATOM     32  H2  UNL     1      20.716  25.211  19.129  1.00  0.00     0.210 HD
ENDBRANCH   5  31
BRANCH   4  33
HETATM   33  O1  UNL     1      17.676  24.946  21.534  1.00  0.00    -0.393 OA
ATOM     34  H1  UNL     1      18.359  25.436  21.978  1.00  0.00     0.210 HD
ENDBRANCH   4  33
BRANCH   8  35
HETATM   35  C20 UNL     1      15.849  22.002  16.485  1.00  0.00     0.098 C 
HETATM   36  C21 UNL     1      14.554  22.049  17.227  1.00  0.00     0.132 C 
HETATM   37  N7  UNL     1      13.680  21.212  16.430  1.00  0.00    -0.400 N 
HETATM   38  C25 UNL     1      13.941  21.495  15.122  1.00  0.00     0.021 C 
HETATM   39  C26 UNL     1      13.070  22.703  14.726  1.00  0.00     0.038 C 
HETATM   40  C27 UNL     1      13.695  20.459  14.057  1.00  0.00     0.038 C 
HETATM   41  C28 UNL     1      15.384  22.008  15.048  1.00  0.00     0.045 C 
BRANCH  37  42
HETATM   42  C22 UNL     1      13.376  20.027  17.038  1.00  0.00     0.071 C 
HETATM   43  C23 UNL     1      13.845  20.065  18.501  1.00  0.00     0.031 C 
HETATM   44  C24 UNL     1      12.003  19.467  17.063  1.00  0.00     0.031 C 
ENDBRANCH  37  42
ENDBRANCH   8  35
TORSDOF 13
ENDMDL
MODEL 3
REMARK VINA RESULT: -8.585777275      0.789      1.011
REMARK  13 active torsions:
REMARK  status: ('A' for Active; 'I' for Inactive)
REMARK    1  A    between atoms: C4_4  and  O1_5 
REMARK    2  A    between atoms: C5_7  and  O2_8 
REMARK    3  A    between atoms: C6_10  and  N1_11 
REMARK    4  A    between atoms: C8_13  and  C9_14 
REMARK    5  A    between atoms: C9_14  and  C10_15 
REMARK    6  A    between atoms: C10_15  and  C11_16 
REMARK    7  A    between atoms: C11_16  and  C12_17 
REMARK    8  A    between atoms: C12_17  and  C13_18 
REMARK    9  A    between atoms: C13_18  and  C14_19 
REMARK   10  A    between atoms: C14_19  and  C15_20 
REMARK   11  A    between atoms: C15_20  and  N2_21 
REMARK       I    between atoms: N6_32  and  C19_33 
REMARK   12  A    between atoms: C19_33  and  C20_35 
REMARK   13  A    between atoms: N7_37  and  C22_38 
ROOT
HETATM    1  C1  UNL     1      17.380  21.522  16.048  1.00  0.00     0.032 C 
HETATM    2  C2  UNL     1      16.819  22.734  16.769  1.00  0.00     0.087 C 
HETATM    3  C3  UNL     1      15.845  23.509  15.871  1.00  0.00     0.059 C 
HETATM    4  C4  UNL     1      14.548  22.812  15.668  1.00  0.00     0.152 C 
HETATM    5  C5  UNL     1      14.163  21.811  16.700  1.00  0.00     0.191 C 
HETATM    6  C6  UNL     1      14.842  21.890  18.008  1.00  0.00     0.243 C 
HETATM    7  N6  UNL     1      16.178  22.405  18.022  1.00  0.00    -0.322 N 
HETATM    8  C19 UNL     1      16.819  22.588  19.272  1.00  0.00     0.227 C 
HETATM    9  O4  UNL     1      16.239  22.265  20.368  1.00  0.00    -0.273 OA
ENDROOT
BRANCH   6  10
HETATM   10  N1  UNL     1      14.688  20.615  18.687  1.00  0.00    -0.261 N 
HETATM   11  C7  UNL     1      13.736  20.117  19.465  1.00  0.00     0.140 A 
HETATM   12  C8  UNL     1      14.106  18.842  19.838  1.00  0.00     0.044 A 
HETATM   13  N4  UNL     1      15.281  18.620  19.265  1.00  0.00    -0.289 N 
HETATM   14  N5  UNL     1      15.636  19.666  18.580  1.00  0.00    -0.239 N 
ATOM     15  H4  UNL     1      15.823  17.761  19.350  1.00  0.00     0.188 HD
ATOM     16  H5  UNL     1      16.499  19.754  18.045  1.00  0.00     0.208 HD
BRANCH  12  17
HETATM   17  C9  UNL     1      13.385  17.871  20.695  1.00  0.00     0.060 C 
BRANCH  17  18
HETATM   18  C10 UNL     1      11.906  18.052  20.721  1.00  0.00     0.006 C 
BRANCH  18  19
HETATM   19  C11 UNL     1      11.123  16.796  20.968  1.00  0.00     0.000 C 
BRANCH  19  20
HETATM   20  C12 UNL     1      10.278  16.452  19.766  1.00  0.00     0.000 C 
BRANCH  20  21
HETATM   21  C13 UNL     1      10.705  17.231  18.557  1.00  0.00     0.002 C 
BRANCH  21  22
HETATM   22  C14 UNL     1      11.202  16.374  17.436  1.00  0.00     0.020 C 
BRANCH  22  23
HETATM   23  C15 UNL     1      10.290  16.475  16.230  1.00  0.00     0.127 C 
BRANCH  23  24
HETATM   24  N2  UNL     1      11.009  16.626  14.992  1.00  0.00    -0.333 N 
HETATM   25  C16 UNL     1      11.413  15.663  13.999  1.00  0.00     0.147 C 
HETATM   26  C17 UNL     1      11.587  16.475  12.734  1.00  0.00     0.144 C 
HETATM   27  N3  UNL     1      12.020  17.768  13.225  1.00  0.00    -0.341 N 
HETATM   28  C18 UNL     1      11.471  17.887  14.519  1.00  0.00     0.318 C 
ATOM     29  H3  UNL     1      12.602  18.449  12.736  1.00  0.00     0.164 HD
HETATM   30  O3  UNL     1      11.411  18.995  15.152  1.00  0.00    -0.247 OA
ENDBRANCH  23  24
ENDBRANCH  22  23
ENDBRANCH  21  22
ENDBRANCH  20  21
ENDBRANCH  19  20
ENDBRANCH  18  19
ENDBRANCH  17  18
ENDBRANCH  12  17
ENDBRANCH   6  10
BRANCH   5  31
HETATM   31  O2  UNL     1      14.150  20.556  16.096  1.00  0.00    -0.389 OA
ATOM     32  H2  UNL     1      13.920  19.916  16.760  1.00  0.00     0.210 HD
ENDBRANCH   5  31
BRANCH   4  33
HETATM   33  O1  UNL     1      13.562  23.814  15.490  1.00  0.00    -0.393 OA
ATOM     34  H1  UNL     1      14.003  24.579  15.139  1.00  0.00     0.210 HD
ENDBRANCH   4  33
BRANCH   8  35
HETATM   35  C20 UNL     1      18.176  23.153  19.463  1.00  0.00     0.098 C 
HETATM   36  C21 UNL     1      18.264  23.928  20.737  1.00  0.00     0.132 C 
HETATM   37  N7  UNL     1      19.683  23.929  21.031  1.00  0.00    -0.400 N 
HETATM   38  C25 UNL     1      20.151  22.681  20.740  1.00  0.00     0.021 C 
HETATM   39  C26 UNL     1      19.939  21.804  21.989  1.00  0.00     0.038 C 
HETATM   40  C27 UNL     1      21.593  22.482  20.352  1.00  0.00     0.038 C 
HETATM   41  C28 UNL     1      19.221  22.085  19.676  1.00  0.00     0.045 C 
BRANCH  37  42
HETATM   42  C22 UNL     1      20.262  25.155  20.864  1.00  0.00     0.071 C 
HETATM   43  C23 UNL     1      21.251  25.417  22.010  1.00  0.00     0.031 C 
HETATM   44  C24 UNL     1      20.966  25.547  19.618  1.00  0.00     0.031 C 
ENDBRANCH  37  42
ENDBRANCH   8  35
TORSDOF 13
ENDMDL
MODEL 4
REMARK VINA RESULT: -8.494275114      3.636     11.486
REMARK  13 active torsions:
REMARK  status: ('A' for Active; 'I' for Inactive)
REMARK    1  A    between atoms: C4_4  and  O1_5 
REMARK    2  A    between atoms: C5_7  and  O2_8 
REMARK    3  A    between atoms: C6_10  and  N1_11 
REMARK    4  A    between atoms: C8_13  and  C9_14 
REMARK    5  A    between atoms: C9_14  and  C10_15 
REMARK    6  A    between atoms: C10_15  and  C11_16 
REMARK    7  A    between atoms: C11_16  and  C12_17 
REMARK    8  A    between atoms: C12_17  and  C13_18 
REMARK    9  A    between atoms: C13_18  and  C14_19 
REMARK   10  A    between atoms: C14_19  and  C15_20 
REMARK   11  A    between atoms: C15_20  and  N2_21 
REMARK       I    between atoms: N6_32  and  C19_33 
REMARK   12  A    between atoms: C19_33  and  C20_35 
REMARK   13  A    between atoms: N7_37  and  C22_38 
ROOT
HETATM    1  C1  UNL     1      18.803  21.439  18.899  1.00  0.00     0.032 C 
HETATM    2  C2  UNL     1      17.546  22.283  18.983  1.00  0.00     0.087 C 
HETATM    3  C3  UNL     1      17.397  22.916  20.374  1.00  0.00     0.059 C 
HETATM    4  C4  UNL     1      18.363  24.017  20.627  1.00  0.00     0.152 C 
HETATM    5  C5  UNL     1      18.934  24.689  19.427  1.00  0.00     0.191 C 
HETATM    6  C6  UNL     1      18.215  24.523  18.149  1.00  0.00     0.243 C 
HETATM    7  N6  UNL     1      17.478  23.308  17.966  1.00  0.00    -0.322 N 
HETATM    8  C19 UNL     1      16.696  23.163  16.794  1.00  0.00     0.227 C 
HETATM    9  O4  UNL     1      16.673  24.076  15.895  1.00  0.00    -0.273 OA
ENDROOT
BRANCH   6  10
HETATM   10  N1  UNL     1      19.124  24.838  17.062  1.00  0.00    -0.261 N 
HETATM   11  C7  UNL     1      19.282  25.914  16.302  1.00  0.00     0.140 A 
HETATM   12  C8  UNL     1      20.310  25.669  15.416  1.00  0.00     0.044 A 
HETATM   13  N4  UNL     1      20.734  24.441  15.678  1.00  0.00    -0.289 N 
HETATM   14  N5  UNL     1      20.037  23.939  16.653  1.00  0.00    -0.239 N 
ATOM     15  H4  UNL     1      21.491  23.964  15.189  1.00  0.00     0.188 HD
ATOM     16  H5  UNL     1      20.163  23.006  17.047  1.00  0.00     0.208 HD
BRANCH  12  17
HETATM   17  C9  UNL     1      20.872  26.553  14.366  1.00  0.00     0.060 C 
BRANCH  17  18
HETATM   18  C10 UNL     1      21.148  27.946  14.818  1.00  0.00     0.006 C 
BRANCH  18  19
HETATM   19  C11 UNL     1      22.145  28.060  15.933  1.00  0.00     0.000 C 
BRANCH  19  20
HETATM   20  C12 UNL     1      23.404  27.297  15.601  1.00  0.00     0.000 C 
BRANCH  20  21
HETATM   21  C13 UNL     1      24.019  26.695  16.830  1.00  0.00     0.002 C 
BRANCH  21  22
HETATM   22  C14 UNL     1      23.068  26.575  17.978  1.00  0.00     0.020 C 
BRANCH  22  23
HETATM   23  C15 UNL     1      23.805  26.246  19.261  1.00  0.00     0.127 C 
BRANCH  23  24
HETATM   24  N2  UNL     1      23.075  26.625  20.443  1.00  0.00    -0.333 N 
HETATM   25  C16 UNL     1      21.830  27.330  20.610  1.00  0.00     0.147 C 
HETATM   26  C17 UNL     1      21.336  26.907  21.976  1.00  0.00     0.144 C 
HETATM   27  N3  UNL     1      22.561  26.686  22.719  1.00  0.00    -0.341 N 
HETATM   28  C18 UNL     1      23.528  26.322  21.758  1.00  0.00     0.318 C 
ATOM     29  H3  UNL     1      22.695  26.776  23.726  1.00  0.00     0.164 HD
HETATM   30  O3  UNL     1      24.649  25.791  22.063  1.00  0.00    -0.247 OA
ENDBRANCH  23  24
ENDBRANCH  22  23
ENDBRANCH  21  22
ENDBRANCH  20  21
ENDBRANCH  19  20
ENDBRANCH  18  19
ENDBRANCH  17  18
ENDBRANCH  12  17
ENDBRANCH   6  10
BRANCH   5  31
HETATM   31  O2  UNL     1      20.300  24.419  19.396  1.00  0.00    -0.389 OA
ATOM     32  H2  UNL     1      20.753  25.162  19.777  1.00  0.00     0.210 HD
ENDBRANCH   5  31
BRANCH   4  33
HETATM   33  O1  UNL     1      17.731  24.929  21.509  1.00  0.00    -0.393 OA
ATOM     34  H1  UNL     1      18.103  24.785  22.371  1.00  0.00     0.210 HD
ENDBRANCH   4  33
BRANCH   8  35
HETATM   35  C20 UNL     1      15.841  21.995  16.476  1.00  0.00     0.098 C 
HETATM   36  C21 UNL     1      14.550  22.049  17.224  1.00  0.00     0.132 C 
HETATM   37  N7  UNL     1      13.669  21.212  16.435  1.00  0.00    -0.400 N 
HETATM   38  C25 UNL     1      13.925  21.490  15.124  1.00  0.00     0.021 C 
HETATM   39  C26 UNL     1      13.056  22.699  14.728  1.00  0.00     0.038 C 
HETATM   40  C27 UNL     1      13.670  20.451  14.064  1.00  0.00     0.038 C 
HETATM   41  C28 UNL     1      15.369  21.998  15.042  1.00  0.00     0.045 C 
BRANCH  37  42
HETATM   42  C22 UNL     1      13.365  20.030  17.048  1.00  0.00     0.071 C 
HETATM   43  C23 UNL     1      13.825  20.077  18.513  1.00  0.00     0.031 C 
HETATM   44  C24 UNL     1      11.992  19.468  17.068  1.00  0.00     0.031 C 
ENDBRANCH  37  42
ENDBRANCH   8  35
TORSDOF 13
ENDMDL
MODEL 5
REMARK VINA RESULT: -8.454945171      3.663     11.440
REMARK  13 active torsions:
REMARK  status: ('A' for Active; 'I' for Inactive)
REMARK    1  A    between atoms: C4_4  and  O1_5 
REMARK    2  A    between atoms: C5_7  and  O2_8 
REMARK    3  A    between atoms: C6_10  and  N1_11 
REMARK    4  A    between atoms: C8_13  and  C9_14 
REMARK    5  A    between atoms: C9_14  and  C10_15 
REMARK    6  A    between atoms: C10_15  and  C11_16 
REMARK    7  A    between atoms: C11_16  and  C12_17 
REMARK    8  A    between atoms: C12_17  and  C13_18 
REMARK    9  A    between atoms: C13_18  and  C14_19 
REMARK   10  A    between atoms: C14_19  and  C15_20 
REMARK   11  A    between atoms: C15_20  and  N2_21 
REMARK       I    between atoms: N6_32  and  C19_33 
REMARK   12  A    between atoms: C19_33  and  C20_35 
REMARK   13  A    between atoms: N7_37  and  C22_38 
ROOT
HETATM    1  C1  UNL     1      18.701  21.425  19.006  1.00  0.00     0.032 C 
HETATM    2  C2  UNL     1      17.440  22.268  19.046  1.00  0.00     0.087 C 
HETATM    3  C3  UNL     1      17.241  22.898  20.432  1.00  0.00     0.059 C 
HETATM    4  C4  UNL     1      18.195  24.000  20.722  1.00  0.00     0.152 C 
HETATM    5  C5  UNL     1      18.808  24.675  19.545  1.00  0.00     0.191 C 
HETATM    6  C6  UNL     1      18.135  24.510  18.242  1.00  0.00     0.243 C 
HETATM    7  N6  UNL     1      17.407  23.294  18.030  1.00  0.00    -0.322 N 
HETATM    8  C19 UNL     1      16.667  23.151  16.831  1.00  0.00     0.227 C 
HETATM    9  O4  UNL     1      16.676  24.065  15.932  1.00  0.00    -0.273 OA
ENDROOT
BRANCH   6  10
HETATM   10  N1  UNL     1      19.083  24.829  17.188  1.00  0.00    -0.261 N 
HETATM   11  C7  UNL     1      19.184  25.848  16.345  1.00  0.00     0.140 A 
HETATM   12  C8  UNL     1      20.292  25.640  15.549  1.00  0.00     0.044 A 
HETATM   13  N4  UNL     1      20.818  24.491  15.947  1.00  0.00    -0.289 N 
HETATM   14  N5  UNL     1      20.108  24.001  16.919  1.00  0.00    -0.239 N 
ATOM     15  H4  UNL     1      21.652  24.058  15.551  1.00  0.00     0.188 HD
ATOM     16  H5  UNL     1      20.299  23.123  17.403  1.00  0.00     0.208 HD
BRANCH  12  17
HETATM   17  C9  UNL     1      20.834  26.488  14.461  1.00  0.00     0.060 C 
BRANCH  17  18
HETATM   18  C10 UNL     1      21.115  27.897  14.859  1.00  0.00     0.006 C 
BRANCH  18  19
HETATM   19  C11 UNL     1      22.121  28.051  15.961  1.00  0.00     0.000 C 
BRANCH  19  20
HETATM   20  C12 UNL     1      23.400  27.326  15.618  1.00  0.00     0.000 C 
BRANCH  20  21
HETATM   21  C13 UNL     1      24.579  27.937  16.315  1.00  0.00     0.002 C 
BRANCH  21  22
HETATM   22  C14 UNL     1      25.416  26.946  17.058  1.00  0.00     0.020 C 
BRANCH  22  23
HETATM   23  C15 UNL     1      25.031  26.899  18.524  1.00  0.00     0.127 C 
BRANCH  23  24
HETATM   24  N2  UNL     1      24.635  25.587  18.960  1.00  0.00    -0.333 N 
HETATM   25  C16 UNL     1      25.406  24.469  19.444  1.00  0.00     0.147 C 
HETATM   26  C17 UNL     1      24.422  23.654  20.255  1.00  0.00     0.144 C 
HETATM   27  N3  UNL     1      23.161  23.885  19.578  1.00  0.00    -0.341 N 
HETATM   28  C18 UNL     1      23.278  25.159  18.982  1.00  0.00     0.318 C 
ATOM     29  H3  UNL     1      22.358  23.257  19.541  1.00  0.00     0.164 HD
HETATM   30  O3  UNL     1      22.276  25.812  18.533  1.00  0.00    -0.247 OA
ENDBRANCH  23  24
ENDBRANCH  22  23
ENDBRANCH  21  22
ENDBRANCH  20  21
ENDBRANCH  19  20
ENDBRANCH  18  19
ENDBRANCH  17  18
ENDBRANCH  12  17
ENDBRANCH   6  10
BRANCH   5  31
HETATM   31  O2  UNL     1      20.175  24.407  19.561  1.00  0.00    -0.389 OA
ATOM     32  H2  UNL     1      20.515  24.678  20.406  1.00  0.00     0.210 HD
ENDBRANCH   5  31
BRANCH   4  33
HETATM   33  O1  UNL     1      17.531  24.909  21.582  1.00  0.00    -0.393 OA
ATOM     34  H1  UNL     1      17.979  25.743  21.506  1.00  0.00     0.210 HD
ENDBRANCH   4  33
BRANCH   8  35
HETATM   35  C20 UNL     1      15.827  21.981  16.479  1.00  0.00     0.098 C 
HETATM   36  C21 UNL     1      14.520  22.019  17.201  1.00  0.00     0.132 C 
HETATM   37  N7  UNL     1      13.661  21.187  16.383  1.00  0.00    -0.400 N 
HETATM   38  C25 UNL     1      13.942  21.483  15.082  1.00  0.00     0.021 C 
HETATM   39  C26 UNL     1      13.074  22.693  14.683  1.00  0.00     0.038 C 
HETATM   40  C27 UNL     1      13.715  20.457  14.003  1.00  0.00     0.038 C 
HETATM   41  C28 UNL     1      15.385  22.000  15.036  1.00  0.00     0.045 C 
BRANCH  37  42
HETATM   42  C22 UNL     1      13.350  19.996  16.975  1.00  0.00     0.071 C 
HETATM   43  C23 UNL     1      13.809  20.015  18.441  1.00  0.00     0.031 C 
HETATM   44  C24 UNL     1      11.975  19.439  16.983  1.00  0.00     0.031 C 
ENDBRANCH  37  42
ENDBRANCH   8  35
TORSDOF 13
ENDMDL
