MODEL 1
REMARK VINA RESULT: -7.888497786      0.000      0.000
REMARK  12 active torsions:
REMARK  status: ('A' for Active; 'I' for Inactive)
REMARK    1  A    between atoms: C1_4  and  C2_6 
REMARK    2  A    between atoms: C2_6  and  C3_7 
REMARK    3  A    between atoms: C3_7  and  N3_8 
REMARK    4  A    between atoms: C3_7  and  C4_12 
REMARK       I    between atoms: C4_12  and  N4_14 
REMARK    5  A    between atoms: N4_14  and  C5_16 
REMARK    6  A    between atoms: C5_16  and  C6_17 
REMARK    7  A    between atoms: C6_17  and  C7_18 
REMARK    8  A    between atoms: C6_17  and  N6_23 
REMARK    9  A    between atoms: C7_18  and  N5_19 
REMARK   10  A    between atoms: N6_23  and  O2_24 
REMARK   11  A    between atoms: O2_24  and  C8_25 
REMARK   12  A    between atoms: C8_25  and  C9_26 
ROOT
HETATM    1  C6  UNL     1      15.188  82.445  24.884  1.00  0.00     0.150 C 
ENDROOT
BRANCH   1   2
HETATM    2  C5  UNL     1      14.922  81.424  23.820  1.00  0.00     0.148 C 
BRANCH   2   3
HETATM    3  N4  UNL     1      13.986  80.456  24.353  1.00  0.00    -0.358 N 
HETATM    4  C4  UNL     1      14.373  79.097  24.559  1.00  0.00     0.248 C 
HETATM    5  O1  UNL     1      15.552  78.768  24.265  1.00  0.00    -0.271 OA
ATOM      6  H4  UNL     1      13.036  80.749  24.583  1.00  0.00     0.162 HD
BRANCH   4   7
HETATM    7  C3  UNL     1      13.436  78.101  25.099  1.00  0.00     0.281 C 
BRANCH   7   8
HETATM    8  C2  UNL     1      11.984  78.444  24.853  1.00  0.00     0.115 C 
BRANCH   8   9
HETATM    9  C1  UNL     1      11.345  79.104  26.008  1.00  0.00     0.089 C 
HETATM   10  N1  UNL     1      10.492  78.518  26.777  1.00  0.00    -0.391 N 
ATOM     11  H12 UNL     1      10.051  78.974  27.576  1.00  0.00     0.157 HD
ATOM     12  H11 UNL     1      10.253  77.549  26.567  1.00  0.00     0.157 HD
HETATM   13  N2  UNL     1      11.678  80.452  26.301  1.00  0.00    -0.088 NA
ENDBRANCH   8   9
ENDBRANCH   7   8
BRANCH   7  14
HETATM   14  N3  UNL     1      13.715  77.898  26.502  1.00  0.00    -0.066 N 
ATOM     15  H33 UNL     1      14.715  77.789  26.668  1.00  0.00     0.275 HD
ATOM     16  H32 UNL     1      13.554  78.750  27.038  1.00  0.00     0.275 HD
ATOM     17  H31 UNL     1      13.188  77.114  26.887  1.00  0.00     0.275 HD
ENDBRANCH   7  14
ENDBRANCH   4   7
ENDBRANCH   2   3
ENDBRANCH   1   2
BRANCH   1  18
HETATM   18  C7  UNL     1      15.595  81.805  26.165  1.00  0.00     0.254 C 
BRANCH  18  19
HETATM   19  N5  UNL     1      16.902  81.149  26.002  1.00  0.00    -0.078 N 
ATOM     20  H53 UNL     1      17.503  81.649  25.347  1.00  0.00     0.274 HD
ATOM     21  H52 UNL     1      17.484  81.240  26.835  1.00  0.00     0.274 HD
ATOM     22  H51 UNL     1      16.769  80.174  25.732  1.00  0.00     0.274 HD
ENDBRANCH  18  19
ENDBRANCH   1  18
BRANCH   1  23
HETATM   23  N6  UNL     1      16.063  83.504  24.459  1.00  0.00    -0.087 NA
BRANCH  23  24
HETATM   24  O2  UNL     1      16.869  83.189  23.458  1.00  0.00    -0.255 OA
BRANCH  24  25
HETATM   25  C8  UNL     1      18.102  83.765  23.463  1.00  0.00     0.177 C 
BRANCH  25  26
HETATM   26  C9  UNL     1      18.284  85.052  22.827  1.00  0.00     0.031 A 
HETATM   27  C10 UNL     1      18.750  85.197  21.552  1.00  0.00     0.018 A 
HETATM   28  C11 UNL     1      18.937  86.438  20.955  1.00  0.00     0.018 A 
HETATM   29  C12 UNL     1      18.640  87.568  21.678  1.00  0.00     0.089 A 
HETATM   30  N7  UNL     1      18.182  87.432  22.934  1.00  0.00    -0.352 N 
HETATM   31  C13 UNL     1      17.998  86.238  23.518  1.00  0.00     0.111 A 
ATOM     32  H7  UNL     1      17.963  88.274  23.467  1.00  0.00     0.166 HD
HETATM   33  N8  UNL     1      17.554  86.173  24.726  1.00  0.00    -0.385 N 
ATOM     34  H82 UNL     1      17.415  85.266  25.170  1.00  0.00     0.157 HD
ATOM     35  H81 UNL     1      17.347  87.036  25.229  1.00  0.00     0.157 HD
ENDBRANCH  25  26
ENDBRANCH  24  25
ENDBRANCH  23  24
ENDBRANCH   1  23
TORSDOF 12
ENDMDL
MODEL 2
REMARK VINA RESULT: -7.859208005      1.606      1.908
REMARK  12 active torsions:
REMARK  status: ('A' for Active; 'I' for Inactive)
REMARK    1  A    between atoms: C1_4  and  C2_6 
REMARK    2  A    between atoms: C2_6  and  C3_7 
REMARK    3  A    between atoms: C3_7  and  N3_8 
REMARK    4  A    between atoms: C3_7  and  C4_12 
REMARK       I    between atoms: C4_12  and  N4_14 
REMARK    5  A    between atoms: N4_14  and  C5_16 
REMARK    6  A    between atoms: C5_16  and  C6_17 
REMARK    7  A    between atoms: C6_17  and  C7_18 
REMARK    8  A    between atoms: C6_17  and  N6_23 
REMARK    9  A    between atoms: C7_18  and  N5_19 
REMARK   10  A    between atoms: N6_23  and  O2_24 
REMARK   11  A    between atoms: O2_24  and  C8_25 
REMARK   12  A    between atoms: C8_25  and  C9_26 
ROOT
HETATM    1  C6  UNL     1      14.700  81.736  25.250  1.00  0.00     0.150 C 
ENDROOT
BRANCH   1   2
HETATM    2  C5  UNL     1      14.858  80.665  24.214  1.00  0.00     0.148 C 
BRANCH   2   3
HETATM    3  N4  UNL     1      13.904  79.615  24.507  1.00  0.00    -0.358 N 
HETATM    4  C4  UNL     1      14.342  78.322  24.925  1.00  0.00     0.248 C 
HETATM    5  O1  UNL     1      15.581  78.124  25.031  1.00  0.00    -0.271 OA
ATOM      6  H4  UNL     1      12.905  79.802  24.413  1.00  0.00     0.162 HD
BRANCH   4   7
HETATM    7  C3  UNL     1      13.389  77.244  25.227  1.00  0.00     0.281 C 
BRANCH   7   8
HETATM    8  C2  UNL     1      12.598  76.785  24.023  1.00  0.00     0.115 C 
BRANCH   8   9
HETATM    9  C1  UNL     1      11.241  77.364  23.972  1.00  0.00     0.089 C 
HETATM   10  N1  UNL     1      10.170  76.685  24.205  1.00  0.00    -0.391 N 
ATOM     11  H12 UNL     1       9.233  77.085  24.169  1.00  0.00     0.157 HD
ATOM     12  H11 UNL     1      10.277  75.696  24.434  1.00  0.00     0.157 HD
HETATM   13  N2  UNL     1      11.091  78.739  23.653  1.00  0.00    -0.088 NA
ENDBRANCH   8   9
ENDBRANCH   7   8
BRANCH   7  14
HETATM   14  N3  UNL     1      12.532  77.658  26.313  1.00  0.00    -0.066 N 
ATOM     15  H33 UNL     1      12.965  77.473  27.218  1.00  0.00     0.275 HD
ATOM     16  H32 UNL     1      12.471  78.675  26.369  1.00  0.00     0.275 HD
ATOM     17  H31 UNL     1      11.606  77.236  26.253  1.00  0.00     0.275 HD
ENDBRANCH   7  14
ENDBRANCH   4   7
ENDBRANCH   2   3
ENDBRANCH   1   2
BRANCH   1  18
HETATM   18  C7  UNL     1      15.498  81.438  26.470  1.00  0.00     0.254 C 
BRANCH  18  19
HETATM   19  N5  UNL     1      16.804  80.879  26.087  1.00  0.00    -0.078 N 
ATOM     20  H53 UNL     1      16.920  80.834  25.075  1.00  0.00     0.274 HD
ATOM     21  H52 UNL     1      17.571  81.518  26.295  1.00  0.00     0.274 HD
ATOM     22  H51 UNL     1      16.934  79.968  26.529  1.00  0.00     0.274 HD
ENDBRANCH  18  19
ENDBRANCH   1  18
BRANCH   1  23
HETATM   23  N6  UNL     1      14.896  83.065  24.737  1.00  0.00    -0.087 NA
BRANCH  23  24
HETATM   24  O2  UNL     1      16.092  83.289  24.217  1.00  0.00    -0.255 OA
BRANCH  24  25
HETATM   25  C8  UNL     1      16.806  84.317  24.750  1.00  0.00     0.177 C 
BRANCH  25  26
HETATM   26  C9  UNL     1      17.610  85.146  23.878  1.00  0.00     0.031 A 
HETATM   27  C10 UNL     1      17.571  86.510  23.898  1.00  0.00     0.018 A 
HETATM   28  C11 UNL     1      18.335  87.299  23.047  1.00  0.00     0.018 A 
HETATM   29  C12 UNL     1      19.168  86.679  22.145  1.00  0.00     0.089 A 
HETATM   30  N7  UNL     1      19.210  85.336  22.120  1.00  0.00    -0.352 N 
HETATM   31  C13 UNL     1      18.475  84.567  22.939  1.00  0.00     0.111 A 
ATOM     32  H7  UNL     1      19.828  84.881  21.449  1.00  0.00     0.166 HD
HETATM   33  N8  UNL     1      18.561  83.284  22.867  1.00  0.00    -0.385 N 
ATOM     34  H82 UNL     1      18.003  82.699  23.489  1.00  0.00     0.157 HD
ATOM     35  H81 UNL     1      19.190  82.863  22.183  1.00  0.00     0.157 HD
ENDBRANCH  25  26
ENDBRANCH  24  25
ENDBRANCH  23  24
ENDBRANCH   1  23
TORSDOF 12
ENDMDL
MODEL 3
REMARK VINA RESULT: -7.833984733      3.586      5.028
REMARK  12 active torsions:
REMARK  status: ('A' for Active; 'I' for Inactive)
REMARK    1  A    between atoms: C1_4  and  C2_6 
REMARK    2  A    between atoms: C2_6  and  C3_7 
REMARK    3  A    between atoms: C3_7  and  N3_8 
REMARK    4  A    between atoms: C3_7  and  C4_12 
REMARK       I    between atoms: C4_12  and  N4_14 
REMARK    5  A    between atoms: N4_14  and  C5_16 
REMARK    6  A    between atoms: C5_16  and  C6_17 
REMARK    7  A    between atoms: C6_17  and  C7_18 
REMARK    8  A    between atoms: C6_17  and  N6_23 
REMARK    9  A    between atoms: C7_18  and  N5_19 
REMARK   10  A    between atoms: N6_23  and  O2_24 
REMARK   11  A    between atoms: O2_24  and  C8_25 
REMARK   12  A    between atoms: C8_25  and  C9_26 
ROOT
HETATM    1  C6  UNL     1      16.916  76.823  27.145  1.00  0.00     0.150 C 
ENDROOT
BRANCH   1   2
HETATM    2  C5  UNL     1      16.416  76.463  25.779  1.00  0.00     0.148 C 
BRANCH   2   3
HETATM    3  N4  UNL     1      15.033  76.882  25.684  1.00  0.00    -0.358 N 
HETATM    4  C4  UNL     1      14.204  76.437  24.610  1.00  0.00     0.248 C 
HETATM    5  O1  UNL     1      14.711  75.669  23.752  1.00  0.00    -0.271 OA
ATOM      6  H4  UNL     1      14.646  77.505  26.393  1.00  0.00     0.162 HD
BRANCH   4   7
HETATM    7  C3  UNL     1      12.797  76.852  24.498  1.00  0.00     0.281 C 
BRANCH   7   8
HETATM    8  C2  UNL     1      12.344  77.755  25.622  1.00  0.00     0.115 C 
BRANCH   8   9
HETATM    9  C1  UNL     1      11.448  78.835  25.166  1.00  0.00     0.089 C 
HETATM   10  N1  UNL     1      10.978  79.745  25.949  1.00  0.00    -0.391 N 
ATOM     11  H12 UNL     1      10.359  80.492  25.634  1.00  0.00     0.157 HD
ATOM     12  H11 UNL     1      11.245  79.707  26.933  1.00  0.00     0.157 HD
HETATM   13  N2  UNL     1      11.077  78.889  23.797  1.00  0.00    -0.088 NA
ENDBRANCH   8   9
ENDBRANCH   7   8
BRANCH   7  14
HETATM   14  N3  UNL     1      11.965  75.678  24.375  1.00  0.00    -0.066 N 
ATOM     15  H33 UNL     1      11.105  75.777  24.915  1.00  0.00     0.275 HD
ATOM     16  H32 UNL     1      11.561  75.607  23.442  1.00  0.00     0.275 HD
ATOM     17  H31 UNL     1      12.464  74.826  24.627  1.00  0.00     0.275 HD
ENDBRANCH   7  14
ENDBRANCH   4   7
ENDBRANCH   2   3
ENDBRANCH   1   2
BRANCH   1  18
HETATM   18  C7  UNL     1      17.915  75.836  27.639  1.00  0.00     0.254 C 
BRANCH  18  19
HETATM   19  N5  UNL     1      18.916  76.516  28.476  1.00  0.00    -0.078 N 
ATOM     20  H53 UNL     1      19.868  76.340  28.154  1.00  0.00     0.274 HD
ATOM     21  H52 UNL     1      18.901  77.528  28.347  1.00  0.00     0.274 HD
ATOM     22  H51 UNL     1      18.786  76.253  29.453  1.00  0.00     0.274 HD
ENDBRANCH  18  19
ENDBRANCH   1  18
BRANCH   1  23
HETATM   23  N6  UNL     1      17.344  78.191  27.259  1.00  0.00    -0.087 NA
BRANCH  23  24
HETATM   24  O2  UNL     1      16.379  79.087  27.130  1.00  0.00    -0.255 OA
BRANCH  24  25
HETATM   25  C8  UNL     1      16.765  80.369  26.888  1.00  0.00     0.177 C 
BRANCH  25  26
HETATM   26  C9  UNL     1      15.993  81.180  25.971  1.00  0.00     0.031 A 
HETATM   27  C10 UNL     1      16.543  81.838  24.910  1.00  0.00     0.018 A 
HETATM   28  C11 UNL     1      15.796  82.628  24.044  1.00  0.00     0.018 A 
HETATM   29  C12 UNL     1      14.445  82.752  24.265  1.00  0.00     0.089 A 
HETATM   30  N7  UNL     1      13.897  82.107  25.310  1.00  0.00    -0.352 N 
HETATM   31  C13 UNL     1      14.611  81.342  26.150  1.00  0.00     0.111 A 
ATOM     32  H7  UNL     1      12.895  82.203  25.470  1.00  0.00     0.166 HD
HETATM   33  N8  UNL     1      14.028  80.748  27.133  1.00  0.00    -0.385 N 
ATOM     34  H82 UNL     1      14.570  80.167  27.773  1.00  0.00     0.157 HD
ATOM     35  H81 UNL     1      13.024  80.867  27.264  1.00  0.00     0.157 HD
ENDBRANCH  25  26
ENDBRANCH  24  25
ENDBRANCH  23  24
ENDBRANCH   1  23
TORSDOF 12
ENDMDL
MODEL 4
REMARK VINA RESULT: -7.833144795      1.053      1.187
REMARK  12 active torsions:
REMARK  status: ('A' for Active; 'I' for Inactive)
REMARK    1  A    between atoms: C1_4  and  C2_6 
REMARK    2  A    between atoms: C2_6  and  C3_7 
REMARK    3  A    between atoms: C3_7  and  N3_8 
REMARK    4  A    between atoms: C3_7  and  C4_12 
REMARK       I    between atoms: C4_12  and  N4_14 
REMARK    5  A    between atoms: N4_14  and  C5_16 
REMARK    6  A    between atoms: C5_16  and  C6_17 
REMARK    7  A    between atoms: C6_17  and  C7_18 
REMARK    8  A    between atoms: C6_17  and  N6_23 
REMARK    9  A    between atoms: C7_18  and  N5_19 
REMARK   10  A    between atoms: N6_23  and  O2_24 
REMARK   11  A    between atoms: O2_24  and  C8_25 
REMARK   12  A    between atoms: C8_25  and  C9_26 
ROOT
HETATM    1  C6  UNL     1      15.116  82.531  25.012  1.00  0.00     0.150 C 
ENDROOT
BRANCH   1   2
HETATM    2  C5  UNL     1      14.734  81.389  24.120  1.00  0.00     0.148 C 
BRANCH   2   3
HETATM    3  N4  UNL     1      13.750  80.586  24.817  1.00  0.00    -0.358 N 
HETATM    4  C4  UNL     1      14.050  79.254  25.232  1.00  0.00     0.248 C 
HETATM    5  O1  UNL     1      15.195  78.799  24.973  1.00  0.00    -0.271 OA
ATOM      6  H4  UNL     1      12.829  80.979  25.014  1.00  0.00     0.162 HD
BRANCH   4   7
HETATM    7  C3  UNL     1      13.063  78.425  25.940  1.00  0.00     0.281 C 
BRANCH   7   8
HETATM    8  C2  UNL     1      12.526  77.284  25.107  1.00  0.00     0.115 C 
BRANCH   8   9
HETATM    9  C1  UNL     1      11.276  77.627  24.401  1.00  0.00     0.089 C 
HETATM   10  N1  UNL     1      10.199  76.923  24.482  1.00  0.00    -0.391 N 
ATOM     11  H12 UNL     1       9.335  77.160  23.994  1.00  0.00     0.157 HD
ATOM     12  H11 UNL     1      10.223  76.087  25.067  1.00  0.00     0.157 HD
HETATM   13  N2  UNL     1      11.242  78.789  23.588  1.00  0.00    -0.088 NA
ENDBRANCH   8   9
ENDBRANCH   7   8
BRANCH   7  14
HETATM   14  N3  UNL     1      12.008  79.271  26.446  1.00  0.00    -0.066 N 
ATOM     15  H33 UNL     1      12.298  80.248  26.473  1.00  0.00     0.275 HD
ATOM     16  H32 UNL     1      11.243  79.349  25.776  1.00  0.00     0.275 HD
ATOM     17  H31 UNL     1      11.671  78.960  27.357  1.00  0.00     0.275 HD
ENDBRANCH   7  14
ENDBRANCH   4   7
ENDBRANCH   2   3
ENDBRANCH   1   2
BRANCH   1  18
HETATM   18  C7  UNL     1      15.769  82.054  26.261  1.00  0.00     0.254 C 
BRANCH  18  19
HETATM   19  N5  UNL     1      16.927  81.209  25.927  1.00  0.00    -0.078 N 
ATOM     20  H53 UNL     1      17.411  80.875  26.761  1.00  0.00     0.274 HD
ATOM     21  H52 UNL     1      16.646  80.305  25.547  1.00  0.00     0.274 HD
ATOM     22  H51 UNL     1      17.551  81.712  25.296  1.00  0.00     0.274 HD
ENDBRANCH  18  19
ENDBRANCH   1  18
BRANCH   1  23
HETATM   23  N6  UNL     1      15.844  83.570  24.335  1.00  0.00    -0.087 NA
BRANCH  23  24
HETATM   24  O2  UNL     1      16.742  83.141  23.463  1.00  0.00    -0.255 OA
BRANCH  24  25
HETATM   25  C8  UNL     1      17.977  83.706  23.531  1.00  0.00     0.177 C 
BRANCH  25  26
HETATM   26  C9  UNL     1      18.207  84.984  22.891  1.00  0.00     0.031 A 
HETATM   27  C10 UNL     1      18.697  85.107  21.623  1.00  0.00     0.018 A 
HETATM   28  C11 UNL     1      18.930  86.338  21.022  1.00  0.00     0.018 A 
HETATM   29  C12 UNL     1      18.655  87.482  21.734  1.00  0.00     0.089 A 
HETATM   30  N7  UNL     1      18.173  87.367  22.983  1.00  0.00    -0.352 N 
HETATM   31  C13 UNL     1      17.945  86.182  23.571  1.00  0.00     0.111 A 
ATOM     32  H7  UNL     1      17.972  88.218  23.508  1.00  0.00     0.166 HD
HETATM   33  N8  UNL     1      17.481  86.138  24.772  1.00  0.00    -0.385 N 
ATOM     34  H82 UNL     1      17.308  85.237  25.219  1.00  0.00     0.157 HD
ATOM     35  H81 UNL     1      17.291  87.009  25.267  1.00  0.00     0.157 HD
ENDBRANCH  25  26
ENDBRANCH  24  25
ENDBRANCH  23  24
ENDBRANCH   1  23
TORSDOF 12
ENDMDL
MODEL 5
REMARK VINA RESULT: -7.794299308      2.671      3.638
REMARK  12 active torsions:
REMARK  status: ('A' for Active; 'I' for Inactive)
REMARK    1  A    between atoms: C1_4  and  C2_6 
REMARK    2  A    between atoms: C2_6  and  C3_7 
REMARK    3  A    between atoms: C3_7  and  N3_8 
REMARK    4  A    between atoms: C3_7  and  C4_12 
REMARK       I    between atoms: C4_12  and  N4_14 
REMARK    5  A    between atoms: N4_14  and  C5_16 
REMARK    6  A    between atoms: C5_16  and  C6_17 
REMARK    7  A    between atoms: C6_17  and  C7_18 
REMARK    8  A    between atoms: C6_17  and  N6_23 
REMARK    9  A    between atoms: C7_18  and  N5_19 
REMARK   10  A    between atoms: N6_23  and  O2_24 
REMARK   11  A    between atoms: O2_24  and  C8_25 
REMARK   12  A    between atoms: C8_25  and  C9_26 
ROOT
HETATM    1  C6  UNL     1      15.616  81.467  25.350  1.00  0.00     0.150 C 
ENDROOT
BRANCH   1   2
HETATM    2  C5  UNL     1      16.189  80.833  26.581  1.00  0.00     0.148 C 
BRANCH   2   3
HETATM    3  N4  UNL     1      16.532  79.463  26.260  1.00  0.00    -0.358 N 
HETATM    4  C4  UNL     1      15.832  78.371  26.857  1.00  0.00     0.248 C 
HETATM    5  O1  UNL     1      14.908  78.637  27.670  1.00  0.00    -0.271 OA
ATOM      6  H4  UNL     1      17.285  79.275  25.598  1.00  0.00     0.162 HD
BRANCH   4   7
HETATM    7  C3  UNL     1      16.166  76.974  26.543  1.00  0.00     0.281 C 
BRANCH   7   8
HETATM    8  C2  UNL     1      17.560  76.578  26.973  1.00  0.00     0.115 C 
BRANCH   8   9
HETATM    9  C1  UNL     1      17.654  76.279  28.415  1.00  0.00     0.089 C 
HETATM   10  N1  UNL     1      18.755  76.343  29.083  1.00  0.00    -0.391 N 
ATOM     11  H12 UNL     1      18.819  76.137  30.080  1.00  0.00     0.157 HD
ATOM     12  H11 UNL     1      19.599  76.615  28.579  1.00  0.00     0.157 HD
HETATM   13  N2  UNL     1      16.480  75.901  29.117  1.00  0.00    -0.088 NA
ENDBRANCH   8   9
ENDBRANCH   7   8
BRANCH   7  14
HETATM   14  N3  UNL     1      15.944  76.738  25.136  1.00  0.00    -0.066 N 
ATOM     15  H33 UNL     1      15.349  77.459  24.729  1.00  0.00     0.275 HD
ATOM     16  H32 UNL     1      16.792  76.906  24.595  1.00  0.00     0.275 HD
ATOM     17  H31 UNL     1      15.571  75.806  24.958  1.00  0.00     0.275 HD
ENDBRANCH   7  14
ENDBRANCH   4   7
ENDBRANCH   2   3
ENDBRANCH   1   2
BRANCH   1  18
HETATM   18  C7  UNL     1      14.157  81.202  25.229  1.00  0.00     0.254 C 
BRANCH  18  19
HETATM   19  N5  UNL     1      13.532  81.227  26.562  1.00  0.00    -0.078 N 
ATOM     20  H53 UNL     1      14.142  81.648  27.262  1.00  0.00     0.274 HD
ATOM     21  H52 UNL     1      12.764  81.896  26.613  1.00  0.00     0.274 HD
ATOM     22  H51 UNL     1      13.238  80.286  26.823  1.00  0.00     0.274 HD
ENDBRANCH  18  19
ENDBRANCH   1  18
BRANCH   1  23
HETATM   23  N6  UNL     1      15.970  82.853  25.200  1.00  0.00    -0.087 NA
BRANCH  23  24
HETATM   24  O2  UNL     1      16.252  83.222  23.961  1.00  0.00    -0.255 OA
BRANCH  24  25
HETATM   25  C8  UNL     1      17.569  83.355  23.649  1.00  0.00     0.177 C 
BRANCH  25  26
HETATM   26  C9  UNL     1      18.061  84.635  23.188  1.00  0.00     0.031 A 
HETATM   27  C10 UNL     1      18.754  84.794  22.023  1.00  0.00     0.018 A 
HETATM   28  C11 UNL     1      19.238  86.025  21.595  1.00  0.00     0.018 A 
HETATM   29  C12 UNL     1      19.009  87.131  22.379  1.00  0.00     0.089 A 
HETATM   30  N7  UNL     1      18.328  86.981  23.528  1.00  0.00    -0.352 N 
HETATM   31  C13 UNL     1      17.857  85.796  23.948  1.00  0.00     0.111 A 
ATOM     32  H7  UNL     1      18.161  87.804  24.107  1.00  0.00     0.166 HD
HETATM   33  N8  UNL     1      17.211  85.717  25.059  1.00  0.00    -0.385 N 
ATOM     34  H82 UNL     1      16.853  84.817  25.379  1.00  0.00     0.157 HD
ATOM     35  H81 UNL     1      17.063  86.561  25.612  1.00  0.00     0.157 HD
ENDBRANCH  25  26
ENDBRANCH  24  25
ENDBRANCH  23  24
ENDBRANCH   1  23
TORSDOF 12
ENDMDL
