MODEL 1
REMARK VINA RESULT: -8.258863851      0.000      0.000
REMARK  14 active torsions:
REMARK  status: ('A' for Active; 'I' for Inactive)
REMARK    1  A    between atoms: C2_2  and  C3_3 
REMARK    2  A    between atoms: C3_3  and  C4_4 
REMARK    3  A    between atoms: C4_4  and  N1_5 
REMARK    4  A    between atoms: N1_5  and  C7_8 
REMARK    5  A    between atoms: C7_8  and  C8_9 
REMARK       I    between atoms: C8_9  and  N2_11 
REMARK    6  A    between atoms: N2_11  and  C9_13 
REMARK    7  A    between atoms: C9_13  and  C10_14 
REMARK    8  A    between atoms: C15_19  and  C16_20 
REMARK    9  A    between atoms: C16_20  and  C17_21 
REMARK   10  A    between atoms: C17_21  and  C18_22 
REMARK   11  A    between atoms: N3_34  and  C28_36 
REMARK   12  A    between atoms: C28_36  and  C29_37 
REMARK   13  A    between atoms: C28_36  and  C33_41 
REMARK   14  A    between atoms: C29_37  and  C30_38 
ROOT
HETATM    1  C16 UNL     1       7.689   0.754  50.064  1.00  0.00     0.028 C 
HETATM    2  N3  UNL     1       6.731   1.261  50.621  1.00  0.00    -0.377 N 
ATOM      3  H3  UNL     1       6.208   0.473  51.004  1.00  0.00     0.160 HD
ENDROOT
BRANCH   1   4
HETATM    4  C15 UNL     1       8.807   1.450  49.323  1.00  0.00    -0.048 C 
HETATM    5  C10 UNL     1      10.084   1.527  50.065  1.00  0.00     0.034 C 
HETATM    6  C11 UNL     1      10.314   2.861  50.767  1.00  0.00     0.011 C 
HETATM    7  C12 UNL     1      10.238   3.994  49.751  1.00  0.00     0.001 C 
HETATM    8  C13 UNL     1       8.797   3.997  49.259  1.00  0.00     0.004 C 
HETATM    9  C14 UNL     1       8.512   2.684  48.616  1.00  0.00     0.037 C 
BRANCH   5  10
HETATM   10  C9  UNL     1      11.313   1.235  49.240  1.00  0.00     0.131 C 
BRANCH  10  11
HETATM   11  N2  UNL     1      11.814  -0.066  49.644  1.00  0.00    -0.359 N 
HETATM   12  C8  UNL     1      11.466  -1.214  48.887  1.00  0.00     0.243 C 
HETATM   13  O1  UNL     1      10.741  -1.063  47.882  1.00  0.00    -0.272 OA
ATOM     14  H2  UNL     1      12.412  -0.154  50.465  1.00  0.00     0.162 HD
BRANCH  12  15
HETATM   15  C7  UNL     1      11.948  -2.530  49.285  1.00  0.00     0.338 C 
BRANCH  15  16
HETATM   16  N1  UNL     1      13.032  -3.045  48.433  1.00  0.00    -0.066 N 
HETATM   17  C5  UNL     1      12.509  -3.814  47.352  1.00  0.00     0.272 C 
HETATM   18  C6  UNL     1      13.806  -3.959  49.267  1.00  0.00     0.272 C 
BRANCH  16  19
HETATM   19  C4  UNL     1      13.871  -1.943  48.085  1.00  0.00     0.237 C 
BRANCH  19  20
HETATM   20  C3  UNL     1      15.297  -2.219  47.810  1.00  0.00     0.027 C 
BRANCH  20  21
HETATM   21  C2  UNL     1      16.230  -1.046  47.961  1.00  0.00    -0.003 C 
HETATM   22  C1  UNL     1      17.615  -1.649  48.238  1.00  0.00     0.005 C 
ENDBRANCH  20  21
ENDBRANCH  19  20
ENDBRANCH  16  19
ENDBRANCH  15  16
ENDBRANCH  12  15
ENDBRANCH  10  11
ENDBRANCH   5  10
ENDBRANCH   1   4
BRANCH   1  23
HETATM   23  C17 UNL     1       7.847  -0.709  50.027  1.00  0.00     0.018 C 
BRANCH  23  24
HETATM   24  C18 UNL     1       6.892  -1.636  49.455  1.00  0.00     0.046 C 
HETATM   25  C19 UNL     1       5.515  -1.720  50.030  1.00  0.00     0.024 C 
HETATM   26  C20 UNL     1       4.568  -2.482  49.166  1.00  0.00    -0.012 C 
HETATM   27  C21 UNL     1       4.363  -1.872  47.806  1.00  0.00     0.009 C 
HETATM   28  C25 UNL     1       5.083  -3.893  48.940  1.00  0.00     0.015 C 
HETATM   29  C22 UNL     1       5.725  -1.727  47.194  1.00  0.00    -0.012 C 
HETATM   30  C23 UNL     1       6.283  -3.123  46.900  1.00  0.00     0.015 C 
HETATM   31  C27 UNL     1       6.708  -1.027  48.021  1.00  0.00     0.024 C 
HETATM   32  C24 UNL     1       6.415  -3.780  48.229  1.00  0.00     0.060 C 
HETATM   33  C26 UNL     1       7.346  -3.052  49.193  1.00  0.00     0.258 C 
HETATM   34  F1  UNL     1       7.204  -3.811  50.371  1.00  0.00    -0.205 F 
HETATM   35  F2  UNL     1       8.600  -3.127  48.668  1.00  0.00    -0.205 F 
ENDBRANCH  23  24
ENDBRANCH   1  23
BRANCH   2  36
HETATM   36  C28 UNL     1       6.020   2.346  50.981  1.00  0.00     0.171 C 
BRANCH  36  37
HETATM   37  C29 UNL     1       5.189   3.049  49.931  1.00  0.00     0.038 C 
BRANCH  37  38
HETATM   38  C30 UNL     1       4.308   2.095  49.166  1.00  0.00    -0.020 C 
HETATM   39  C31 UNL     1       2.856   2.522  49.260  1.00  0.00     0.009 C 
HETATM   40  C32 UNL     1       4.669   2.110  47.682  1.00  0.00     0.009 C 
ENDBRANCH  37  38
ENDBRANCH  36  37
BRANCH  36  41
HETATM   41  C33 UNL     1       5.069   2.067  52.097  1.00  0.00     0.253 C 
HETATM   42  N4  UNL     1       4.917   0.809  52.721  1.00  0.00    -0.060 NA
HETATM   43  O2  UNL     1       4.359   3.010  52.506  1.00  0.00    -0.275 OA
ENDBRANCH  36  41
ENDBRANCH   2  36
TORSDOF 14
ENDMDL
MODEL 2
REMARK VINA RESULT: -8.134245709      0.918      1.690
REMARK  14 active torsions:
REMARK  status: ('A' for Active; 'I' for Inactive)
REMARK    1  A    between atoms: C2_2  and  C3_3 
REMARK    2  A    between atoms: C3_3  and  C4_4 
REMARK    3  A    between atoms: C4_4  and  N1_5 
REMARK    4  A    between atoms: N1_5  and  C7_8 
REMARK    5  A    between atoms: C7_8  and  C8_9 
REMARK       I    between atoms: C8_9  and  N2_11 
REMARK    6  A    between atoms: N2_11  and  C9_13 
REMARK    7  A    between atoms: C9_13  and  C10_14 
REMARK    8  A    between atoms: C15_19  and  C16_20 
REMARK    9  A    between atoms: C16_20  and  C17_21 
REMARK   10  A    between atoms: C17_21  and  C18_22 
REMARK   11  A    between atoms: N3_34  and  C28_36 
REMARK   12  A    between atoms: C28_36  and  C29_37 
REMARK   13  A    between atoms: C28_36  and  C33_41 
REMARK   14  A    between atoms: C29_37  and  C30_38 
ROOT
HETATM    1  C16 UNL     1       7.666   0.803  50.084  1.00  0.00     0.028 C 
HETATM    2  N3  UNL     1       6.709   1.329  50.626  1.00  0.00    -0.377 N 
ATOM      3  H3  UNL     1       6.177   0.552  51.019  1.00  0.00     0.160 HD
ENDROOT
BRANCH   1   4
HETATM    4  C15 UNL     1       8.795   1.477  49.338  1.00  0.00    -0.048 C 
HETATM    5  C10 UNL     1      10.077   1.526  50.074  1.00  0.00     0.034 C 
HETATM    6  C11 UNL     1      10.339   2.854  50.776  1.00  0.00     0.011 C 
HETATM    7  C12 UNL     1      10.282   3.989  49.762  1.00  0.00     0.001 C 
HETATM    8  C13 UNL     1       8.839   4.023  49.276  1.00  0.00     0.004 C 
HETATM    9  C14 UNL     1       8.523   2.718  48.634  1.00  0.00     0.037 C 
BRANCH   5  10
HETATM   10  C9  UNL     1      11.295   1.209  49.243  1.00  0.00     0.131 C 
BRANCH  10  11
HETATM   11  N2  UNL     1      11.778  -0.098  49.651  1.00  0.00    -0.359 N 
HETATM   12  C8  UNL     1      11.431  -1.241  48.886  1.00  0.00     0.243 C 
HETATM   13  O1  UNL     1      10.724  -1.080  47.869  1.00  0.00    -0.272 OA
ATOM     14  H2  UNL     1      12.362  -0.194  50.481  1.00  0.00     0.162 HD
BRANCH  12  15
HETATM   15  C7  UNL     1      11.894  -2.562  49.288  1.00  0.00     0.338 C 
BRANCH  15  16
HETATM   16  N1  UNL     1      13.107  -3.004  48.580  1.00  0.00    -0.066 N 
HETATM   17  C5  UNL     1      13.795  -1.893  48.009  1.00  0.00     0.272 C 
HETATM   18  C6  UNL     1      12.651  -3.836  47.471  1.00  0.00     0.272 C 
BRANCH  16  19
HETATM   19  C4  UNL     1      13.857  -3.828  49.474  1.00  0.00     0.237 C 
BRANCH  19  20
HETATM   20  C3  UNL     1      14.194  -5.197  49.034  1.00  0.00     0.027 C 
BRANCH  20  21
HETATM   21  C2  UNL     1      14.812  -6.087  50.082  1.00  0.00    -0.003 C 
HETATM   22  C1  UNL     1      14.373  -7.515  49.726  1.00  0.00     0.005 C 
ENDBRANCH  20  21
ENDBRANCH  19  20
ENDBRANCH  16  19
ENDBRANCH  15  16
ENDBRANCH  12  15
ENDBRANCH  10  11
ENDBRANCH   5  10
ENDBRANCH   1   4
BRANCH   1  23
HETATM   23  C17 UNL     1       7.811  -0.661  50.072  1.00  0.00     0.018 C 
BRANCH  23  24
HETATM   24  C18 UNL     1       6.853  -1.588  49.505  1.00  0.00     0.046 C 
HETATM   25  C19 UNL     1       5.459  -1.625  50.042  1.00  0.00     0.024 C 
HETATM   26  C20 UNL     1       4.522  -2.398  49.178  1.00  0.00    -0.012 C 
HETATM   27  C21 UNL     1       4.368  -1.832  47.793  1.00  0.00     0.009 C 
HETATM   28  C25 UNL     1       5.014  -3.826  49.015  1.00  0.00     0.015 C 
HETATM   29  C22 UNL     1       5.749  -1.735  47.215  1.00  0.00    -0.012 C 
HETATM   30  C23 UNL     1       6.286  -3.151  46.985  1.00  0.00     0.015 C 
HETATM   31  C27 UNL     1       6.723  -1.025  48.046  1.00  0.00     0.024 C 
HETATM   32  C24 UNL     1       6.367  -3.764  48.340  1.00  0.00     0.060 C 
HETATM   33  C26 UNL     1       7.285  -3.021  49.304  1.00  0.00     0.258 C 
HETATM   34  F1  UNL     1       7.094  -3.736  50.503  1.00  0.00    -0.205 F 
HETATM   35  F2  UNL     1       8.551  -3.139  48.819  1.00  0.00    -0.205 F 
ENDBRANCH  23  24
ENDBRANCH   1  23
BRANCH   2  36
HETATM   36  C28 UNL     1       6.007   2.427  50.963  1.00  0.00     0.171 C 
BRANCH  36  37
HETATM   37  C29 UNL     1       5.188   3.119  49.897  1.00  0.00     0.038 C 
BRANCH  37  38
HETATM   38  C30 UNL     1       4.313   2.156  49.134  1.00  0.00    -0.020 C 
HETATM   39  C31 UNL     1       2.864   2.599  49.189  1.00  0.00     0.009 C 
HETATM   40  C32 UNL     1       4.705   2.138  47.658  1.00  0.00     0.009 C 
ENDBRANCH  37  38
ENDBRANCH  36  37
BRANCH  36  41
HETATM   41  C33 UNL     1       5.047   2.176  52.079  1.00  0.00     0.253 C 
HETATM   42  N4  UNL     1       4.170   3.147  52.611  1.00  0.00    -0.060 NA
HETATM   43  O2  UNL     1       5.018   1.029  52.575  1.00  0.00    -0.275 OA
ENDBRANCH  36  41
ENDBRANCH   2  36
TORSDOF 14
ENDMDL
MODEL 3
REMARK VINA RESULT: -8.084850910      1.844      2.638
REMARK  14 active torsions:
REMARK  status: ('A' for Active; 'I' for Inactive)
REMARK    1  A    between atoms: C2_2  and  C3_3 
REMARK    2  A    between atoms: C3_3  and  C4_4 
REMARK    3  A    between atoms: C4_4  and  N1_5 
REMARK    4  A    between atoms: N1_5  and  C7_8 
REMARK    5  A    between atoms: C7_8  and  C8_9 
REMARK       I    between atoms: C8_9  and  N2_11 
REMARK    6  A    between atoms: N2_11  and  C9_13 
REMARK    7  A    between atoms: C9_13  and  C10_14 
REMARK    8  A    between atoms: C15_19  and  C16_20 
REMARK    9  A    between atoms: C16_20  and  C17_21 
REMARK   10  A    between atoms: C17_21  and  C18_22 
REMARK   11  A    between atoms: N3_34  and  C28_36 
REMARK   12  A    between atoms: C28_36  and  C29_37 
REMARK   13  A    between atoms: C28_36  and  C33_41 
REMARK   14  A    between atoms: C29_37  and  C30_38 
ROOT
HETATM    1  C16 UNL     1       6.520   1.066  48.726  1.00  0.00     0.028 C 
HETATM    2  N3  UNL     1       5.704   1.296  49.601  1.00  0.00    -0.377 N 
ATOM      3  H3  UNL     1       4.967   0.607  49.454  1.00  0.00     0.160 HD
ENDROOT
BRANCH   1   4
HETATM    4  C15 UNL     1       7.826   1.781  48.464  1.00  0.00    -0.048 C 
HETATM    5  C10 UNL     1       8.773   1.771  49.600  1.00  0.00     0.034 C 
HETATM    6  C11 UNL     1       8.753   3.047  50.435  1.00  0.00     0.011 C 
HETATM    7  C12 UNL     1       9.031   4.248  49.541  1.00  0.00     0.001 C 
HETATM    8  C13 UNL     1       7.846   4.325  48.589  1.00  0.00     0.004 C 
HETATM    9  C14 UNL     1       7.794   3.068  47.792  1.00  0.00     0.037 C 
BRANCH   5  10
HETATM   10  C9  UNL     1      10.209   1.503  49.225  1.00  0.00     0.131 C 
BRANCH  10  11
HETATM   11  N2  UNL     1      10.254   0.219  48.547  1.00  0.00    -0.359 N 
HETATM   12  C8  UNL     1      10.735  -0.920  49.241  1.00  0.00     0.243 C 
HETATM   13  O1  UNL     1      11.097  -0.782  50.428  1.00  0.00    -0.272 OA
ATOM     14  H2  UNL     1       9.941   0.138  47.580  1.00  0.00     0.162 HD
BRANCH  12  15
HETATM   15  C7  UNL     1      10.801  -2.214  48.573  1.00  0.00     0.338 C 
BRANCH  15  16
HETATM   16  N1  UNL     1      12.168  -2.624  48.212  1.00  0.00    -0.066 N 
HETATM   17  C5  UNL     1      12.960  -1.493  47.854  1.00  0.00     0.272 C 
HETATM   18  C6  UNL     1      12.042  -3.449  47.015  1.00  0.00     0.272 C 
BRANCH  16  19
HETATM   19  C4  UNL     1      12.668  -3.445  49.268  1.00  0.00     0.237 C 
BRANCH  19  20
HETATM   20  C3  UNL     1      14.097  -3.821  49.232  1.00  0.00     0.027 C 
BRANCH  20  21
HETATM   21  C2  UNL     1      14.471  -5.042  50.033  1.00  0.00    -0.003 C 
HETATM   22  C1  UNL     1      14.484  -6.208  49.033  1.00  0.00     0.005 C 
ENDBRANCH  20  21
ENDBRANCH  19  20
ENDBRANCH  16  19
ENDBRANCH  15  16
ENDBRANCH  12  15
ENDBRANCH  10  11
ENDBRANCH   5  10
ENDBRANCH   1   4
BRANCH   1  23
HETATM   23  C17 UNL     1       6.279   0.003  47.736  1.00  0.00     0.018 C 
BRANCH  23  24
HETATM   24  C18 UNL     1       6.118  -1.402  48.046  1.00  0.00     0.046 C 
HETATM   25  C19 UNL     1       6.566  -2.430  47.057  1.00  0.00     0.024 C 
HETATM   26  C20 UNL     1       6.614  -3.806  47.628  1.00  0.00    -0.012 C 
HETATM   27  C21 UNL     1       7.575  -3.954  48.776  1.00  0.00     0.009 C 
HETATM   28  C25 UNL     1       5.244  -4.205  48.151  1.00  0.00     0.015 C 
HETATM   29  C22 UNL     1       7.194  -2.915  49.788  1.00  0.00    -0.012 C 
HETATM   30  C23 UNL     1       5.835  -3.286  50.387  1.00  0.00     0.015 C 
HETATM   31  C27 UNL     1       7.088  -1.550  49.270  1.00  0.00     0.024 C 
HETATM   32  C24 UNL     1       4.877  -3.230  49.249  1.00  0.00     0.060 C 
HETATM   33  C26 UNL     1       4.783  -1.862  48.583  1.00  0.00     0.258 C 
HETATM   34  F1  UNL     1       3.913  -2.117  47.505  1.00  0.00    -0.205 F 
HETATM   35  F2  UNL     1       4.248  -1.009  49.498  1.00  0.00    -0.205 F 
ENDBRANCH  23  24
ENDBRANCH   1  23
BRANCH   2  36
HETATM   36  C28 UNL     1       5.294   2.010  50.666  1.00  0.00     0.171 C 
BRANCH  36  37
HETATM   37  C29 UNL     1       3.989   2.769  50.571  1.00  0.00     0.038 C 
BRANCH  37  38
HETATM   38  C30 UNL     1       4.200   4.259  50.469  1.00  0.00    -0.020 C 
HETATM   39  C31 UNL     1       5.438   4.673  51.239  1.00  0.00     0.009 C 
HETATM   40  C32 UNL     1       4.437   4.664  49.015  1.00  0.00     0.009 C 
ENDBRANCH  37  38
ENDBRANCH  36  37
BRANCH  36  41
HETATM   41  C33 UNL     1       5.163   1.180  51.900  1.00  0.00     0.253 C 
HETATM   42  N4  UNL     1       4.318   1.494  52.988  1.00  0.00    -0.060 NA
HETATM   43  O2  UNL     1       5.846   0.136  51.975  1.00  0.00    -0.275 OA
ENDBRANCH  36  41
ENDBRANCH   2  36
TORSDOF 14
ENDMDL
MODEL 4
REMARK VINA RESULT: -7.965514451      2.394      5.316
REMARK  14 active torsions:
REMARK  status: ('A' for Active; 'I' for Inactive)
REMARK    1  A    between atoms: C2_2  and  C3_3 
REMARK    2  A    between atoms: C3_3  and  C4_4 
REMARK    3  A    between atoms: C4_4  and  N1_5 
REMARK    4  A    between atoms: N1_5  and  C7_8 
REMARK    5  A    between atoms: C7_8  and  C8_9 
REMARK       I    between atoms: C8_9  and  N2_11 
REMARK    6  A    between atoms: N2_11  and  C9_13 
REMARK    7  A    between atoms: C9_13  and  C10_14 
REMARK    8  A    between atoms: C15_19  and  C16_20 
REMARK    9  A    between atoms: C16_20  and  C17_21 
REMARK   10  A    between atoms: C17_21  and  C18_22 
REMARK   11  A    between atoms: N3_34  and  C28_36 
REMARK   12  A    between atoms: C28_36  and  C29_37 
REMARK   13  A    between atoms: C28_36  and  C33_41 
REMARK   14  A    between atoms: C29_37  and  C30_38 
ROOT
HETATM    1  C16 UNL     1       7.284   0.417  49.246  1.00  0.00     0.028 C 
HETATM    2  N3  UNL     1       6.419   0.939  48.564  1.00  0.00    -0.377 N 
ATOM      3  H3  UNL     1       6.696   1.919  48.504  1.00  0.00     0.160 HD
ENDROOT
BRANCH   1   4
HETATM    4  C15 UNL     1       7.389  -1.034  49.660  1.00  0.00    -0.048 C 
HETATM    5  C10 UNL     1       7.856  -1.946  48.594  1.00  0.00     0.034 C 
HETATM    6  C11 UNL     1       6.733  -2.691  47.880  1.00  0.00     0.011 C 
HETATM    7  C12 UNL     1       5.905  -3.466  48.898  1.00  0.00     0.001 C 
HETATM    8  C13 UNL     1       5.246  -2.406  49.771  1.00  0.00     0.004 C 
HETATM    9  C14 UNL     1       6.313  -1.615  50.443  1.00  0.00     0.037 C 
BRANCH   5  10
HETATM   10  C9  UNL     1       8.865  -2.975  49.039  1.00  0.00     0.131 C 
BRANCH  10  11
HETATM   11  N2  UNL     1      10.117  -2.683  48.365  1.00  0.00    -0.359 N 
HETATM   12  C8  UNL     1      11.134  -1.975  49.055  1.00  0.00     0.243 C 
HETATM   13  O1  UNL     1      10.919  -1.633  50.237  1.00  0.00    -0.272 OA
ATOM     14  H2  UNL     1      10.264  -2.985  47.402  1.00  0.00     0.162 HD
BRANCH  12  15
HETATM   15  C7  UNL     1      12.391  -1.660  48.389  1.00  0.00     0.338 C 
BRANCH  15  16
HETATM   16  N1  UNL     1      13.217  -2.843  48.096  1.00  0.00    -0.066 N 
HETATM   17  C5  UNL     1      12.515  -3.757  47.255  1.00  0.00     0.272 C 
HETATM   18  C6  UNL     1      13.427  -3.519  49.372  1.00  0.00     0.272 C 
BRANCH  16  19
HETATM   19  C4  UNL     1      14.483  -2.383  47.623  1.00  0.00     0.237 C 
BRANCH  19  20
HETATM   20  C3  UNL     1      14.801  -0.949  47.782  1.00  0.00     0.027 C 
BRANCH  20  21
HETATM   21  C2  UNL     1      16.260  -0.620  47.971  1.00  0.00    -0.003 C 
HETATM   22  C1  UNL     1      16.940  -1.947  48.343  1.00  0.00     0.005 C 
ENDBRANCH  20  21
ENDBRANCH  19  20
ENDBRANCH  16  19
ENDBRANCH  15  16
ENDBRANCH  12  15
ENDBRANCH  10  11
ENDBRANCH   5  10
ENDBRANCH   1   4
BRANCH   1  23
HETATM   23  C17 UNL     1       8.384   1.218  49.807  1.00  0.00     0.018 C 
BRANCH  23  24
HETATM   24  C18 UNL     1       8.644   2.608  49.494  1.00  0.00     0.046 C 
HETATM   25  C19 UNL     1       8.469   3.092  48.091  1.00  0.00     0.024 C 
HETATM   26  C20 UNL     1       8.481   4.579  47.981  1.00  0.00    -0.012 C 
HETATM   27  C21 UNL     1       7.372   5.252  48.743  1.00  0.00     0.009 C 
HETATM   28  C25 UNL     1       9.786   5.135  48.523  1.00  0.00     0.015 C 
HETATM   29  C22 UNL     1       7.476   4.770  50.160  1.00  0.00    -0.012 C 
HETATM   30  C23 UNL     1       8.757   5.337  50.780  1.00  0.00     0.015 C 
HETATM   31  C27 UNL     1       7.516   3.316  50.323  1.00  0.00     0.024 C 
HETATM   32  C24 UNL     1       9.870   4.749  49.984  1.00  0.00     0.060 C 
HETATM   33  C26 UNL     1       9.920   3.226  50.016  1.00  0.00     0.258 C 
HETATM   34  F1  UNL     1      10.970   2.947  49.121  1.00  0.00    -0.205 F 
HETATM   35  F2  UNL     1      10.210   2.864  51.295  1.00  0.00    -0.205 F 
ENDBRANCH  23  24
ENDBRANCH   1  23
BRANCH   2  36
HETATM   36  C28 UNL     1       5.280   0.863  47.851  1.00  0.00     0.171 C 
BRANCH  36  37
HETATM   37  C29 UNL     1       4.210   1.906  48.081  1.00  0.00     0.038 C 
BRANCH  37  38
HETATM   38  C30 UNL     1       4.387   2.626  49.394  1.00  0.00    -0.020 C 
HETATM   39  C31 UNL     1       3.754   4.002  49.333  1.00  0.00     0.009 C 
HETATM   40  C32 UNL     1       3.675   1.871  50.515  1.00  0.00     0.009 C 
ENDBRANCH  37  38
ENDBRANCH  36  37
BRANCH  36  41
HETATM   41  C33 UNL     1       5.521   0.882  46.377  1.00  0.00     0.253 C 
HETATM   42  N4  UNL     1       5.212  -0.184  45.503  1.00  0.00    -0.060 NA
HETATM   43  O2  UNL     1       6.030   1.912  45.884  1.00  0.00    -0.275 OA
ENDBRANCH  36  41
ENDBRANCH   2  36
TORSDOF 14
ENDMDL
MODEL 5
REMARK VINA RESULT: -7.959488395      2.081      3.021
REMARK  14 active torsions:
REMARK  status: ('A' for Active; 'I' for Inactive)
REMARK    1  A    between atoms: C2_2  and  C3_3 
REMARK    2  A    between atoms: C3_3  and  C4_4 
REMARK    3  A    between atoms: C4_4  and  N1_5 
REMARK    4  A    between atoms: N1_5  and  C7_8 
REMARK    5  A    between atoms: C7_8  and  C8_9 
REMARK       I    between atoms: C8_9  and  N2_11 
REMARK    6  A    between atoms: N2_11  and  C9_13 
REMARK    7  A    between atoms: C9_13  and  C10_14 
REMARK    8  A    between atoms: C15_19  and  C16_20 
REMARK    9  A    between atoms: C16_20  and  C17_21 
REMARK   10  A    between atoms: C17_21  and  C18_22 
REMARK   11  A    between atoms: N3_34  and  C28_36 
REMARK   12  A    between atoms: C28_36  and  C29_37 
REMARK   13  A    between atoms: C28_36  and  C33_41 
REMARK   14  A    between atoms: C29_37  and  C30_38 
ROOT
HETATM    1  C16 UNL     1       7.539   1.160  48.693  1.00  0.00     0.028 C 
HETATM    2  N3  UNL     1       6.499   1.442  48.123  1.00  0.00    -0.377 N 
ATOM      3  H3  UNL     1       5.837   0.728  48.428  1.00  0.00     0.160 HD
ENDROOT
BRANCH   1   4
HETATM    4  C15 UNL     1       8.864   1.884  48.616  1.00  0.00    -0.048 C 
HETATM    5  C10 UNL     1       9.761   1.651  49.769  1.00  0.00     0.034 C 
HETATM    6  C11 UNL     1       9.721   2.757  50.819  1.00  0.00     0.011 C 
HETATM    7  C12 UNL     1      10.054   4.093  50.167  1.00  0.00     0.001 C 
HETATM    8  C13 UNL     1       8.911   4.363  49.197  1.00  0.00     0.004 C 
HETATM    9  C14 UNL     1       8.878   3.271  48.186  1.00  0.00     0.037 C 
BRANCH   5  10
HETATM   10  C9  UNL     1      11.208   1.425  49.410  1.00  0.00     0.131 C 
BRANCH  10  11
HETATM   11  N2  UNL     1      11.277   0.220  48.603  1.00  0.00    -0.359 N 
HETATM   12  C8  UNL     1      11.169  -1.048  49.229  1.00  0.00     0.243 C 
HETATM   13  O1  UNL     1      11.004  -1.084  50.467  1.00  0.00    -0.272 OA
ATOM     14  H2  UNL     1      11.402   0.285  47.593  1.00  0.00     0.162 HD
BRANCH  12  15
HETATM   15  C7  UNL     1      11.250  -2.268  48.438  1.00  0.00     0.338 C 
BRANCH  15  16
HETATM   16  N1  UNL     1      12.627  -2.746  48.228  1.00  0.00    -0.066 N 
HETATM   17  C5  UNL     1      13.491  -1.667  47.875  1.00  0.00     0.272 C 
HETATM   18  C6  UNL     1      12.576  -3.642  47.077  1.00  0.00     0.272 C 
BRANCH  16  19
HETATM   19  C4  UNL     1      13.000  -3.513  49.373  1.00  0.00     0.237 C 
BRANCH  19  20
HETATM   20  C3  UNL     1      14.397  -3.987  49.462  1.00  0.00     0.027 C 
BRANCH  20  21
HETATM   21  C2  UNL     1      14.591  -5.325  50.130  1.00  0.00    -0.003 C 
HETATM   22  C1  UNL     1      14.497  -6.368  49.006  1.00  0.00     0.005 C 
ENDBRANCH  20  21
ENDBRANCH  19  20
ENDBRANCH  16  19
ENDBRANCH  15  16
ENDBRANCH  12  15
ENDBRANCH  10  11
ENDBRANCH   5  10
ENDBRANCH   1   4
BRANCH   1  23
HETATM   23  C17 UNL     1       7.623  -0.028  49.558  1.00  0.00     0.018 C 
BRANCH  23  24
HETATM   24  C18 UNL     1       6.970  -1.294  49.298  1.00  0.00     0.046 C 
HETATM   25  C19 UNL     1       7.049  -1.896  47.931  1.00  0.00     0.024 C 
HETATM   26  C20 UNL     1       6.596  -3.316  47.893  1.00  0.00    -0.012 C 
HETATM   27  C21 UNL     1       7.420  -4.238  48.749  1.00  0.00     0.009 C 
HETATM   28  C25 UNL     1       5.163  -3.424  48.385  1.00  0.00     0.015 C 
HETATM   29  C22 UNL     1       7.408  -3.659  50.133  1.00  0.00    -0.012 C 
HETATM   30  C23 UNL     1       5.992  -3.780  50.705  1.00  0.00     0.015 C 
HETATM   31  C27 UNL     1       7.799  -2.252  50.223  1.00  0.00     0.024 C 
HETATM   32  C24 UNL     1       5.140  -2.939  49.819  1.00  0.00     0.060 C 
HETATM   33  C26 UNL     1       5.548  -1.471  49.774  1.00  0.00     0.258 C 
HETATM   34  F1  UNL     1       4.666  -0.949  48.807  1.00  0.00    -0.205 F 
HETATM   35  F2  UNL     1       5.328  -0.959  51.016  1.00  0.00    -0.205 F 
ENDBRANCH  23  24
ENDBRANCH   1  23
BRANCH   2  36
HETATM   36  C28 UNL     1       5.792   2.229  47.291  1.00  0.00     0.171 C 
BRANCH  36  37
HETATM   37  C29 UNL     1       4.885   1.575  46.272  1.00  0.00     0.038 C 
BRANCH  37  38
HETATM   38  C30 UNL     1       5.604   0.534  45.451  1.00  0.00    -0.020 C 
HETATM   39  C31 UNL     1       4.860  -0.785  45.499  1.00  0.00     0.009 C 
HETATM   40  C32 UNL     1       5.652   0.953  43.983  1.00  0.00     0.009 C 
ENDBRANCH  37  38
ENDBRANCH  36  37
BRANCH  36  41
HETATM   41  C33 UNL     1       4.914   3.194  48.018  1.00  0.00     0.253 C 
HETATM   42  N4  UNL     1       4.000   2.834  49.032  1.00  0.00    -0.060 NA
HETATM   43  O2  UNL     1       4.996   4.402  47.707  1.00  0.00    -0.275 OA
ENDBRANCH  36  41
ENDBRANCH   2  36
TORSDOF 14
ENDMDL
