MODEL 1
REMARK VINA RESULT: -8.122823392      0.000      0.000
REMARK  4 active torsions:
REMARK  status: ('A' for Active; 'I' for Inactive)
REMARK    1  A    between atoms: C3_4  and  C4_5 
REMARK    2  A    between atoms: C6_12  and  N4_13 
REMARK    3  A    between atoms: C7_16  and  N5_17 
REMARK    4  A    between atoms: N5_17  and  N6_19 
ROOT
HETATM    1  C1  UNL     1      36.383  58.994   6.110  1.00  0.00     0.160 C 
HETATM    2  N1  UNL     1      35.839  59.193   7.463  1.00  0.00    -0.313 N 
HETATM    3  C2  UNL     1      35.483  60.438   7.863  1.00  0.00     0.113 A 
HETATM    4  C3  UNL     1      34.964  60.703   9.122  1.00  0.00     0.056 A 
HETATM    5  C7  UNL     1      34.835  59.597   9.948  1.00  0.00     0.137 A 
HETATM    6  N7  UNL     1      35.193  58.357   9.544  1.00  0.00    -0.292 N 
ATOM      7  H7  UNL     1      35.090  57.559  10.170  1.00  0.00     0.172 HD
HETATM    8  C8  UNL     1      35.684  58.192   8.313  1.00  0.00     0.327 A 
HETATM    9  O4  UNL     1      36.007  57.003   7.979  1.00  0.00    -0.246 OA
ENDROOT
BRANCH   4  10
HETATM   10  C4  UNL     1      34.526  62.052   9.520  1.00  0.00     0.102 A 
HETATM   11  N2  UNL     1      33.685  62.377  10.517  1.00  0.00    -0.294 N 
HETATM   12  N3  UNL     1      33.463  63.701  10.544  1.00  0.00    -0.264 N 
ATOM     13  H2  UNL     1      33.272  61.708  11.166  1.00  0.00     0.187 HD
HETATM   14  C5  UNL     1      34.145  64.296   9.570  1.00  0.00     0.295 A 
ATOM     15  H3  UNL     1      32.859  64.180  11.213  1.00  0.00     0.190 HD
HETATM   16  O1  UNL     1      34.200  65.527   9.267  1.00  0.00    -0.264 OA
HETATM   17  C6  UNL     1      34.826  63.240   8.913  1.00  0.00     0.200 A 
BRANCH  17  18
HETATM   18  N4  UNL     1      35.635  63.513   7.794  1.00  0.00    -0.107 N 
HETATM   19  O2  UNL     1      35.122  63.762   6.690  1.00  0.00    -0.531 OA
HETATM   20  O3  UNL     1      36.995  63.525   7.946  1.00  0.00    -0.531 OA
ENDBRANCH  17  18
ENDBRANCH   4  10
BRANCH   5  21
HETATM   21  N5  UNL     1      34.341  59.747  11.123  1.00  0.00    -0.291 N 
ATOM     22  H5  UNL     1      33.336  59.910  11.193  1.00  0.00     0.188 HD
BRANCH  21  23
HETATM   23  N6  UNL     1      35.060  59.707  12.294  1.00  0.00    -0.344 N 
ATOM     24  H62 UNL     1      35.375  58.786  12.600  1.00  0.00     0.176 HD
ATOM     25  H61 UNL     1      35.296  60.517  12.867  1.00  0.00     0.176 HD
ENDBRANCH  21  23
ENDBRANCH   5  21
TORSDOF 4
ENDMDL
MODEL 2
REMARK VINA RESULT: -7.571059462      3.425      4.845
REMARK  4 active torsions:
REMARK  status: ('A' for Active; 'I' for Inactive)
REMARK    1  A    between atoms: C3_4  and  C4_5 
REMARK    2  A    between atoms: C6_12  and  N4_13 
REMARK    3  A    between atoms: C7_16  and  N5_17 
REMARK    4  A    between atoms: N5_17  and  N6_19 
ROOT
HETATM    1  C1  UNL     1      35.968  58.892   8.644  1.00  0.00     0.160 C 
HETATM    2  N1  UNL     1      35.351  60.162   9.058  1.00  0.00    -0.313 N 
HETATM    3  C2  UNL     1      34.466  60.172  10.084  1.00  0.00     0.113 A 
HETATM    4  C3  UNL     1      33.845  61.329  10.530  1.00  0.00     0.056 A 
HETATM    5  C7  UNL     1      34.195  62.483   9.847  1.00  0.00     0.137 A 
HETATM    6  N7  UNL     1      35.078  62.468   8.822  1.00  0.00    -0.292 N 
ATOM      7  H7  UNL     1      35.319  63.330   8.334  1.00  0.00     0.172 HD
HETATM    8  C8  UNL     1      35.630  61.307   8.459  1.00  0.00     0.327 A 
HETATM    9  O4  UNL     1      36.457  61.346   7.487  1.00  0.00    -0.246 OA
ENDROOT
BRANCH   4  10
HETATM   10  C4  UNL     1      32.932  61.331  11.686  1.00  0.00     0.102 A 
HETATM   11  N2  UNL     1      31.818  62.067  11.846  1.00  0.00    -0.294 N 
HETATM   12  N3  UNL     1      31.275  61.857  13.056  1.00  0.00    -0.264 N 
ATOM     13  H2  UNL     1      31.437  62.699  11.143  1.00  0.00     0.187 HD
HETATM   14  C5  UNL     1      32.006  60.979  13.736  1.00  0.00     0.295 A 
ATOM     15  H3  UNL     1      30.426  62.304  13.403  1.00  0.00     0.190 HD
HETATM   16  O1  UNL     1      31.826  60.522  14.906  1.00  0.00    -0.264 OA
HETATM   17  C6  UNL     1      33.069  60.642  12.859  1.00  0.00     0.200 A 
BRANCH  17  18
HETATM   18  N4  UNL     1      34.066  59.740  13.276  1.00  0.00    -0.107 N 
HETATM   19  O2  UNL     1      35.063  60.145  13.898  1.00  0.00    -0.531 OA
HETATM   20  O3  UNL     1      33.909  58.408  13.008  1.00  0.00    -0.531 OA
ENDBRANCH  17  18
ENDBRANCH   4  10
BRANCH   5  21
HETATM   21  N5  UNL     1      33.686  63.604  10.209  1.00  0.00    -0.291 N 
ATOM     22  H5  UNL     1      32.855  63.573  10.801  1.00  0.00     0.188 HD
BRANCH  21  23
HETATM   23  N6  UNL     1      34.170  64.843   9.861  1.00  0.00    -0.344 N 
ATOM     24  H62 UNL     1      34.336  65.001   8.867  1.00  0.00     0.176 HD
ATOM     25  H61 UNL     1      34.371  65.599  10.515  1.00  0.00     0.176 HD
ENDBRANCH  21  23
ENDBRANCH   5  21
TORSDOF 4
ENDMDL
MODEL 3
REMARK VINA RESULT: -7.562793019      2.326      3.978
REMARK  4 active torsions:
REMARK  status: ('A' for Active; 'I' for Inactive)
REMARK    1  A    between atoms: C3_4  and  C4_5 
REMARK    2  A    between atoms: C6_12  and  N4_13 
REMARK    3  A    between atoms: C7_16  and  N5_17 
REMARK    4  A    between atoms: N5_17  and  N6_19 
ROOT
HETATM    1  C1  UNL     1      32.062  61.683  13.027  1.00  0.00     0.160 C 
HETATM    2  N1  UNL     1      33.127  61.126  12.179  1.00  0.00    -0.313 N 
HETATM    3  C2  UNL     1      33.465  61.758  11.029  1.00  0.00     0.113 A 
HETATM    4  C3  UNL     1      34.459  61.293  10.180  1.00  0.00     0.056 A 
HETATM    5  C7  UNL     1      35.084  60.127  10.592  1.00  0.00     0.137 A 
HETATM    6  N7  UNL     1      34.742  59.498  11.739  1.00  0.00    -0.292 N 
ATOM      7  H7  UNL     1      35.217  58.641  12.021  1.00  0.00     0.172 HD
HETATM    8  C8  UNL     1      33.774  60.017  12.499  1.00  0.00     0.327 A 
HETATM    9  O4  UNL     1      33.488  59.387  13.572  1.00  0.00    -0.246 OA
ENDROOT
BRANCH   4  10
HETATM   10  C4  UNL     1      34.855  62.027   8.965  1.00  0.00     0.102 A 
HETATM   11  N2  UNL     1      35.416  61.522   7.853  1.00  0.00    -0.294 N 
HETATM   12  N3  UNL     1      35.703  62.497   6.975  1.00  0.00    -0.264 N 
ATOM     13  H2  UNL     1      35.599  60.531   7.696  1.00  0.00     0.187 HD
HETATM   14  C5  UNL     1      35.344  63.676   7.474  1.00  0.00     0.295 A 
ATOM     15  H3  UNL     1      36.133  62.355   6.061  1.00  0.00     0.190 HD
HETATM   16  O1  UNL     1      35.447  64.830   6.956  1.00  0.00    -0.264 OA
HETATM   17  C6  UNL     1      34.801  63.375   8.749  1.00  0.00     0.200 A 
BRANCH  17  18
HETATM   18  N4  UNL     1      34.339  64.414   9.580  1.00  0.00    -0.107 N 
HETATM   19  O2  UNL     1      34.997  64.768  10.573  1.00  0.00    -0.531 OA
HETATM   20  O3  UNL     1      33.167  65.045   9.263  1.00  0.00    -0.531 OA
ENDBRANCH  17  18
ENDBRANCH   4  10
BRANCH   5  21
HETATM   21  N5  UNL     1      36.032  59.639   9.877  1.00  0.00    -0.291 N 
ATOM     22  H5  UNL     1      36.906  60.163   9.834  1.00  0.00     0.188 HD
BRANCH  21  23
HETATM   23  N6  UNL     1      35.960  58.465   9.164  1.00  0.00    -0.344 N 
ATOM     24  H62 UNL     1      35.910  58.555   8.149  1.00  0.00     0.176 HD
ATOM     25  H61 UNL     1      35.955  57.530   9.571  1.00  0.00     0.176 HD
ENDBRANCH  21  23
ENDBRANCH   5  21
TORSDOF 4
ENDMDL
MODEL 4
REMARK VINA RESULT: -7.542593367      2.521      5.336
REMARK  4 active torsions:
REMARK  status: ('A' for Active; 'I' for Inactive)
REMARK    1  A    between atoms: C3_4  and  C4_5 
REMARK    2  A    between atoms: C6_12  and  N4_13 
REMARK    3  A    between atoms: C7_16  and  N5_17 
REMARK    4  A    between atoms: N5_17  and  N6_19 
ROOT
HETATM    1  C1  UNL     1      33.455  59.090  12.835  1.00  0.00     0.160 C 
HETATM    2  N1  UNL     1      33.713  60.129  11.826  1.00  0.00    -0.313 N 
HETATM    3  C2  UNL     1      34.494  59.841  10.756  1.00  0.00     0.113 A 
HETATM    4  C3  UNL     1      34.781  60.768   9.764  1.00  0.00     0.056 A 
HETATM    5  C7  UNL     1      34.210  62.018   9.947  1.00  0.00     0.137 A 
HETATM    6  N7  UNL     1      33.434  62.301  11.017  1.00  0.00    -0.292 N 
ATOM      7  H7  UNL     1      33.026  63.229  11.131  1.00  0.00     0.172 HD
HETATM    8  C8  UNL     1      33.208  61.347  11.925  1.00  0.00     0.327 A 
HETATM    9  O4  UNL     1      32.468  61.663  12.917  1.00  0.00    -0.246 OA
ENDROOT
BRANCH   4  10
HETATM   10  C4  UNL     1      35.581  60.421   8.577  1.00  0.00     0.102 A 
HETATM   11  N2  UNL     1      36.392  61.229   7.874  1.00  0.00    -0.294 N 
HETATM   12  N3  UNL     1      36.907  60.586   6.813  1.00  0.00    -0.264 N 
ATOM     13  H2  UNL     1      36.591  62.200   8.114  1.00  0.00     0.187 HD
HETATM   14  C5  UNL     1      36.456  59.336   6.777  1.00  0.00     0.295 A 
ATOM     15  H3  UNL     1      37.550  60.997   6.135  1.00  0.00     0.190 HD
HETATM   16  O1  UNL     1      36.708  58.418   5.938  1.00  0.00    -0.264 OA
HETATM   17  C6  UNL     1      35.605  59.230   7.907  1.00  0.00     0.200 A 
BRANCH  17  18
HETATM   18  N4  UNL     1      34.925  58.024   8.163  1.00  0.00    -0.107 N 
HETATM   19  O2  UNL     1      33.869  57.756   7.565  1.00  0.00    -0.531 OA
HETATM   20  O3  UNL     1      35.457  57.141   9.063  1.00  0.00    -0.531 OA
ENDBRANCH  17  18
ENDBRANCH   4  10
BRANCH   5  21
HETATM   21  N5  UNL     1      34.405  62.930   9.065  1.00  0.00    -0.291 N 
ATOM     22  H5  UNL     1      34.734  62.632   8.146  1.00  0.00     0.188 HD
BRANCH  21  23
HETATM   23  N6  UNL     1      34.206  64.276   9.262  1.00  0.00    -0.344 N 
ATOM     24  H62 UNL     1      35.041  64.837   9.434  1.00  0.00     0.176 HD
ATOM     25  H61 UNL     1      33.300  64.744   9.248  1.00  0.00     0.176 HD
ENDBRANCH  21  23
ENDBRANCH   5  21
TORSDOF 4
ENDMDL
MODEL 5
REMARK VINA RESULT: -7.231153376      2.602      5.291
REMARK  4 active torsions:
REMARK  status: ('A' for Active; 'I' for Inactive)
REMARK    1  A    between atoms: C3_4  and  C4_5 
REMARK    2  A    between atoms: C6_12  and  N4_13 
REMARK    3  A    between atoms: C7_16  and  N5_17 
REMARK    4  A    between atoms: N5_17  and  N6_19 
ROOT
HETATM    1  C1  UNL     1      33.763  65.771   9.031  1.00  0.00     0.160 C 
HETATM    2  N1  UNL     1      34.327  64.434   8.784  1.00  0.00    -0.313 N 
HETATM    3  C2  UNL     1      34.187  63.466   9.723  1.00  0.00     0.113 A 
HETATM    4  C3  UNL     1      34.690  62.184   9.561  1.00  0.00     0.056 A 
HETATM    5  C7  UNL     1      35.352  61.960   8.364  1.00  0.00     0.137 A 
HETATM    6  N7  UNL     1      35.491  62.930   7.431  1.00  0.00    -0.292 N 
ATOM      7  H7  UNL     1      35.984  62.741   6.558  1.00  0.00     0.172 HD
HETATM    8  C8  UNL     1      34.973  64.138   7.669  1.00  0.00     0.327 A 
HETATM    9  O4  UNL     1      35.131  65.018   6.758  1.00  0.00    -0.246 OA
ENDROOT
BRANCH   4  10
HETATM   10  C4  UNL     1      34.475  61.127  10.565  1.00  0.00     0.102 A 
HETATM   11  N2  UNL     1      35.112  59.947  10.657  1.00  0.00    -0.294 N 
HETATM   12  N3  UNL     1      34.608  59.207  11.658  1.00  0.00    -0.264 N 
ATOM     13  H2  UNL     1      35.875  59.653  10.048  1.00  0.00     0.187 HD
HETATM   14  C5  UNL     1      33.625  59.869  12.261  1.00  0.00     0.295 A 
ATOM     15  H3  UNL     1      34.932  58.275  11.919  1.00  0.00     0.190 HD
HETATM   16  O1  UNL     1      32.905  59.514  13.243  1.00  0.00    -0.264 OA
HETATM   17  C6  UNL     1      33.539  61.099  11.560  1.00  0.00     0.200 A 
BRANCH  17  18
HETATM   18  N4  UNL     1      32.565  62.049  11.923  1.00  0.00    -0.107 N 
HETATM   19  O2  UNL     1      32.901  63.162  12.362  1.00  0.00    -0.531 OA
HETATM   20  O3  UNL     1      31.242  61.736  11.763  1.00  0.00    -0.531 OA
ENDBRANCH  17  18
ENDBRANCH   4  10
BRANCH   5  21
HETATM   21  N5  UNL     1      35.830  60.794   8.121  1.00  0.00    -0.291 N 
ATOM     22  H5  UNL     1      35.475  60.016   8.678  1.00  0.00     0.188 HD
BRANCH  21  23
HETATM   23  N6  UNL     1      36.782  60.511   7.170  1.00  0.00    -0.344 N 
ATOM     24  H62 UNL     1      36.929  61.221   6.452  1.00  0.00     0.176 HD
ATOM     25  H61 UNL     1      37.339  59.658   7.134  1.00  0.00     0.176 HD
ENDBRANCH  21  23
ENDBRANCH   5  21
TORSDOF 4
ENDMDL
