MODEL 1
REMARK VINA RESULT: -7.317037818      0.000      0.000
REMARK  4 active torsions:
REMARK  status: ('A' for Active; 'I' for Inactive)
REMARK    1  A    between atoms: N1_2  and  N2_4 
REMARK    2  A    between atoms: N5_12  and  C4_14 
REMARK    3  A    between atoms: C4_14  and  N6_15 
REMARK    4  A    between atoms: C6_22  and  N8_23 
ROOT
HETATM    1  N2  UNL     1      33.238  61.854  11.427  1.00  0.00    -0.268 N 
ATOM      2  H2  UNL     1      32.669  62.462  12.016  1.00  0.00     0.190 HD
HETATM    3  C2  UNL     1      33.853  62.368  10.415  1.00  0.00     0.261 A 
HETATM    4  N3  UNL     1      33.822  63.655  10.045  1.00  0.00    -0.261 N 
ATOM      5  H3  UNL     1      33.308  64.403  10.510  1.00  0.00     0.190 HD
HETATM    6  N4  UNL     1      34.580  63.781   8.961  1.00  0.00    -0.262 N 
ATOM      7  H4  UNL     1      34.759  64.639   8.439  1.00  0.00     0.190 HD
HETATM    8  C3  UNL     1      35.064  62.560   8.684  1.00  0.00     0.245 A 
HETATM    9  N5  UNL     1      35.840  62.269   7.709  1.00  0.00    -0.309 N 
ATOM     10  H5  UNL     1      36.124  63.018   7.079  1.00  0.00     0.166 HD
HETATM   11  O1  UNL     1      34.624  61.701   9.566  1.00  0.00    -0.243 OA
ENDROOT
BRANCH   9  12
HETATM   12  C4  UNL     1      36.329  60.950   7.457  1.00  0.00     0.287 C 
HETATM   13  C5  UNL     1      35.692  60.445   6.176  1.00  0.00     0.136 C 
HETATM   14  N7  UNL     1      35.434  59.076   6.238  1.00  0.00    -0.345 N 
HETATM   15  C6  UNL     1      35.311  58.477   7.328  1.00  0.00     0.145 C 
ATOM     16  H7  UNL     1      35.344  58.550   5.369  1.00  0.00     0.167 HD
HETATM   17  S1  UNL     1      35.547  59.731   8.599  1.00  0.00    -0.028 SA
BRANCH  12  18
HETATM   18  N6  UNL     1      37.754  60.831   7.463  1.00  0.00    -0.037 N 
ATOM     19  H63 UNL     1      38.177  61.670   7.859  1.00  0.00     0.278 HD
ATOM     20  H62 UNL     1      38.049  60.141   8.155  1.00  0.00     0.278 HD
ATOM     21  H61 UNL     1      38.169  60.619   6.556  1.00  0.00     0.278 HD
ENDBRANCH  12  18
BRANCH  15  22
HETATM   22  N8  UNL     1      35.051  57.110   7.637  1.00  0.00    -0.370 N 
HETATM   23  C7  UNL     1      34.135  56.339   6.812  1.00  0.00     0.151 C 
HETATM   24  C8  UNL     1      35.684  56.481   8.757  1.00  0.00     0.151 C 
ENDBRANCH  15  22
ENDBRANCH   9  12
BRANCH   1  25
HETATM   25  N1  UNL     1      33.322  60.512  11.742  1.00  0.00    -0.338 N 
HETATM   26  C1  UNL     1      34.281  60.064  12.733  1.00  0.00     0.167 C 
ATOM     27  H1  UNL     1      32.711  59.839  11.279  1.00  0.00     0.179 HD
ENDBRANCH   1  25
TORSDOF 4
ENDMDL
MODEL 2
REMARK VINA RESULT: -6.939309072      3.193      5.268
REMARK  4 active torsions:
REMARK  status: ('A' for Active; 'I' for Inactive)
REMARK    1  A    between atoms: N1_2  and  N2_4 
REMARK    2  A    between atoms: N5_12  and  C4_14 
REMARK    3  A    between atoms: C4_14  and  N6_15 
REMARK    4  A    between atoms: C6_22  and  N8_23 
ROOT
HETATM    1  N2  UNL     1      33.830  66.964   6.303  1.00  0.00    -0.268 N 
ATOM      2  H2  UNL     1      33.447  67.613   5.616  1.00  0.00     0.190 HD
HETATM    3  C2  UNL     1      34.216  65.797   5.908  1.00  0.00     0.261 A 
HETATM    4  N3  UNL     1      34.164  65.335   4.652  1.00  0.00    -0.261 N 
ATOM      5  H3  UNL     1      33.813  65.840   3.838  1.00  0.00     0.190 HD
HETATM    6  N4  UNL     1      34.652  64.099   4.658  1.00  0.00    -0.262 N 
ATOM      7  H4  UNL     1      34.747  63.478   3.854  1.00  0.00     0.190 HD
HETATM    8  C3  UNL     1      34.995  63.824   5.926  1.00  0.00     0.245 A 
HETATM    9  N5  UNL     1      35.503  62.726   6.340  1.00  0.00    -0.309 N 
ATOM     10  H5  UNL     1      35.669  61.985   5.660  1.00  0.00     0.166 HD
HETATM   11  O1  UNL     1      34.730  64.855   6.686  1.00  0.00    -0.243 OA
ENDROOT
BRANCH   9  12
HETATM   12  C4  UNL     1      35.852  62.483   7.705  1.00  0.00     0.287 C 
HETATM   13  C5  UNL     1      35.873  60.982   7.927  1.00  0.00     0.136 C 
HETATM   14  N7  UNL     1      35.419  60.647   9.203  1.00  0.00    -0.345 N 
HETATM   15  C6  UNL     1      34.680  61.412   9.861  1.00  0.00     0.145 C 
ATOM     16  H7  UNL     1      35.698  59.755   9.609  1.00  0.00     0.167 HD
HETATM   17  S1  UNL     1      34.432  62.860   8.821  1.00  0.00    -0.028 SA
BRANCH  12  18
HETATM   18  N6  UNL     1      37.046  63.135   8.142  1.00  0.00    -0.037 N 
ATOM     19  H63 UNL     1      37.861  62.558   7.933  1.00  0.00     0.278 HD
ATOM     20  H62 UNL     1      37.245  63.942   7.551  1.00  0.00     0.278 HD
ATOM     21  H61 UNL     1      37.048  63.408   9.125  1.00  0.00     0.278 HD
ENDBRANCH  12  18
BRANCH  15  22
HETATM   22  N8  UNL     1      34.101  61.288  11.157  1.00  0.00    -0.370 N 
HETATM   23  C7  UNL     1      34.548  60.239  12.059  1.00  0.00     0.151 C 
HETATM   24  C8  UNL     1      33.076  62.192  11.588  1.00  0.00     0.151 C 
ENDBRANCH  15  22
ENDBRANCH   9  12
BRANCH   1  25
HETATM   25  N1  UNL     1      33.916  67.365   7.621  1.00  0.00    -0.338 N 
HETATM   26  C1  UNL     1      33.745  68.766   7.959  1.00  0.00     0.167 C 
ATOM     27  H1  UNL     1      34.099  66.680   8.354  1.00  0.00     0.179 HD
ENDBRANCH   1  25
TORSDOF 4
ENDMDL
MODEL 3
REMARK VINA RESULT: -6.886321765      5.421      6.562
REMARK  4 active torsions:
REMARK  status: ('A' for Active; 'I' for Inactive)
REMARK    1  A    between atoms: N1_2  and  N2_4 
REMARK    2  A    between atoms: N5_12  and  C4_14 
REMARK    3  A    between atoms: C4_14  and  N6_15 
REMARK    4  A    between atoms: C6_22  and  N8_23 
ROOT
HETATM    1  N2  UNL     1      34.678  64.644   8.357  1.00  0.00    -0.268 N 
ATOM      2  H2  UNL     1      34.649  65.024   9.303  1.00  0.00     0.190 HD
HETATM    3  C2  UNL     1      34.381  65.417   7.367  1.00  0.00     0.261 A 
HETATM    4  N3  UNL     1      34.028  66.706   7.454  1.00  0.00    -0.261 N 
ATOM      5  H3  UNL     1      33.944  67.251   8.311  1.00  0.00     0.190 HD
HETATM    6  N4  UNL     1      33.805  67.146   6.220  1.00  0.00    -0.262 N 
ATOM      7  H4  UNL     1      33.520  68.088   5.951  1.00  0.00     0.190 HD
HETATM    8  C3  UNL     1      34.026  66.111   5.394  1.00  0.00     0.245 A 
HETATM    9  N5  UNL     1      33.915  66.136   4.120  1.00  0.00    -0.309 N 
ATOM     10  H5  UNL     1      33.635  67.011   3.678  1.00  0.00     0.166 HD
HETATM   11  O1  UNL     1      34.376  65.060   6.090  1.00  0.00    -0.243 OA
ENDROOT
BRANCH   9  12
HETATM   12  C4  UNL     1      34.163  65.004   3.284  1.00  0.00     0.287 C 
HETATM   13  C5  UNL     1      34.163  65.472   1.841  1.00  0.00     0.136 C 
HETATM   14  N7  UNL     1      33.616  64.511   0.991  1.00  0.00    -0.345 N 
HETATM   15  C6  UNL     1      32.834  63.629   1.409  1.00  0.00     0.145 C 
ATOM     16  H7  UNL     1      33.861  64.528   0.002  1.00  0.00     0.167 HD
HETATM   17  S1  UNL     1      32.668  63.929   3.177  1.00  0.00    -0.028 SA
BRANCH  12  18
HETATM   18  N6  UNL     1      35.325  64.247   3.631  1.00  0.00    -0.037 N 
ATOM     19  H63 UNL     1      35.943  64.801   4.225  1.00  0.00     0.278 HD
ATOM     20  H62 UNL     1      35.080  63.500   4.280  1.00  0.00     0.278 HD
ATOM     21  H61 UNL     1      35.842  63.870   2.837  1.00  0.00     0.278 HD
ENDBRANCH  12  18
BRANCH  15  22
HETATM   22  N8  UNL     1      32.162  62.563   0.744  1.00  0.00    -0.370 N 
HETATM   23  C7  UNL     1      30.746  62.674   0.436  1.00  0.00     0.151 C 
HETATM   24  C8  UNL     1      32.869  61.374   0.371  1.00  0.00     0.151 C 
ENDBRANCH  15  22
ENDBRANCH   9  12
BRANCH   1  25
HETATM   25  N1  UNL     1      35.033  63.321   8.183  1.00  0.00    -0.338 N 
HETATM   26  C1  UNL     1      34.689  62.344   9.199  1.00  0.00     0.167 C 
ATOM     27  H1  UNL     1      35.534  63.031   7.344  1.00  0.00     0.179 HD
ENDBRANCH   1  25
TORSDOF 4
ENDMDL
MODEL 4
REMARK VINA RESULT: -6.730723421      5.486      6.708
REMARK  4 active torsions:
REMARK  status: ('A' for Active; 'I' for Inactive)
REMARK    1  A    between atoms: N1_2  and  N2_4 
REMARK    2  A    between atoms: N5_12  and  C4_14 
REMARK    3  A    between atoms: C4_14  and  N6_15 
REMARK    4  A    between atoms: C6_22  and  N8_23 
ROOT
HETATM    1  N2  UNL     1      34.810  64.401   8.167  1.00  0.00    -0.268 N 
ATOM      2  H2  UNL     1      34.798  64.745   9.127  1.00  0.00     0.190 HD
HETATM    3  C2  UNL     1      34.464  65.201   7.215  1.00  0.00     0.261 A 
HETATM    4  N3  UNL     1      34.080  66.476   7.359  1.00  0.00    -0.261 N 
ATOM      5  H3  UNL     1      34.007  66.987   8.238  1.00  0.00     0.190 HD
HETATM    6  N4  UNL     1      33.810  66.954   6.149  1.00  0.00    -0.262 N 
ATOM      7  H4  UNL     1      33.493  67.897   5.924  1.00  0.00     0.190 HD
HETATM    8  C3  UNL     1      34.035  65.956   5.280  1.00  0.00     0.245 A 
HETATM    9  N5  UNL     1      33.886  66.025   4.011  1.00  0.00    -0.309 N 
ATOM     10  H5  UNL     1      33.571  66.907   3.610  1.00  0.00     0.166 HD
HETATM   11  O1  UNL     1      34.432  64.891   5.926  1.00  0.00    -0.243 OA
ENDROOT
BRANCH   9  12
HETATM   12  C4  UNL     1      34.139  64.931   3.127  1.00  0.00     0.287 C 
HETATM   13  C5  UNL     1      34.062  65.446   1.702  1.00  0.00     0.136 C 
HETATM   14  N7  UNL     1      33.516  64.494   0.842  1.00  0.00    -0.345 N 
HETATM   15  C6  UNL     1      32.784  63.571   1.260  1.00  0.00     0.145 C 
ATOM     16  H7  UNL     1      33.719  64.553  -0.155  1.00  0.00     0.167 HD
HETATM   17  S1  UNL     1      32.680  63.805   3.043  1.00  0.00    -0.028 SA
BRANCH  12  18
HETATM   18  N6  UNL     1      35.341  64.206   3.401  1.00  0.00    -0.037 N 
ATOM     19  H63 UNL     1      35.132  63.368   3.942  1.00  0.00     0.278 HD
ATOM     20  H62 UNL     1      35.700  63.781   2.547  1.00  0.00     0.278 HD
ATOM     21  H61 UNL     1      36.072  64.751   3.859  1.00  0.00     0.278 HD
ENDBRANCH  12  18
BRANCH  15  22
HETATM   22  N8  UNL     1      32.123  62.503   0.586  1.00  0.00    -0.370 N 
HETATM   23  C7  UNL     1      32.866  61.317   0.195  1.00  0.00     0.151 C 
HETATM   24  C8  UNL     1      30.724  62.584   0.287  1.00  0.00     0.151 C 
ENDBRANCH  15  22
ENDBRANCH   9  12
BRANCH   1  25
HETATM   25  N1  UNL     1      35.194  63.095   7.934  1.00  0.00    -0.338 N 
HETATM   26  C1  UNL     1      36.598  62.736   7.996  1.00  0.00     0.167 C 
ATOM     27  H1  UNL     1      34.493  62.385   7.720  1.00  0.00     0.179 HD
ENDBRANCH   1  25
TORSDOF 4
ENDMDL
MODEL 5
REMARK VINA RESULT: -6.694066260      5.428      6.649
REMARK  4 active torsions:
REMARK  status: ('A' for Active; 'I' for Inactive)
REMARK    1  A    between atoms: N1_2  and  N2_4 
REMARK    2  A    between atoms: N5_12  and  C4_14 
REMARK    3  A    between atoms: C4_14  and  N6_15 
REMARK    4  A    between atoms: C6_22  and  N8_23 
ROOT
HETATM    1  N2  UNL     1      35.524  63.354   7.792  1.00  0.00    -0.268 N 
ATOM      2  H2  UNL     1      35.645  63.518   8.791  1.00  0.00     0.190 HD
HETATM    3  C2  UNL     1      34.997  64.284   7.068  1.00  0.00     0.261 A 
HETATM    4  N3  UNL     1      34.579  65.479   7.505  1.00  0.00    -0.261 N 
ATOM      5  H3  UNL     1      34.620  65.816   8.467  1.00  0.00     0.190 HD
HETATM    6  N4  UNL     1      34.102  66.145   6.459  1.00  0.00    -0.262 N 
ATOM      7  H4  UNL     1      33.709  67.087   6.465  1.00  0.00     0.190 HD
HETATM    8  C3  UNL     1      34.236  65.340   5.394  1.00  0.00     0.245 A 
HETATM    9  N5  UNL     1      33.889  65.624   4.196  1.00  0.00    -0.309 N 
ATOM     10  H5  UNL     1      33.473  66.538   4.019  1.00  0.00     0.166 HD
HETATM   11  O1  UNL     1      34.779  64.209   5.763  1.00  0.00    -0.243 OA
ENDROOT
BRANCH   9  12
HETATM   12  C4  UNL     1      34.053  64.730   3.093  1.00  0.00     0.287 C 
HETATM   13  C5  UNL     1      33.695  65.476   1.822  1.00  0.00     0.136 C 
HETATM   14  N7  UNL     1      33.069  64.640   0.897  1.00  0.00    -0.345 N 
HETATM   15  C6  UNL     1      32.483  63.592   1.247  1.00  0.00     0.145 C 
ATOM     16  H7  UNL     1      33.090  64.890  -0.091  1.00  0.00     0.167 HD
HETATM   17  S1  UNL     1      32.678  63.502   3.035  1.00  0.00    -0.028 SA
BRANCH  12  18
HETATM   18  N6  UNL     1      35.329  64.087   3.030  1.00  0.00    -0.037 N 
ATOM     19  H63 UNL     1      35.396  63.518   2.187  1.00  0.00     0.278 HD
ATOM     20  H62 UNL     1      36.061  64.771   2.842  1.00  0.00     0.278 HD
ATOM     21  H61 UNL     1      35.567  63.532   3.852  1.00  0.00     0.278 HD
ENDBRANCH  12  18
BRANCH  15  22
HETATM   22  N8  UNL     1      31.784  62.600   0.500  1.00  0.00    -0.370 N 
HETATM   23  C7  UNL     1      30.419  62.843   0.064  1.00  0.00     0.151 C 
HETATM   24  C8  UNL     1      32.414  61.356   0.169  1.00  0.00     0.151 C 
ENDBRANCH  15  22
ENDBRANCH   9  12
BRANCH   1  25
HETATM   25  N1  UNL     1      35.930  62.144   7.263  1.00  0.00    -0.338 N 
HETATM   26  C1  UNL     1      36.129  61.006   8.140  1.00  0.00     0.167 C 
ATOM     27  H1  UNL     1      36.088  62.051   6.260  1.00  0.00     0.179 HD
ENDBRANCH   1  25
TORSDOF 4
ENDMDL
