MODEL 1
REMARK VINA RESULT: -6.637442739      0.000      0.000
REMARK  4 active torsions:
REMARK  status: ('A' for Active; 'I' for Inactive)
REMARK    1  A    between atoms: C3_6  and  N3_7 
REMARK    2  A    between atoms: N3_7  and  C4_9 
REMARK    3  A    between atoms: C4_9  and  C5_10 
REMARK    4  A    between atoms: C5_10  and  C6_11 
ROOT
HETATM    1  N1  UNL     1      10.395  32.974  39.727  1.00  0.00    -0.188 NA
HETATM    2  C1  UNL     1      10.098  32.245  38.872  1.00  0.00     0.139 C 
HETATM    3  C2  UNL     1       9.719  31.356  37.807  1.00  0.00     0.217 A 
HETATM    4  N2  UNL     1      10.556  31.029  36.799  1.00  0.00    -0.164 N 
ATOM      5  H2  UNL     1      11.512  31.368  36.693  1.00  0.00     0.186 HD
HETATM    6  C3  UNL     1       9.931  30.189  35.961  1.00  0.00     0.694 A 
HETATM    7  N4  UNL     1       8.693  30.021  36.493  1.00  0.00    -0.130 N 
ATOM      8  H4  UNL     1       7.966  29.432  36.086  1.00  0.00     0.205 HD
HETATM    9  N5  UNL     1       8.552  30.718  37.605  1.00  0.00    -0.262 N 
ATOM     10  H5  UNL     1       7.722  30.764  38.196  1.00  0.00     0.190 HD
ENDROOT
BRANCH   6  11
HETATM   11  N3  UNL     1      10.392  29.644  34.872  1.00  0.00    -0.224 N 
ATOM     12  H3  UNL     1       9.957  28.820  34.457  1.00  0.00     0.177 HD
BRANCH  11  13
HETATM   13  C4  UNL     1      11.554  30.275  34.283  1.00  0.00     0.142 C 
BRANCH  13  14
HETATM   14  C5  UNL     1      12.654  29.237  34.048  1.00  0.00     0.058 C 
BRANCH  14  15
HETATM   15  C6  UNL     1      13.068  29.233  32.630  1.00  0.00    -0.057 A 
HETATM   16  C7  UNL     1      13.118  30.371  31.852  1.00  0.00     0.007 A 
HETATM   17  C8  UNL     1      13.504  30.373  30.529  1.00  0.00     0.001 A 
HETATM   18  C9  UNL     1      13.858  29.161  29.968  1.00  0.00     0.000 A 
HETATM   19  C10 UNL     1      13.825  27.986  30.706  1.00  0.00     0.001 A 
HETATM   20  C11 UNL     1      13.433  28.040  32.022  1.00  0.00     0.007 A 
ENDBRANCH  14  15
ENDBRANCH  13  14
ENDBRANCH  11  13
ENDBRANCH   6  11
TORSDOF 4
ENDMDL
MODEL 2
REMARK VINA RESULT: -6.633542405      0.037      1.194
REMARK  4 active torsions:
REMARK  status: ('A' for Active; 'I' for Inactive)
REMARK    1  A    between atoms: C3_6  and  N3_7 
REMARK    2  A    between atoms: N3_7  and  C4_9 
REMARK    3  A    between atoms: C4_9  and  C5_10 
REMARK    4  A    between atoms: C5_10  and  C6_11 
ROOT
HETATM    1  N1  UNL     1      10.403  32.978  39.731  1.00  0.00    -0.188 NA
HETATM    2  C1  UNL     1      10.104  32.252  38.876  1.00  0.00     0.139 C 
HETATM    3  C2  UNL     1       9.720  31.366  37.810  1.00  0.00     0.217 A 
HETATM    4  N2  UNL     1      10.551  31.047  36.794  1.00  0.00    -0.164 N 
ATOM      5  H2  UNL     1      11.505  31.390  36.682  1.00  0.00     0.186 HD
HETATM    6  C3  UNL     1       9.923  30.207  35.958  1.00  0.00     0.694 A 
HETATM    7  N4  UNL     1       8.690  30.031  36.499  1.00  0.00    -0.130 N 
ATOM      8  H4  UNL     1       7.962  29.440  36.095  1.00  0.00     0.205 HD
HETATM    9  N5  UNL     1       8.555  30.723  37.615  1.00  0.00    -0.262 N 
ATOM     10  H5  UNL     1       7.729  30.763  38.212  1.00  0.00     0.190 HD
ENDROOT
BRANCH   6  11
HETATM   11  N3  UNL     1      10.378  29.669  34.862  1.00  0.00    -0.224 N 
ATOM     12  H3  UNL     1       9.932  28.857  34.436  1.00  0.00     0.177 HD
BRANCH  11  13
HETATM   13  C4  UNL     1      11.551  30.289  34.284  1.00  0.00     0.142 C 
BRANCH  13  14
HETATM   14  C5  UNL     1      12.654  29.246  34.087  1.00  0.00     0.058 C 
BRANCH  14  15
HETATM   15  C6  UNL     1      13.066  29.190  32.669  1.00  0.00    -0.057 A 
HETATM   16  C7  UNL     1      13.414  28.020  32.026  1.00  0.00     0.007 A 
HETATM   17  C8  UNL     1      13.798  27.964  30.704  1.00  0.00     0.001 A 
HETATM   18  C9  UNL     1      13.832  29.151  29.999  1.00  0.00     0.000 A 
HETATM   19  C10 UNL     1      13.492  30.357  30.599  1.00  0.00     0.001 A 
HETATM   20  C11 UNL     1      13.115  30.358  31.920  1.00  0.00     0.007 A 
ENDBRANCH  14  15
ENDBRANCH  13  14
ENDBRANCH  11  13
ENDBRANCH   6  11
TORSDOF 4
ENDMDL
MODEL 3
REMARK VINA RESULT: -6.295873844      4.699      6.831
REMARK  4 active torsions:
REMARK  status: ('A' for Active; 'I' for Inactive)
REMARK    1  A    between atoms: C3_6  and  N3_7 
REMARK    2  A    between atoms: N3_7  and  C4_9 
REMARK    3  A    between atoms: C4_9  and  C5_10 
REMARK    4  A    between atoms: C5_10  and  C6_11 
ROOT
HETATM    1  N1  UNL     1      12.231  31.815  32.984  1.00  0.00    -0.188 NA
HETATM    2  C1  UNL     1      12.490  30.961  32.241  1.00  0.00     0.139 C 
HETATM    3  C2  UNL     1      12.827  29.913  31.316  1.00  0.00     0.217 A 
HETATM    4  N2  UNL     1      13.143  28.663  31.716  1.00  0.00    -0.164 N 
ATOM      5  H2  UNL     1      13.175  28.343  32.684  1.00  0.00     0.186 HD
HETATM    6  C3  UNL     1      13.409  27.909  30.639  1.00  0.00     0.694 A 
HETATM    7  N4  UNL     1      13.245  28.741  29.579  1.00  0.00    -0.130 N 
ATOM      8  H4  UNL     1      13.376  28.467  28.605  1.00  0.00     0.205 HD
HETATM    9  N5  UNL     1      12.894  29.952  29.973  1.00  0.00    -0.262 N 
ATOM     10  H5  UNL     1      12.710  30.758  29.376  1.00  0.00     0.190 HD
ENDROOT
BRANCH   6  11
HETATM   11  N3  UNL     1      13.752  26.653  30.598  1.00  0.00    -0.224 N 
ATOM     12  H3  UNL     1      14.673  26.336  30.902  1.00  0.00     0.177 HD
BRANCH  11  13
HETATM   13  C4  UNL     1      12.754  25.732  30.096  1.00  0.00     0.142 C 
BRANCH  13  14
HETATM   14  C5  UNL     1      11.663  25.514  31.147  1.00  0.00     0.058 C 
BRANCH  14  15
HETATM   15  C6  UNL     1      10.375  25.194  30.497  1.00  0.00    -0.057 A 
HETATM   16  C7  UNL     1       9.294  24.671  31.175  1.00  0.00     0.007 A 
HETATM   17  C8  UNL     1       8.091  24.371  30.573  1.00  0.00     0.001 A 
HETATM   18  C9  UNL     1       7.979  24.614  29.218  1.00  0.00     0.000 A 
HETATM   19  C10 UNL     1       9.037  25.140  28.489  1.00  0.00     0.001 A 
HETATM   20  C11 UNL     1      10.215  25.422  29.137  1.00  0.00     0.007 A 
ENDBRANCH  14  15
ENDBRANCH  13  14
ENDBRANCH  11  13
ENDBRANCH   6  11
TORSDOF 4
ENDMDL
MODEL 4
REMARK VINA RESULT: -6.265829601      4.677      6.781
REMARK  4 active torsions:
REMARK  status: ('A' for Active; 'I' for Inactive)
REMARK    1  A    between atoms: C3_6  and  N3_7 
REMARK    2  A    between atoms: N3_7  and  C4_9 
REMARK    3  A    between atoms: C4_9  and  C5_10 
REMARK    4  A    between atoms: C5_10  and  C6_11 
ROOT
HETATM    1  N1  UNL     1      12.229  31.812  32.985  1.00  0.00    -0.188 NA
HETATM    2  C1  UNL     1      12.492  30.954  32.247  1.00  0.00     0.139 C 
HETATM    3  C2  UNL     1      12.833  29.900  31.329  1.00  0.00     0.217 A 
HETATM    4  N2  UNL     1      13.180  28.662  31.740  1.00  0.00    -0.164 N 
ATOM      5  H2  UNL     1      13.234  28.355  32.711  1.00  0.00     0.186 HD
HETATM    6  C3  UNL     1      13.442  27.899  30.668  1.00  0.00     0.694 A 
HETATM    7  N4  UNL     1      13.244  28.716  29.600  1.00  0.00    -0.130 N 
ATOM      8  H4  UNL     1      13.364  28.432  28.627  1.00  0.00     0.205 HD
HETATM    9  N5  UNL     1      12.877  29.924  29.985  1.00  0.00    -0.262 N 
ATOM     10  H5  UNL     1      12.667  30.719  29.382  1.00  0.00     0.190 HD
ENDROOT
BRANCH   6  11
HETATM   11  N3  UNL     1      13.808  26.650  30.636  1.00  0.00    -0.224 N 
ATOM     12  H3  UNL     1      14.734  26.352  30.941  1.00  0.00     0.177 HD
BRANCH  11  13
HETATM   13  C4  UNL     1      12.826  25.707  30.142  1.00  0.00     0.142 C 
BRANCH  13  14
HETATM   14  C5  UNL     1      11.694  25.546  31.159  1.00  0.00     0.058 C 
BRANCH  14  15
HETATM   15  C6  UNL     1      10.425  25.227  30.473  1.00  0.00    -0.057 A 
HETATM   16  C7  UNL     1      10.220  25.429  29.124  1.00  0.00     0.007 A 
HETATM   17  C8  UNL     1       9.038  25.132  28.480  1.00  0.00     0.001 A 
HETATM   18  C9  UNL     1       8.014  24.604  29.242  1.00  0.00     0.000 A 
HETATM   19  C10 UNL     1       8.167  24.381  30.604  1.00  0.00     0.001 A 
HETATM   20  C11 UNL     1       9.366  24.694  31.196  1.00  0.00     0.007 A 
ENDBRANCH  14  15
ENDBRANCH  13  14
ENDBRANCH  11  13
ENDBRANCH   6  11
TORSDOF 4
ENDMDL
MODEL 5
REMARK VINA RESULT: -6.255913530      1.099      1.751
REMARK  4 active torsions:
REMARK  status: ('A' for Active; 'I' for Inactive)
REMARK    1  A    between atoms: C3_6  and  N3_7 
REMARK    2  A    between atoms: N3_7  and  C4_9 
REMARK    3  A    between atoms: C4_9  and  C5_10 
REMARK    4  A    between atoms: C5_10  and  C6_11 
ROOT
HETATM    1  N1  UNL     1      10.632  32.638  41.190  1.00  0.00    -0.188 NA
HETATM    2  C1  UNL     1      10.410  32.423  40.070  1.00  0.00     0.139 C 
HETATM    3  C2  UNL     1      10.147  32.170  38.679  1.00  0.00     0.217 A 
HETATM    4  N2  UNL     1      10.457  30.999  38.082  1.00  0.00    -0.164 N 
ATOM      5  H2  UNL     1      10.894  30.200  38.540  1.00  0.00     0.186 HD
HETATM    6  C3  UNL     1      10.097  31.054  36.791  1.00  0.00     0.694 A 
HETATM    7  N4  UNL     1       9.563  32.293  36.628  1.00  0.00    -0.130 N 
ATOM      8  H4  UNL     1       9.193  32.649  35.747  1.00  0.00     0.205 HD
HETATM    9  N5  UNL     1       9.587  32.975  37.758  1.00  0.00    -0.262 N 
ATOM     10  H5  UNL     1       9.248  33.925  37.904  1.00  0.00     0.190 HD
ENDROOT
BRANCH   6  11
HETATM   11  N3  UNL     1      10.225  30.135  35.877  1.00  0.00    -0.224 N 
ATOM     12  H3  UNL     1       9.667  29.281  35.891  1.00  0.00     0.177 HD
BRANCH  11  13
HETATM   13  C4  UNL     1      11.202  30.393  34.840  1.00  0.00     0.142 C 
BRANCH  13  14
HETATM   14  C5  UNL     1      12.021  29.131  34.563  1.00  0.00     0.058 C 
BRANCH  14  15
HETATM   15  C6  UNL     1      12.624  29.191  33.215  1.00  0.00    -0.057 A 
HETATM   16  C7  UNL     1      13.162  28.094  32.575  1.00  0.00     0.007 A 
HETATM   17  C8  UNL     1      13.725  28.146  31.319  1.00  0.00     0.001 A 
HETATM   18  C9  UNL     1      13.742  29.370  30.679  1.00  0.00     0.000 A 
HETATM   19  C10 UNL     1      13.213  30.505  31.278  1.00  0.00     0.001 A 
HETATM   20  C11 UNL     1      12.664  30.399  32.532  1.00  0.00     0.007 A 
ENDBRANCH  14  15
ENDBRANCH  13  14
ENDBRANCH  11  13
ENDBRANCH   6  11
TORSDOF 4
ENDMDL
