MODEL 1
REMARK VINA RESULT: -7.245497696      0.000      0.000
REMARK  6 active torsions:
REMARK  status: ('A' for Active; 'I' for Inactive)
REMARK    1  A    between atoms: N1_2  and  C3_4 
REMARK    2  A    between atoms: C3_4  and  C4_5 
REMARK    3  A    between atoms: C4_5  and  C5_6 
REMARK    4  A    between atoms: C13_14  and  C14_15 
REMARK    5  A    between atoms: C14_15  and  O1_16 
REMARK    6  A    between atoms: C22_27  and  C23_28 
ROOT
HETATM    1  C5  UNL     1       7.195   8.391  24.835  1.00  0.00    -0.034 C 
HETATM    2  C6  UNL     1       6.193   9.701  25.197  1.00  0.00     0.037 C 
HETATM    3  C7  UNL     1       5.027   8.902  24.634  1.00  0.00    -0.022 C 
HETATM    4  C8  UNL     1       5.448   8.406  23.494  1.00  0.00    -0.063 C 
HETATM    5  C9  UNL     1       4.875   7.453  22.565  1.00  0.00     0.044 C 
HETATM    6  C10 UNL     1       5.982   6.403  23.401  1.00  0.00     0.019 C 
HETATM    7  C11 UNL     1       6.467   7.179  24.600  1.00  0.00     0.019 C 
HETATM    8  C12 UNL     1       6.990   6.034  22.489  1.00  0.00    -0.072 C 
HETATM    9  C13 UNL     1       7.425   4.787  22.766  1.00  0.00     0.002 C 
HETATM   10  C15 UNL     1       7.771   6.491  21.291  1.00  0.00     0.032 C 
HETATM   11  C16 UNL     1       7.537   5.443  20.224  1.00  0.00     0.018 C 
HETATM   12  C17 UNL     1       6.843   6.175  19.142  1.00  0.00     0.080 C 
HETATM   13  C18 UNL     1       7.247   7.577  19.334  1.00  0.00     0.137 C 
HETATM   14  O2  UNL     1       7.254   8.379  18.420  1.00  0.00    -0.297 OA
HETATM   15  C19 UNL     1       7.628   7.817  20.795  1.00  0.00     0.039 C 
HETATM   16  C20 UNL     1       9.026   8.447  20.614  1.00  0.00     0.025 C 
HETATM   17  C21 UNL     1       6.717   8.827  21.283  1.00  0.00     0.098 C 
HETATM   18  S1  UNL     1       7.219  10.327  20.263  1.00  0.00    -0.089 SA
HETATM   19  C22 UNL     1       6.580   9.223  22.715  1.00  0.00     0.086 C 
HETATM   20  C24 UNL     1       7.773   9.075  23.558  1.00  0.00     0.036 C 
ENDROOT
BRANCH   1  21
HETATM   21  C4  UNL     1       8.103   8.358  25.958  1.00  0.00     0.040 C 
BRANCH  21  22
HETATM   22  C3  UNL     1       7.482   8.169  27.310  1.00  0.00     0.272 C 
BRANCH  22  23
HETATM   23  N1  UNL     1       8.558   8.338  28.294  1.00  0.00     0.080 N 
HETATM   24  C1  UNL     1       9.446   7.185  28.083  1.00  0.00     0.309 C 
HETATM   25  C2  UNL     1       8.001   8.279  29.631  1.00  0.00     0.309 C 
ENDBRANCH  22  23
ENDBRANCH  21  22
ENDBRANCH   1  21
BRANCH  19  26
HETATM   26  C23 UNL     1       6.134  10.623  22.565  1.00  0.00     0.187 C 
HETATM   27  O3  UNL     1       4.985  10.826  22.047  1.00  0.00    -0.647 OA
HETATM   28  O4  UNL     1       6.918  11.701  22.961  1.00  0.00    -0.647 OA
ENDBRANCH  19  26
BRANCH   9  29
HETATM   29  C14 UNL     1       6.976   3.892  23.819  1.00  0.00     0.191 C 
BRANCH  29  30
HETATM   30  O1  UNL     1       8.135   3.174  24.237  1.00  0.00    -0.397 OA
ATOM     31  H1  UNL     1       7.812   2.388  24.661  1.00  0.00     0.209 HD
ENDBRANCH  29  30
ENDBRANCH   9  29
TORSDOF 6
ENDMDL
MODEL 2
REMARK VINA RESULT: -6.631502694      1.686      2.215
REMARK  6 active torsions:
REMARK  status: ('A' for Active; 'I' for Inactive)
REMARK    1  A    between atoms: N1_2  and  C3_4 
REMARK    2  A    between atoms: C3_4  and  C4_5 
REMARK    3  A    between atoms: C4_5  and  C5_6 
REMARK    4  A    between atoms: C13_14  and  C14_15 
REMARK    5  A    between atoms: C14_15  and  O1_16 
REMARK    6  A    between atoms: C22_27  and  C23_28 
ROOT
HETATM    1  C5  UNL     1       7.899   7.243  26.065  1.00  0.00    -0.034 C 
HETATM    2  C6  UNL     1       6.952   8.272  27.009  1.00  0.00     0.037 C 
HETATM    3  C7  UNL     1       5.808   7.280  26.858  1.00  0.00    -0.022 C 
HETATM    4  C8  UNL     1       5.767   6.970  25.583  1.00  0.00    -0.063 C 
HETATM    5  C9  UNL     1       5.016   5.982  24.835  1.00  0.00     0.044 C 
HETATM    6  C10 UNL     1       6.534   5.144  24.964  1.00  0.00     0.019 C 
HETATM    7  C11 UNL     1       7.356   5.921  25.963  1.00  0.00     0.019 C 
HETATM    8  C12 UNL     1       7.091   5.070  23.671  1.00  0.00    -0.072 C 
HETATM    9  C13 UNL     1       7.805   3.932  23.545  1.00  0.00     0.002 C 
HETATM   10  C15 UNL     1       7.184   5.770  22.347  1.00  0.00     0.032 C 
HETATM   11  C16 UNL     1       6.687   4.775  21.320  1.00  0.00     0.018 C 
HETATM   12  C17 UNL     1       5.481   5.412  20.750  1.00  0.00     0.080 C 
HETATM   13  C18 UNL     1       5.687   6.851  20.978  1.00  0.00     0.137 C 
HETATM   14  O2  UNL     1       5.161   7.698  20.281  1.00  0.00    -0.297 OA
HETATM   15  C19 UNL     1       6.620   7.065  22.170  1.00  0.00     0.039 C 
HETATM   16  C20 UNL     1       7.671   7.996  21.531  1.00  0.00     0.025 C 
HETATM   17  C21 UNL     1       5.857   7.814  23.143  1.00  0.00     0.098 C 
HETATM   18  S1  UNL     1       5.606   9.455  22.257  1.00  0.00    -0.089 SA
HETATM   19  C22 UNL     1       6.293   8.068  24.547  1.00  0.00     0.086 C 
HETATM   20  C24 UNL     1       7.739   8.125  24.789  1.00  0.00     0.036 C 
ENDROOT
BRANCH   1  21
HETATM   21  C4  UNL     1       9.196   7.330  26.694  1.00  0.00     0.040 C 
BRANCH  21  22
HETATM   22  C3  UNL     1       9.228   7.912  28.076  1.00  0.00     0.272 C 
BRANCH  22  23
HETATM   23  N1  UNL     1       9.633   6.828  28.978  1.00  0.00     0.080 N 
HETATM   24  C1  UNL     1       8.617   6.823  30.042  1.00  0.00     0.309 C 
HETATM   25  C2  UNL     1      10.928   7.137  29.552  1.00  0.00     0.309 C 
ENDBRANCH  22  23
ENDBRANCH  21  22
ENDBRANCH   1  21
BRANCH  19  26
HETATM   26  C23 UNL     1       5.598   9.343  24.817  1.00  0.00     0.187 C 
HETATM   27  O3  UNL     1       4.337   9.301  25.009  1.00  0.00    -0.647 OA
HETATM   28  O4  UNL     1       6.269  10.561  24.861  1.00  0.00    -0.647 OA
ENDBRANCH  19  26
BRANCH   9  29
HETATM   29  C14 UNL     1       8.016   2.889  24.533  1.00  0.00     0.191 C 
BRANCH  29  30
HETATM   30  O1  UNL     1       7.540   1.686  23.935  1.00  0.00    -0.397 OA
ATOM     31  H1  UNL     1       6.757   1.449  24.418  1.00  0.00     0.209 HD
ENDBRANCH  29  30
ENDBRANCH   9  29
TORSDOF 6
ENDMDL
MODEL 3
REMARK VINA RESULT: -6.340934611      3.319      5.861
REMARK  6 active torsions:
REMARK  status: ('A' for Active; 'I' for Inactive)
REMARK    1  A    between atoms: N1_2  and  C3_4 
REMARK    2  A    between atoms: C3_4  and  C4_5 
REMARK    3  A    between atoms: C4_5  and  C5_6 
REMARK    4  A    between atoms: C13_14  and  C14_15 
REMARK    5  A    between atoms: C14_15  and  O1_16 
REMARK    6  A    between atoms: C22_27  and  C23_28 
ROOT
HETATM    1  C5  UNL     1       4.990   9.293  21.354  1.00  0.00    -0.034 C 
HETATM    2  C6  UNL     1       6.021  10.630  21.341  1.00  0.00     0.037 C 
HETATM    3  C7  UNL     1       7.098   9.733  20.748  1.00  0.00    -0.022 C 
HETATM    4  C8  UNL     1       7.090   8.637  21.470  1.00  0.00    -0.063 C 
HETATM    5  C9  UNL     1       7.762   7.361  21.327  1.00  0.00     0.044 C 
HETATM    6  C10 UNL     1       6.199   6.929  20.698  1.00  0.00     0.019 C 
HETATM    7  C11 UNL     1       5.450   8.225  20.516  1.00  0.00     0.019 C 
HETATM    8  C12 UNL     1       5.609   6.028  21.608  1.00  0.00    -0.072 C 
HETATM    9  C13 UNL     1       4.824   5.154  20.944  1.00  0.00     0.002 C 
HETATM   10  C15 UNL     1       5.528   5.643  23.056  1.00  0.00     0.032 C 
HETATM   11  C16 UNL     1       5.939   4.188  23.119  1.00  0.00     0.018 C 
HETATM   12  C17 UNL     1       7.168   4.192  23.940  1.00  0.00     0.080 C 
HETATM   13  C18 UNL     1       7.055   5.410  24.758  1.00  0.00     0.137 C 
HETATM   14  O2  UNL     1       7.615   5.522  25.832  1.00  0.00    -0.297 OA
HETATM   15  C19 UNL     1       6.165   6.434  24.054  1.00  0.00     0.039 C 
HETATM   16  C20 UNL     1       5.158   6.743  25.181  1.00  0.00     0.025 C 
HETATM   17  C21 UNL     1       6.995   7.597  23.833  1.00  0.00     0.098 C 
HETATM   18  S1  UNL     1       7.324   8.177  25.593  1.00  0.00    -0.089 SA
HETATM   19  C22 UNL     1       6.608   8.764  22.989  1.00  0.00     0.086 C 
HETATM   20  C24 UNL     1       5.174   9.058  22.886  1.00  0.00     0.036 C 
ENDROOT
BRANCH   1  21
HETATM   21  C4  UNL     1       3.716   9.863  20.985  1.00  0.00     0.040 C 
BRANCH  21  22
HETATM   22  C3  UNL     1       3.180   9.477  19.638  1.00  0.00     0.272 C 
BRANCH  22  23
HETATM   23  N1  UNL     1       2.748  10.720  18.987  1.00  0.00     0.080 N 
HETATM   24  C1  UNL     1       1.931  10.283  17.845  1.00  0.00     0.309 C 
HETATM   25  C2  UNL     1       3.911  11.438  18.501  1.00  0.00     0.309 C 
ENDBRANCH  22  23
ENDBRANCH  21  22
ENDBRANCH   1  21
BRANCH  19  26
HETATM   26  C23 UNL     1       7.385   9.837  23.642  1.00  0.00     0.187 C 
HETATM   27  O3  UNL     1       8.642   9.661  23.775  1.00  0.00    -0.647 OA
HETATM   28  O4  UNL     1       6.793  11.006  24.108  1.00  0.00    -0.647 OA
ENDBRANCH  19  26
BRANCH   9  29
HETATM   29  C14 UNL     1       4.573   5.078  19.515  1.00  0.00     0.191 C 
BRANCH  29  30
HETATM   30  O1  UNL     1       3.159   4.969  19.375  1.00  0.00    -0.397 OA
ATOM     31  H1  UNL     1       2.954   5.340  18.526  1.00  0.00     0.209 HD
ENDBRANCH  29  30
ENDBRANCH   9  29
TORSDOF 6
ENDMDL
MODEL 4
REMARK VINA RESULT: -6.329348147      1.151      1.393
REMARK  6 active torsions:
REMARK  status: ('A' for Active; 'I' for Inactive)
REMARK    1  A    between atoms: N1_2  and  C3_4 
REMARK    2  A    between atoms: C3_4  and  C4_5 
REMARK    3  A    between atoms: C4_5  and  C5_6 
REMARK    4  A    between atoms: C13_14  and  C14_15 
REMARK    5  A    between atoms: C14_15  and  O1_16 
REMARK    6  A    between atoms: C22_27  and  C23_28 
ROOT
HETATM    1  C5  UNL     1       7.099   8.618  23.813  1.00  0.00    -0.034 C 
HETATM    2  C6  UNL     1       6.111   9.984  23.726  1.00  0.00     0.037 C 
HETATM    3  C7  UNL     1       4.979   9.077  23.265  1.00  0.00    -0.022 C 
HETATM    4  C8  UNL     1       5.494   8.303  22.337  1.00  0.00    -0.063 C 
HETATM    5  C9  UNL     1       4.983   7.149  21.625  1.00  0.00     0.044 C 
HETATM    6  C10 UNL     1       5.966   6.339  22.810  1.00  0.00     0.019 C 
HETATM    7  C11 UNL     1       6.357   7.391  23.818  1.00  0.00     0.019 C 
HETATM    8  C12 UNL     1       7.047   5.741  22.130  1.00  0.00    -0.072 C 
HETATM    9  C13 UNL     1       7.410   4.603  22.758  1.00  0.00     0.002 C 
HETATM   10  C15 UNL     1       7.957   5.872  20.944  1.00  0.00     0.032 C 
HETATM   11  C16 UNL     1       7.794   4.589  20.158  1.00  0.00     0.018 C 
HETATM   12  C17 UNL     1       7.235   5.026  18.860  1.00  0.00     0.080 C 
HETATM   13  C18 UNL     1       7.665   6.427  18.733  1.00  0.00     0.137 C 
HETATM   14  O2  UNL     1       7.789   6.970  17.651  1.00  0.00    -0.297 OA
HETATM   15  C19 UNL     1       7.908   7.029  20.117  1.00  0.00     0.039 C 
HETATM   16  C20 UNL     1       9.337   7.582  19.928  1.00  0.00     0.025 C 
HETATM   17  C21 UNL     1       6.987   8.137  20.236  1.00  0.00     0.098 C 
HETATM   18  S1  UNL     1       7.638   9.323  18.927  1.00  0.00    -0.089 SA
HETATM   19  C22 UNL     1       6.724   8.886  21.499  1.00  0.00     0.086 C 
HETATM   20  C24 UNL     1       7.822   8.949  22.471  1.00  0.00     0.036 C 
ENDROOT
BRANCH   1  21
HETATM   21  C4  UNL     1       7.890   8.865  24.995  1.00  0.00     0.040 C 
BRANCH  21  22
HETATM   22  C3  UNL     1       7.789   7.844  26.089  1.00  0.00     0.272 C 
BRANCH  22  23
HETATM   23  N1  UNL     1       7.939   8.570  27.356  1.00  0.00     0.080 N 
HETATM   24  C1  UNL     1       8.925   7.793  28.121  1.00  0.00     0.309 C 
HETATM   25  C2  UNL     1       6.673   8.572  28.063  1.00  0.00     0.309 C 
ENDBRANCH  22  23
ENDBRANCH  21  22
ENDBRANCH   1  21
BRANCH  19  26
HETATM   26  C23 UNL     1       6.341  10.205  20.954  1.00  0.00     0.187 C 
HETATM   27  O3  UNL     1       7.158  11.172  21.115  1.00  0.00    -0.647 OA
HETATM   28  O4  UNL     1       5.138  10.414  20.289  1.00  0.00    -0.647 OA
ENDBRANCH  19  26
BRANCH   9  29
HETATM   29  C14 UNL     1       6.830   4.010  23.950  1.00  0.00     0.191 C 
BRANCH  29  30
HETATM   30  O1  UNL     1       7.719   4.335  25.016  1.00  0.00    -0.397 OA
ATOM     31  H1  UNL     1       8.546   4.556  24.605  1.00  0.00     0.209 HD
ENDBRANCH  29  30
ENDBRANCH   9  29
TORSDOF 6
ENDMDL
MODEL 5
REMARK VINA RESULT: -6.150146423      1.513      2.034
REMARK  6 active torsions:
REMARK  status: ('A' for Active; 'I' for Inactive)
REMARK    1  A    between atoms: N1_2  and  C3_4 
REMARK    2  A    between atoms: C3_4  and  C4_5 
REMARK    3  A    between atoms: C4_5  and  C5_6 
REMARK    4  A    between atoms: C13_14  and  C14_15 
REMARK    5  A    between atoms: C14_15  and  O1_16 
REMARK    6  A    between atoms: C22_27  and  C23_28 
ROOT
HETATM    1  C5  UNL     1       7.008   8.428  23.336  1.00  0.00    -0.034 C 
HETATM    2  C6  UNL     1       5.952   9.662  22.873  1.00  0.00     0.037 C 
HETATM    3  C7  UNL     1       4.936   8.589  22.507  1.00  0.00    -0.022 C 
HETATM    4  C8  UNL     1       5.595   7.690  21.815  1.00  0.00    -0.063 C 
HETATM    5  C9  UNL     1       5.238   6.377  21.316  1.00  0.00     0.044 C 
HETATM    6  C10 UNL     1       6.135   5.908  22.731  1.00  0.00     0.019 C 
HETATM    7  C11 UNL     1       6.347   7.171  23.528  1.00  0.00     0.019 C 
HETATM    8  C12 UNL     1       7.318   5.277  22.296  1.00  0.00    -0.072 C 
HETATM    9  C13 UNL     1       7.680   4.324  23.179  1.00  0.00     0.002 C 
HETATM   10  C15 UNL     1       8.341   5.241  21.199  1.00  0.00     0.032 C 
HETATM   11  C16 UNL     1       8.345   3.816  20.687  1.00  0.00     0.018 C 
HETATM   12  C17 UNL     1       7.905   3.934  19.280  1.00  0.00     0.080 C 
HETATM   13  C18 UNL     1       8.258   5.311  18.903  1.00  0.00     0.137 C 
HETATM   14  O2  UNL     1       8.465   5.633  17.748  1.00  0.00    -0.297 OA
HETATM   15  C19 UNL     1       8.312   6.199  20.147  1.00  0.00     0.039 C 
HETATM   16  C20 UNL     1       9.715   6.818  19.981  1.00  0.00     0.025 C 
HETATM   17  C21 UNL     1       7.317   7.227  19.945  1.00  0.00     0.098 C 
HETATM   18  S1  UNL     1       8.031   8.175  18.483  1.00  0.00    -0.089 SA
HETATM   19  C22 UNL     1       6.871   8.191  20.992  1.00  0.00     0.086 C 
HETATM   20  C24 UNL     1       7.851   8.541  22.028  1.00  0.00     0.036 C 
ENDROOT
BRANCH   1  21
HETATM   21  C4  UNL     1       7.649   8.975  24.509  1.00  0.00     0.040 C 
BRANCH  21  22
HETATM   22  C3  UNL     1       7.828   8.038  25.666  1.00  0.00     0.272 C 
BRANCH  22  23
HETATM   23  N1  UNL     1       7.576   8.819  26.882  1.00  0.00     0.080 N 
HETATM   24  C1  UNL     1       8.358   8.148  27.931  1.00  0.00     0.309 C 
HETATM   25  C2  UNL     1       6.166   8.751  27.215  1.00  0.00     0.309 C 
ENDBRANCH  22  23
ENDBRANCH  21  22
ENDBRANCH   1  21
BRANCH  19  26
HETATM   26  C23 UNL     1       6.469   9.337  20.150  1.00  0.00     0.187 C 
HETATM   27  O3  UNL     1       5.432   9.199  19.419  1.00  0.00    -0.647 OA
HETATM   28  O4  UNL     1       7.180  10.532  20.131  1.00  0.00    -0.647 OA
ENDBRANCH  19  26
BRANCH   9  29
HETATM   29  C14 UNL     1       7.012   3.937  24.409  1.00  0.00     0.191 C 
BRANCH  29  30
HETATM   30  O1  UNL     1       7.746   2.826  24.917  1.00  0.00    -0.397 OA
ATOM     31  H1  UNL     1       7.367   2.058  24.507  1.00  0.00     0.209 HD
ENDBRANCH  29  30
ENDBRANCH   9  29
TORSDOF 6
ENDMDL
