MODEL 1
REMARK VINA RESULT: -6.473761587      0.000      0.000
REMARK  9 active torsions:
REMARK  status: ('A' for Active; 'I' for Inactive)
REMARK    1  A    between atoms: C1_2  and  C2_3 
REMARK    2  A    between atoms: C1_2  and  O3_6 
REMARK    3  A    between atoms: C2_3  and  O2_4 
REMARK    4  A    between atoms: O3_6  and  C3_7 
REMARK    5  A    between atoms: C3_7  and  C4_8 
REMARK    6  A    between atoms: C3_7  and  C5_10 
REMARK    7  A    between atoms: C5_10  and  O5_12 
REMARK    8  A    between atoms: O5_12  and  C6_13 
REMARK    9  A    between atoms: C6_13  and  N1_14 
ROOT
HETATM    1  C5  UNL     1      -1.206  24.745  12.424  1.00  0.00     0.295 C 
HETATM    2  O4  UNL     1      -0.226  24.888  13.175  1.00  0.00    -0.262 OA
ENDROOT
BRANCH   1   3
HETATM    3  C3  UNL     1      -2.482  24.196  12.965  1.00  0.00     0.241 C 
BRANCH   3   4
HETATM    4  O3  UNL     1      -2.807  24.876  14.161  1.00  0.00    -0.303 OA
BRANCH   4   5
HETATM    5  C1  UNL     1      -2.920  24.226  15.379  1.00  0.00     0.283 C 
HETATM    6  O1  UNL     1      -2.227  23.206  15.584  1.00  0.00    -0.263 OA
BRANCH   5   7
HETATM    7  C2  UNL     1      -3.826  24.680  16.458  1.00  0.00     0.275 C 
BRANCH   7   8
HETATM    8  O2  UNL     1      -3.332  25.818  17.099  1.00  0.00    -0.391 OA
ATOM      9  H2  UNL     1      -3.943  26.544  17.042  1.00  0.00     0.210 HD
ENDBRANCH   7   8
ENDBRANCH   5   7
ENDBRANCH   4   5
ENDBRANCH   3   4
BRANCH   3  10
HETATM   10  C4  UNL     1      -3.589  24.299  11.932  1.00  0.00     0.129 C 
HETATM   11  S1  UNL     1      -4.675  25.701  12.269  1.00  0.00    -0.095 SA
ENDBRANCH   3  10
ENDBRANCH   1   3
BRANCH   1  12
HETATM   12  O5  UNL     1      -1.084  25.092  11.130  1.00  0.00    -0.271 OA
BRANCH  12  13
HETATM   13  C6  UNL     1      -0.395  26.020  10.418  1.00  0.00     0.247 C 
BRANCH  13  14
HETATM   14  N1  UNL     1      -0.783  27.386  10.445  1.00  0.00    -0.278 N 
HETATM   15  C7  UNL     1      -2.091  27.663  10.276  1.00  0.00     0.122 A 
HETATM   16  C8  UNL     1      -2.554  28.972  10.333  1.00  0.00     0.044 A 
HETATM   17 BR1  UNL     1      -4.397  29.398  10.099  1.00  0.00    -0.048 Br
HETATM   18  C9  UNL     1      -1.655  29.998  10.568  1.00  0.00     0.035 A 
HETATM   19 BR2  UNL     1      -2.250  31.813  10.656  1.00  0.00    -0.049 Br
HETATM   20  C10 UNL     1      -0.331  29.709  10.737  1.00  0.00     0.095 A 
HETATM   21  C11 UNL     1       0.070  28.375  10.667  1.00  0.00     0.254 A 
HETATM   22  O6  UNL     1       1.320  28.200  10.830  1.00  0.00    -0.268 OA
ENDBRANCH  13  14
ENDBRANCH  12  13
ENDBRANCH   1  12
TORSDOF 9
ENDMDL
MODEL 2
REMARK VINA RESULT: -6.362557050      1.867      2.144
REMARK  9 active torsions:
REMARK  status: ('A' for Active; 'I' for Inactive)
REMARK    1  A    between atoms: C1_2  and  C2_3 
REMARK    2  A    between atoms: C1_2  and  O3_6 
REMARK    3  A    between atoms: C2_3  and  O2_4 
REMARK    4  A    between atoms: O3_6  and  C3_7 
REMARK    5  A    between atoms: C3_7  and  C4_8 
REMARK    6  A    between atoms: C3_7  and  C5_10 
REMARK    7  A    between atoms: C5_10  and  O5_12 
REMARK    8  A    between atoms: O5_12  and  C6_13 
REMARK    9  A    between atoms: C6_13  and  N1_14 
ROOT
HETATM    1  C5  UNL     1      -1.320  24.961  13.025  1.00  0.00     0.295 C 
HETATM    2  O4  UNL     1      -0.086  25.051  13.138  1.00  0.00    -0.262 OA
ENDROOT
BRANCH   1   3
HETATM    3  C3  UNL     1      -1.968  23.619  13.012  1.00  0.00     0.241 C 
BRANCH   3   4
HETATM    4  O3  UNL     1      -3.093  23.641  13.868  1.00  0.00    -0.303 OA
BRANCH   4   5
HETATM    5  C1  UNL     1      -2.980  23.580  15.248  1.00  0.00     0.283 C 
HETATM    6  O1  UNL     1      -2.453  22.571  15.765  1.00  0.00    -0.263 OA
BRANCH   5   7
HETATM    7  C2  UNL     1      -3.453  24.657  16.147  1.00  0.00     0.275 C 
BRANCH   7   8
HETATM    8  O2  UNL     1      -2.684  25.814  16.012  1.00  0.00    -0.391 OA
ATOM      9  H2  UNL     1      -2.463  25.982  15.103  1.00  0.00     0.210 HD
ENDBRANCH   7   8
ENDBRANCH   5   7
ENDBRANCH   4   5
ENDBRANCH   3   4
BRANCH   3  10
HETATM   10  C4  UNL     1      -2.337  23.216  11.595  1.00  0.00     0.129 C 
HETATM   11  S1  UNL     1      -1.053  22.189  10.850  1.00  0.00    -0.095 SA
ENDBRANCH   3  10
ENDBRANCH   1   3
BRANCH   1  12
HETATM   12  O5  UNL     1      -2.043  26.090  12.916  1.00  0.00    -0.271 OA
BRANCH  12  13
HETATM   13  C6  UNL     1      -2.829  26.672  11.974  1.00  0.00     0.247 C 
BRANCH  13  14
HETATM   14  N1  UNL     1      -2.298  27.652  11.095  1.00  0.00    -0.278 N 
HETATM   15  C7  UNL     1      -2.608  28.941  11.341  1.00  0.00     0.122 A 
HETATM   16  C8  UNL     1      -2.092  29.961  10.552  1.00  0.00     0.044 A 
HETATM   17 BR1  UNL     1      -2.510  31.792  10.874  1.00  0.00    -0.048 Br
HETATM   18  C9  UNL     1      -1.248  29.642   9.502  1.00  0.00     0.035 A 
HETATM   19 BR2  UNL     1      -0.514  31.014   8.392  1.00  0.00    -0.049 Br
HETATM   20  C10 UNL     1      -0.939  28.334   9.258  1.00  0.00     0.095 A 
HETATM   21  C11 UNL     1      -1.492  27.357  10.086  1.00  0.00     0.254 A 
HETATM   22  O6  UNL     1      -1.155  26.168   9.782  1.00  0.00    -0.268 OA
ENDBRANCH  13  14
ENDBRANCH  12  13
ENDBRANCH   1  12
TORSDOF 9
ENDMDL
MODEL 3
REMARK VINA RESULT: -6.353400231      2.929      3.455
REMARK  9 active torsions:
REMARK  status: ('A' for Active; 'I' for Inactive)
REMARK    1  A    between atoms: C1_2  and  C2_3 
REMARK    2  A    between atoms: C1_2  and  O3_6 
REMARK    3  A    between atoms: C2_3  and  O2_4 
REMARK    4  A    between atoms: O3_6  and  C3_7 
REMARK    5  A    between atoms: C3_7  and  C4_8 
REMARK    6  A    between atoms: C3_7  and  C5_10 
REMARK    7  A    between atoms: C5_10  and  O5_12 
REMARK    8  A    between atoms: O5_12  and  C6_13 
REMARK    9  A    between atoms: C6_13  and  N1_14 
ROOT
HETATM    1  C5  UNL     1      -3.958  26.960  11.678  1.00  0.00     0.295 C 
HETATM    2  O4  UNL     1      -5.121  26.533  11.776  1.00  0.00    -0.262 OA
ENDROOT
BRANCH   1   3
HETATM    3  C3  UNL     1      -2.842  26.235  12.349  1.00  0.00     0.241 C 
BRANCH   3   4
HETATM    4  O3  UNL     1      -3.340  25.039  12.912  1.00  0.00    -0.303 OA
BRANCH   4   5
HETATM    5  C1  UNL     1      -2.672  24.353  13.914  1.00  0.00     0.283 C 
HETATM    6  O1  UNL     1      -1.764  23.554  13.594  1.00  0.00    -0.263 OA
BRANCH   5   7
HETATM    7  C2  UNL     1      -2.979  24.519  15.352  1.00  0.00     0.275 C 
BRANCH   7   8
HETATM    8  O2  UNL     1      -2.486  25.727  15.847  1.00  0.00    -0.391 OA
ATOM      9  H2  UNL     1      -1.983  25.600  16.643  1.00  0.00     0.210 HD
ENDBRANCH   7   8
ENDBRANCH   5   7
ENDBRANCH   4   5
ENDBRANCH   3   4
BRANCH   3  10
HETATM   10  C4  UNL     1      -1.708  25.977  11.373  1.00  0.00     0.129 C 
HETATM   11  S1  UNL     1      -0.165  26.717  11.949  1.00  0.00    -0.095 SA
ENDBRANCH   3  10
ENDBRANCH   1   3
BRANCH   1  12
HETATM   12  O5  UNL     1      -3.739  28.077  10.961  1.00  0.00    -0.271 OA
BRANCH  12  13
HETATM   13  C6  UNL     1      -3.352  29.353  11.215  1.00  0.00     0.247 C 
BRANCH  13  14
HETATM   14  N1  UNL     1      -2.405  30.002  10.379  1.00  0.00    -0.278 N 
HETATM   15  C7  UNL     1      -1.706  29.234   9.520  1.00  0.00     0.122 A 
HETATM   16  C8  UNL     1      -0.793  29.801   8.640  1.00  0.00     0.044 A 
HETATM   17 BR1  UNL     1       0.210  28.744   7.412  1.00  0.00    -0.048 Br
HETATM   18  C9  UNL     1      -0.606  31.173   8.650  1.00  0.00     0.035 A 
HETATM   19 BR2  UNL     1       0.638  31.994   7.453  1.00  0.00    -0.049 Br
HETATM   20  C10 UNL     1      -1.317  31.944   9.524  1.00  0.00     0.095 A 
HETATM   21  C11 UNL     1      -2.218  31.314  10.383  1.00  0.00     0.254 A 
HETATM   22  O6  UNL     1      -2.831  32.108  11.166  1.00  0.00    -0.268 OA
ENDBRANCH  13  14
ENDBRANCH  12  13
ENDBRANCH   1  12
TORSDOF 9
ENDMDL
MODEL 4
REMARK VINA RESULT: -6.336365893      2.465      2.944
REMARK  9 active torsions:
REMARK  status: ('A' for Active; 'I' for Inactive)
REMARK    1  A    between atoms: C1_2  and  C2_3 
REMARK    2  A    between atoms: C1_2  and  O3_6 
REMARK    3  A    between atoms: C2_3  and  O2_4 
REMARK    4  A    between atoms: O3_6  and  C3_7 
REMARK    5  A    between atoms: C3_7  and  C4_8 
REMARK    6  A    between atoms: C3_7  and  C5_10 
REMARK    7  A    between atoms: C5_10  and  O5_12 
REMARK    8  A    between atoms: O5_12  and  C6_13 
REMARK    9  A    between atoms: C6_13  and  N1_14 
ROOT
HETATM    1  C5  UNL     1      -3.525  25.863  12.405  1.00  0.00     0.295 C 
HETATM    2  O4  UNL     1      -4.647  25.387  12.159  1.00  0.00    -0.262 OA
ENDROOT
BRANCH   1   3
HETATM    3  C3  UNL     1      -2.661  25.231  13.442  1.00  0.00     0.241 C 
BRANCH   3   4
HETATM    4  O3  UNL     1      -3.406  24.243  14.125  1.00  0.00    -0.303 OA
BRANCH   4   5
HETATM    5  C1  UNL     1      -3.195  23.942  15.461  1.00  0.00     0.283 C 
HETATM    6  O1  UNL     1      -2.360  23.059  15.755  1.00  0.00    -0.263 OA
BRANCH   5   7
HETATM    7  C2  UNL     1      -3.911  24.618  16.566  1.00  0.00     0.275 C 
BRANCH   7   8
HETATM    8  O2  UNL     1      -3.246  25.774  16.978  1.00  0.00    -0.391 OA
ATOM      9  H2  UNL     1      -3.314  25.900  17.918  1.00  0.00     0.210 HD
ENDBRANCH   7   8
ENDBRANCH   5   7
ENDBRANCH   4   5
ENDBRANCH   3   4
BRANCH   3  10
HETATM   10  C4  UNL     1      -1.400  24.664  12.815  1.00  0.00     0.129 C 
HETATM   11  S1  UNL     1      -1.724  23.085  12.002  1.00  0.00    -0.095 SA
ENDBRANCH   3  10
ENDBRANCH   1   3
BRANCH   1  12
HETATM   12  O5  UNL     1      -3.120  26.948  11.720  1.00  0.00    -0.271 OA
BRANCH  12  13
HETATM   13  C6  UNL     1      -3.695  28.073  11.223  1.00  0.00     0.247 C 
BRANCH  13  14
HETATM   14  N1  UNL     1      -2.909  29.056  10.566  1.00  0.00    -0.278 N 
HETATM   15  C7  UNL     1      -1.984  28.626   9.686  1.00  0.00     0.122 A 
HETATM   16  C8  UNL     1      -1.206  29.529   8.973  1.00  0.00     0.044 A 
HETATM   17 BR1  UNL     1       0.110  28.954   7.720  1.00  0.00    -0.048 Br
HETATM   18  C9  UNL     1      -1.391  30.887   9.173  1.00  0.00     0.035 A 
HETATM   19 BR2  UNL     1      -0.343  32.164   8.210  1.00  0.00    -0.049 Br
HETATM   20  C10 UNL     1      -2.329  31.315  10.067  1.00  0.00     0.095 A 
HETATM   21  C11 UNL     1      -3.077  30.357  10.753  1.00  0.00     0.254 A 
HETATM   22  O6  UNL     1      -3.922  30.846  11.569  1.00  0.00    -0.268 OA
ENDBRANCH  13  14
ENDBRANCH  12  13
ENDBRANCH   1  12
TORSDOF 9
ENDMDL
MODEL 5
REMARK VINA RESULT: -6.323154837      1.993      2.387
REMARK  9 active torsions:
REMARK  status: ('A' for Active; 'I' for Inactive)
REMARK    1  A    between atoms: C1_2  and  C2_3 
REMARK    2  A    between atoms: C1_2  and  O3_6 
REMARK    3  A    between atoms: C2_3  and  O2_4 
REMARK    4  A    between atoms: O3_6  and  C3_7 
REMARK    5  A    between atoms: C3_7  and  C4_8 
REMARK    6  A    between atoms: C3_7  and  C5_10 
REMARK    7  A    between atoms: C5_10  and  O5_12 
REMARK    8  A    between atoms: O5_12  and  C6_13 
REMARK    9  A    between atoms: C6_13  and  N1_14 
ROOT
HETATM    1  C5  UNL     1      -1.249  25.718  12.564  1.00  0.00     0.295 C 
HETATM    2  O4  UNL     1      -0.008  25.682  12.524  1.00  0.00    -0.262 OA
ENDROOT
BRANCH   1   3
HETATM    3  C3  UNL     1      -2.006  24.590  13.177  1.00  0.00     0.241 C 
BRANCH   3   4
HETATM    4  O3  UNL     1      -2.724  25.070  14.296  1.00  0.00    -0.303 OA
BRANCH   4   5
HETATM    5  C1  UNL     1      -2.874  24.329  15.457  1.00  0.00     0.283 C 
HETATM    6  O1  UNL     1      -2.219  23.272  15.586  1.00  0.00    -0.263 OA
BRANCH   5   7
HETATM    7  C2  UNL     1      -3.776  24.727  16.561  1.00  0.00     0.275 C 
BRANCH   7   8
HETATM    8  O2  UNL     1      -3.351  25.909  17.170  1.00  0.00    -0.391 OA
ATOM      9  H2  UNL     1      -3.979  26.215  17.815  1.00  0.00     0.210 HD
ENDBRANCH   7   8
ENDBRANCH   5   7
ENDBRANCH   4   5
ENDBRANCH   3   4
BRANCH   3  10
HETATM   10  C4  UNL     1      -2.916  23.936  12.152  1.00  0.00     0.129 C 
HETATM   11  S1  UNL     1      -1.963  23.133  10.846  1.00  0.00    -0.095 SA
ENDBRANCH   3  10
ENDBRANCH   1   3
BRANCH   1  12
HETATM   12  O5  UNL     1      -1.881  26.787  12.045  1.00  0.00    -0.271 OA
BRANCH  12  13
HETATM   13  C6  UNL     1      -2.361  27.157  10.830  1.00  0.00     0.247 C 
BRANCH  13  14
HETATM   14  N1  UNL     1      -1.530  27.837   9.902  1.00  0.00    -0.278 N 
HETATM   15  C7  UNL     1      -1.639  29.178   9.837  1.00  0.00     0.122 A 
HETATM   16  C8  UNL     1      -0.829  29.918   8.984  1.00  0.00     0.044 A 
HETATM   17 BR1  UNL     1      -0.958  31.816   8.869  1.00  0.00    -0.048 Br
HETATM   18  C9  UNL     1       0.100  29.261   8.195  1.00  0.00     0.035 A 
HETATM   19 BR2  UNL     1       1.236  30.241   7.010  1.00  0.00    -0.049 Br
HETATM   20  C10 UNL     1       0.204  27.901   8.266  1.00  0.00     0.095 A 
HETATM   21  C11 UNL     1      -0.639  27.217   9.141  1.00  0.00     0.254 A 
HETATM   22  O6  UNL     1      -0.477  25.954   9.137  1.00  0.00    -0.268 OA
ENDBRANCH  13  14
ENDBRANCH  12  13
ENDBRANCH   1  12
TORSDOF 9
ENDMDL
