MODEL 1
REMARK VINA RESULT: -7.851597778      0.000      0.000
REMARK  8 active torsions:
REMARK  status: ('A' for Active; 'I' for Inactive)
REMARK    1  A    between atoms: C3_3  and  C4_4 
REMARK    2  A    between atoms: C4_4  and  C5_5 
REMARK    3  A    between atoms: C7_8  and  O1_9 
REMARK    4  A    between atoms: C9_12  and  O2_13 
REMARK    5  A    between atoms: N1_19  and  C12_20 
REMARK    6  A    between atoms: C12_20  and  C13_21 
REMARK    7  A    between atoms: C13_21  and  C14_22 
REMARK    8  A    between atoms: C14_22  and  N2_23 
ROOT
HETATM    1  C1  UNL     1      -4.794  27.599  10.872  1.00  0.00     0.055 C 
HETATM    2  C2  UNL     1      -3.502  27.009  11.306  1.00  0.00     0.022 C 
HETATM    3  C3  UNL     1      -2.353  27.455  10.630  1.00  0.00     0.044 C 
HETATM    4  C11 UNL     1      -1.066  27.090  10.931  1.00  0.00     0.262 C 
HETATM    5  O3  UNL     1      -0.150  27.595  10.274  1.00  0.00    -0.267 OA
HETATM    6  N1  UNL     1      -0.565  26.227  11.867  1.00  0.00    -0.265 N 
HETATM    7  C17 UNL     1      -1.230  25.605  12.843  1.00  0.00     0.334 C 
HETATM    8  O4  UNL     1      -0.611  24.996  13.748  1.00  0.00    -0.246 OA
HETATM    9  N3  UNL     1      -2.581  25.505  13.043  1.00  0.00    -0.270 N 
HETATM   10  C18 UNL     1      -3.036  24.669  14.142  1.00  0.00     0.164 C 
HETATM   11  C19 UNL     1      -3.562  26.089  12.324  1.00  0.00     0.258 C 
HETATM   12  O5  UNL     1      -4.746  25.750  12.615  1.00  0.00    -0.267 OA
ENDROOT
BRANCH   3  13
HETATM   13  C4  UNL     1      -2.655  28.359   9.540  1.00  0.00     0.032 C 
BRANCH  13  14
HETATM   14  C5  UNL     1      -2.146  29.712   9.531  1.00  0.00     0.014 A 
HETATM   15  C6  UNL     1      -1.138  30.078   8.664  1.00  0.00     0.079 A 
HETATM   16 CL1  UNL     1      -0.518  28.855   7.543  1.00  0.00    -0.080 Cl
HETATM   17  C7  UNL     1      -0.610  31.337   8.637  1.00  0.00     0.091 A 
HETATM   18  C8  UNL     1      -1.089  32.305   9.507  1.00  0.00     0.076 A 
HETATM   19  C9  UNL     1      -2.086  31.963  10.373  1.00  0.00     0.091 A 
HETATM   20  C10 UNL     1      -2.602  30.689  10.381  1.00  0.00     0.079 A 
HETATM   21 CL2  UNL     1      -3.893  30.307  11.524  1.00  0.00    -0.080 Cl
BRANCH  17  22
HETATM   22  O1  UNL     1       0.400  31.712   7.769  1.00  0.00    -0.359 OA
ATOM     23  H1  UNL     1       0.616  32.620   7.586  1.00  0.00     0.217 HD
ENDBRANCH  17  22
BRANCH  19  24
HETATM   24  O2  UNL     1      -2.559  32.935  11.236  1.00  0.00    -0.359 OA
ATOM     25  H2  UNL     1      -2.330  32.866  12.156  1.00  0.00     0.217 HD
ENDBRANCH  19  24
ENDBRANCH  13  14
ENDBRANCH   3  13
BRANCH   6  26
HETATM   26  C12 UNL     1       0.817  25.946  11.737  1.00  0.00     0.139 C 
BRANCH  26  27
HETATM   27  C13 UNL     1       1.250  24.613  11.268  1.00  0.00     0.050 C 
BRANCH  27  28
HETATM   28  C14 UNL     1       0.654  24.076  10.020  1.00  0.00     0.273 C 
BRANCH  28  29
HETATM   29  N2  UNL     1      -0.276  22.983  10.270  1.00  0.00     0.080 N 
HETATM   30  C15 UNL     1      -0.054  22.289  11.495  1.00  0.00     0.309 C 
HETATM   31  C16 UNL     1      -1.657  23.351  10.125  1.00  0.00     0.309 C 
ENDBRANCH  28  29
ENDBRANCH  27  28
ENDBRANCH  26  27
ENDBRANCH   6  26
TORSDOF 8
ENDMDL
MODEL 2
REMARK VINA RESULT: -7.740771391      0.037      2.079
REMARK  8 active torsions:
REMARK  status: ('A' for Active; 'I' for Inactive)
REMARK    1  A    between atoms: C3_3  and  C4_4 
REMARK    2  A    between atoms: C4_4  and  C5_5 
REMARK    3  A    between atoms: C7_8  and  O1_9 
REMARK    4  A    between atoms: C9_12  and  O2_13 
REMARK    5  A    between atoms: N1_19  and  C12_20 
REMARK    6  A    between atoms: C12_20  and  C13_21 
REMARK    7  A    between atoms: C13_21  and  C14_22 
REMARK    8  A    between atoms: C14_22  and  N2_23 
ROOT
HETATM    1  C1  UNL     1      -4.806  27.594  10.883  1.00  0.00     0.055 C 
HETATM    2  C2  UNL     1      -3.513  27.004  11.316  1.00  0.00     0.022 C 
HETATM    3  C3  UNL     1      -2.364  27.456  10.646  1.00  0.00     0.044 C 
HETATM    4  C11 UNL     1      -1.077  27.092  10.948  1.00  0.00     0.262 C 
HETATM    5  O3  UNL     1      -0.160  27.603  10.298  1.00  0.00    -0.267 OA
HETATM    6  N1  UNL     1      -0.577  26.224  11.880  1.00  0.00    -0.265 N 
HETATM    7  C17 UNL     1      -1.244  25.593  12.850  1.00  0.00     0.334 C 
HETATM    8  O4  UNL     1      -0.626  24.980  13.752  1.00  0.00    -0.246 OA
HETATM    9  N3  UNL     1      -2.595  25.489  13.045  1.00  0.00    -0.270 N 
HETATM   10  C18 UNL     1      -3.051  24.645  14.137  1.00  0.00     0.164 C 
HETATM   11  C19 UNL     1      -3.575  26.076  12.328  1.00  0.00     0.258 C 
HETATM   12  O5  UNL     1      -4.759  25.732  12.612  1.00  0.00    -0.267 OA
ENDROOT
BRANCH   3  13
HETATM   13  C4  UNL     1      -2.665  28.367   9.561  1.00  0.00     0.032 C 
BRANCH  13  14
HETATM   14  C5  UNL     1      -2.093  29.695   9.524  1.00  0.00     0.014 A 
HETATM   15  C6  UNL     1      -2.552  30.682  10.370  1.00  0.00     0.079 A 
HETATM   16 CL1  UNL     1      -3.830  30.264  11.522  1.00  0.00    -0.080 Cl
HETATM   17  C7  UNL     1      -2.058  31.955  10.353  1.00  0.00     0.091 A 
HETATM   18  C8  UNL     1      -1.055  32.294   9.459  1.00  0.00     0.076 A 
HETATM   19  C9  UNL     1      -0.586  31.332   8.613  1.00  0.00     0.091 A 
HETATM   20  C10 UNL     1      -1.099  30.057   8.649  1.00  0.00     0.079 A 
HETATM   21 CL2  UNL     1      -0.451  28.854   7.531  1.00  0.00    -0.080 Cl
BRANCH  17  22
HETATM   22  O1  UNL     1      -2.513  32.951  11.200  1.00  0.00    -0.359 OA
ATOM     23  H1  UNL     1      -2.139  33.824  11.221  1.00  0.00     0.217 HD
ENDBRANCH  17  22
BRANCH  19  24
HETATM   24  O2  UNL     1       0.416  31.679   7.725  1.00  0.00    -0.359 OA
ATOM     25  H2  UNL     1       0.363  31.341   6.838  1.00  0.00     0.217 HD
ENDBRANCH  19  24
ENDBRANCH  13  14
ENDBRANCH   3  13
BRANCH   6  26
HETATM   26  C12 UNL     1       0.807  25.946  11.753  1.00  0.00     0.139 C 
BRANCH  26  27
HETATM   27  C13 UNL     1       1.243  24.616  11.278  1.00  0.00     0.050 C 
BRANCH  27  28
HETATM   28  C14 UNL     1       0.643  24.079  10.031  1.00  0.00     0.273 C 
BRANCH  28  29
HETATM   29  N2  UNL     1      -0.275  22.977  10.283  1.00  0.00     0.080 N 
HETATM   30  C15 UNL     1      -0.039  22.282  11.505  1.00  0.00     0.309 C 
HETATM   31  C16 UNL     1      -1.660  23.332  10.146  1.00  0.00     0.309 C 
ENDBRANCH  28  29
ENDBRANCH  27  28
ENDBRANCH  26  27
ENDBRANCH   6  26
TORSDOF 8
ENDMDL
MODEL 3
REMARK VINA RESULT: -7.653887799      1.158      1.593
REMARK  8 active torsions:
REMARK  status: ('A' for Active; 'I' for Inactive)
REMARK    1  A    between atoms: C3_3  and  C4_4 
REMARK    2  A    between atoms: C4_4  and  C5_5 
REMARK    3  A    between atoms: C7_8  and  O1_9 
REMARK    4  A    between atoms: C9_12  and  O2_13 
REMARK    5  A    between atoms: N1_19  and  C12_20 
REMARK    6  A    between atoms: C12_20  and  C13_21 
REMARK    7  A    between atoms: C13_21  and  C14_22 
REMARK    8  A    between atoms: C14_22  and  N2_23 
ROOT
HETATM    1  C1  UNL     1      -4.777  27.564  10.840  1.00  0.00     0.055 C 
HETATM    2  C2  UNL     1      -3.479  27.003  11.293  1.00  0.00     0.022 C 
HETATM    3  C3  UNL     1      -2.330  27.476  10.635  1.00  0.00     0.044 C 
HETATM    4  C11 UNL     1      -1.040  27.138  10.956  1.00  0.00     0.262 C 
HETATM    5  O3  UNL     1      -0.125  27.665  10.315  1.00  0.00    -0.267 OA
HETATM    6  N1  UNL     1      -0.535  26.286  11.898  1.00  0.00    -0.265 N 
HETATM    7  C17 UNL     1      -1.201  25.646  12.863  1.00  0.00     0.334 C 
HETATM    8  O4  UNL     1      -0.583  25.050  13.776  1.00  0.00    -0.246 OA
HETATM    9  N3  UNL     1      -2.552  25.515  13.041  1.00  0.00    -0.270 N 
HETATM   10  C18 UNL     1      -3.005  24.667  14.131  1.00  0.00     0.164 C 
HETATM   11  C19 UNL     1      -3.535  26.079  12.308  1.00  0.00     0.258 C 
HETATM   12  O5  UNL     1      -4.715  25.713  12.579  1.00  0.00    -0.267 OA
ENDROOT
BRANCH   3  13
HETATM   13  C4  UNL     1      -2.635  28.375   9.542  1.00  0.00     0.032 C 
BRANCH  13  14
HETATM   14  C5  UNL     1      -2.124  29.728   9.526  1.00  0.00     0.014 A 
HETATM   15  C6  UNL     1      -1.126  30.092   8.648  1.00  0.00     0.079 A 
HETATM   16 CL1  UNL     1      -0.518  28.866   7.524  1.00  0.00    -0.080 Cl
HETATM   17  C7  UNL     1      -0.597  31.350   8.614  1.00  0.00     0.091 A 
HETATM   18  C8  UNL     1      -1.067  32.320   9.487  1.00  0.00     0.076 A 
HETATM   19  C9  UNL     1      -2.055  31.981  10.363  1.00  0.00     0.091 A 
HETATM   20  C10 UNL     1      -2.572  30.707  10.379  1.00  0.00     0.079 A 
HETATM   21 CL2  UNL     1      -3.851  30.328  11.535  1.00  0.00    -0.080 Cl
BRANCH  17  22
HETATM   22  O1  UNL     1       0.405  31.723   7.735  1.00  0.00    -0.359 OA
ATOM     23  H1  UNL     1       1.226  32.107   8.019  1.00  0.00     0.217 HD
ENDBRANCH  17  22
BRANCH  19  24
HETATM   24  O2  UNL     1      -2.519  32.954  11.229  1.00  0.00    -0.359 OA
ATOM     25  H2  UNL     1      -3.346  33.376  11.025  1.00  0.00     0.217 HD
ENDBRANCH  19  24
ENDBRANCH  13  14
ENDBRANCH   3  13
BRANCH   6  26
HETATM   26  C12 UNL     1       0.856  26.035  11.790  1.00  0.00     0.139 C 
BRANCH  26  27
HETATM   27  C13 UNL     1       1.324  24.760  11.209  1.00  0.00     0.050 C 
BRANCH  27  28
HETATM   28  C14 UNL     1       1.533  24.686   9.742  1.00  0.00     0.273 C 
BRANCH  28  29
HETATM   29  N2  UNL     1       2.909  24.974   9.358  1.00  0.00     0.080 N 
HETATM   30  C15 UNL     1       3.505  23.987   8.521  1.00  0.00     0.309 C 
HETATM   31  C16 UNL     1       3.097  26.294   8.822  1.00  0.00     0.309 C 
ENDBRANCH  28  29
ENDBRANCH  27  28
ENDBRANCH  26  27
ENDBRANCH   6  26
TORSDOF 8
ENDMDL
MODEL 4
REMARK VINA RESULT: -7.561883713      1.146      2.612
REMARK  8 active torsions:
REMARK  status: ('A' for Active; 'I' for Inactive)
REMARK    1  A    between atoms: C3_3  and  C4_4 
REMARK    2  A    between atoms: C4_4  and  C5_5 
REMARK    3  A    between atoms: C7_8  and  O1_9 
REMARK    4  A    between atoms: C9_12  and  O2_13 
REMARK    5  A    between atoms: N1_19  and  C12_20 
REMARK    6  A    between atoms: C12_20  and  C13_21 
REMARK    7  A    between atoms: C13_21  and  C14_22 
REMARK    8  A    between atoms: C14_22  and  N2_23 
ROOT
HETATM    1  C1  UNL     1      -4.867  27.534  10.892  1.00  0.00     0.055 C 
HETATM    2  C2  UNL     1      -3.568  26.956  11.325  1.00  0.00     0.022 C 
HETATM    3  C3  UNL     1      -2.422  27.429  10.664  1.00  0.00     0.044 C 
HETATM    4  C11 UNL     1      -1.132  27.077  10.967  1.00  0.00     0.262 C 
HETATM    5  O3  UNL     1      -0.218  27.606  10.325  1.00  0.00    -0.267 OA
HETATM    6  N1  UNL     1      -0.624  26.208  11.893  1.00  0.00    -0.265 N 
HETATM    7  C17 UNL     1      -1.287  25.560  12.855  1.00  0.00     0.334 C 
HETATM    8  O4  UNL     1      -0.665  24.947  13.754  1.00  0.00    -0.246 OA
HETATM    9  N3  UNL     1      -2.637  25.438  13.045  1.00  0.00    -0.270 N 
HETATM   10  C18 UNL     1      -3.087  24.578  14.127  1.00  0.00     0.164 C 
HETATM   11  C19 UNL     1      -3.622  26.019  12.328  1.00  0.00     0.258 C 
HETATM   12  O5  UNL     1      -4.803  25.658  12.606  1.00  0.00    -0.267 OA
ENDROOT
BRANCH   3  13
HETATM   13  C4  UNL     1      -2.730  28.345   9.586  1.00  0.00     0.032 C 
BRANCH  13  14
HETATM   14  C5  UNL     1      -2.153  29.671   9.548  1.00  0.00     0.014 A 
HETATM   15  C6  UNL     1      -2.607  30.659  10.395  1.00  0.00     0.079 A 
HETATM   16 CL1  UNL     1      -3.886  30.246  11.548  1.00  0.00    -0.080 Cl
HETATM   17  C7  UNL     1      -2.109  31.930  10.378  1.00  0.00     0.091 A 
HETATM   18  C8  UNL     1      -1.105  32.266   9.482  1.00  0.00     0.076 A 
HETATM   19  C9  UNL     1      -0.641  31.303   8.636  1.00  0.00     0.091 A 
HETATM   20  C10 UNL     1      -1.159  30.030   8.671  1.00  0.00     0.079 A 
HETATM   21 CL2  UNL     1      -0.517  28.824   7.552  1.00  0.00    -0.080 Cl
BRANCH  17  22
HETATM   22  O1  UNL     1      -2.559  32.928  11.226  1.00  0.00    -0.359 OA
ATOM     23  H1  UNL     1      -2.189  33.081  12.088  1.00  0.00     0.217 HD
ENDBRANCH  17  22
BRANCH  19  24
HETATM   24  O2  UNL     1       0.361  31.646   7.746  1.00  0.00    -0.359 OA
ATOM     25  H2  UNL     1       1.120  32.106   8.085  1.00  0.00     0.217 HD
ENDBRANCH  19  24
ENDBRANCH  13  14
ENDBRANCH   3  13
BRANCH   6  26
HETATM   26  C12 UNL     1       0.763  25.948  11.769  1.00  0.00     0.139 C 
BRANCH  26  27
HETATM   27  C13 UNL     1       1.216  24.680  11.160  1.00  0.00     0.050 C 
BRANCH  27  28
HETATM   28  C14 UNL     1       1.473  24.649   9.699  1.00  0.00     0.273 C 
BRANCH  28  29
HETATM   29  N2  UNL     1       2.849  24.993   9.366  1.00  0.00     0.080 N 
HETATM   30  C15 UNL     1       3.514  24.034   8.548  1.00  0.00     0.309 C 
HETATM   31  C16 UNL     1       3.005  26.321   8.842  1.00  0.00     0.309 C 
ENDBRANCH  28  29
ENDBRANCH  27  28
ENDBRANCH  26  27
ENDBRANCH   6  26
TORSDOF 8
ENDMDL
MODEL 5
REMARK VINA RESULT: -7.435806435      2.868      6.975
REMARK  8 active torsions:
REMARK  status: ('A' for Active; 'I' for Inactive)
REMARK    1  A    between atoms: C3_3  and  C4_4 
REMARK    2  A    between atoms: C4_4  and  C5_5 
REMARK    3  A    between atoms: C7_8  and  O1_9 
REMARK    4  A    between atoms: C9_12  and  O2_13 
REMARK    5  A    between atoms: N1_19  and  C12_20 
REMARK    6  A    between atoms: C12_20  and  C13_21 
REMARK    7  A    between atoms: C13_21  and  C14_22 
REMARK    8  A    between atoms: C14_22  and  N2_23 
ROOT
HETATM    1  C1  UNL     1      -1.263  23.203  10.001  1.00  0.00     0.055 C 
HETATM    2  C2  UNL     1      -0.929  24.607  10.354  1.00  0.00     0.022 C 
HETATM    3  C3  UNL     1      -1.859  25.288  11.157  1.00  0.00     0.044 C 
HETATM    4  C11 UNL     1      -1.699  26.558  11.650  1.00  0.00     0.262 C 
HETATM    5  O3  UNL     1      -2.585  27.015  12.379  1.00  0.00    -0.267 OA
HETATM    6  N1  UNL     1      -0.696  27.473  11.486  1.00  0.00    -0.265 N 
HETATM    7  C17 UNL     1       0.483  27.294  10.885  1.00  0.00     0.334 C 
HETATM    8  O4  UNL     1       1.384  28.161  10.978  1.00  0.00    -0.246 OA
HETATM    9  N3  UNL     1       0.915  26.244  10.120  1.00  0.00    -0.270 N 
HETATM   10  C18 UNL     1       2.222  26.360   9.497  1.00  0.00     0.164 C 
HETATM   11  C19 UNL     1       0.256  25.095   9.857  1.00  0.00     0.258 C 
HETATM   12  O5  UNL     1       0.798  24.319   9.018  1.00  0.00    -0.267 OA
ENDROOT
BRANCH   3  13
HETATM   13  C4  UNL     1      -3.051  24.511  11.422  1.00  0.00     0.032 C 
BRANCH  13  14
HETATM   14  C5  UNL     1      -3.473  24.233  12.778  1.00  0.00     0.014 A 
HETATM   15  C6  UNL     1      -4.608  24.821  13.294  1.00  0.00     0.079 A 
HETATM   16 CL1  UNL     1      -5.547  25.891  12.240  1.00  0.00    -0.080 Cl
HETATM   17  C7  UNL     1      -5.031  24.607  14.574  1.00  0.00     0.091 A 
HETATM   18  C8  UNL     1      -4.308  23.769  15.409  1.00  0.00     0.076 A 
HETATM   19  C9  UNL     1      -3.182  23.177  14.917  1.00  0.00     0.091 A 
HETATM   20  C10 UNL     1      -2.776  23.408  13.624  1.00  0.00     0.079 A 
HETATM   21 CL2  UNL     1      -1.311  22.612  13.043  1.00  0.00    -0.080 Cl
BRANCH  17  22
HETATM   22  O1  UNL     1      -6.171  25.192  15.100  1.00  0.00    -0.359 OA
ATOM     23  H1  UNL     1      -6.896  25.489  14.562  1.00  0.00     0.217 HD
ENDBRANCH  17  22
BRANCH  19  24
HETATM   24  O2  UNL     1      -2.467  22.341  15.755  1.00  0.00    -0.359 OA
ATOM     25  H2  UNL     1      -1.985  21.621  15.364  1.00  0.00     0.217 HD
ENDBRANCH  19  24
ENDBRANCH  13  14
ENDBRANCH   3  13
BRANCH   6  26
HETATM   26  C12 UNL     1      -0.984  28.768  11.983  1.00  0.00     0.139 C 
BRANCH  26  27
HETATM   27  C13 UNL     1      -1.425  29.826  11.051  1.00  0.00     0.050 C 
BRANCH  27  28
HETATM   28  C14 UNL     1      -2.819  30.325  11.157  1.00  0.00     0.273 C 
BRANCH  28  29
HETATM   29  N2  UNL     1      -3.590  30.087   9.944  1.00  0.00     0.080 N 
HETATM   30  C15 UNL     1      -2.827  30.135   8.742  1.00  0.00     0.309 C 
HETATM   31  C16 UNL     1      -4.404  28.904   9.997  1.00  0.00     0.309 C 
ENDBRANCH  28  29
ENDBRANCH  27  28
ENDBRANCH  26  27
ENDBRANCH   6  26
TORSDOF 8
ENDMDL
