MODEL 1
REMARK VINA RESULT: -7.905937806      0.000      0.000
REMARK  7 active torsions:
REMARK  status: ('A' for Active; 'I' for Inactive)
REMARK    1  A    between atoms: C1_2  and  C2_3 
REMARK       I    between atoms: C1_2  and  N5_20 
REMARK    2  A    between atoms: C2_3  and  N1_4 
REMARK    3  A    between atoms: N1_4  and  C3_5 
REMARK    4  A    between atoms: N1_4  and  C7_14 
REMARK    5  A    between atoms: C4_6  and  N2_7 
REMARK    6  A    between atoms: C9_17  and  O3_18 
REMARK    7  A    between atoms: N5_20  and  C10_22 
ROOT
HETATM    1  C2  UNL     1      -6.380  23.840  15.001  1.00  0.00     0.198 C 
ENDROOT
BRANCH   1   2
HETATM    2  C1  UNL     1      -5.784  24.942  14.203  1.00  0.00     0.236 C 
HETATM    3  O1  UNL     1      -6.504  25.898  13.859  1.00  0.00    -0.272 OA
HETATM    4  N5  UNL     1      -4.444  24.892  13.854  1.00  0.00    -0.306 N 
ATOM      5  H5  UNL     1      -3.876  24.251  14.407  1.00  0.00     0.171 HD
BRANCH   4   6
HETATM    6  C10 UNL     1      -3.812  25.533  12.939  1.00  0.00     0.152 A 
HETATM    7  N6  UNL     1      -4.016  26.686  12.315  1.00  0.00    -0.334 N 
HETATM    8  C11 UNL     1      -3.153  27.079  11.400  1.00  0.00     0.073 A 
ATOM      9  H6  UNL     1      -4.829  27.260  12.540  1.00  0.00     0.168 HD
HETATM   10  C12 UNL     1      -3.207  28.267  10.640  1.00  0.00     0.063 A 
HETATM   11  C16 UNL     1      -2.085  26.268  11.143  1.00  0.00     0.038 A 
HETATM   12 CL1  UNL     1      -4.505  29.436  10.827  1.00  0.00    -0.082 Cl
HETATM   13  C13 UNL     1      -2.226  28.528   9.726  1.00  0.00     0.050 A 
HETATM   14  C14 UNL     1      -1.145  27.722   9.457  1.00  0.00     0.037 A 
HETATM   15 CL2  UNL     1       0.073  28.121   8.271  1.00  0.00    -0.084 Cl
HETATM   16  C15 UNL     1      -1.095  26.562  10.199  1.00  0.00     0.045 A 
HETATM   17  S1  UNL     1      -2.364  24.968  12.230  1.00  0.00    -0.052 SA
ENDBRANCH   4   6
ENDBRANCH   1   2
BRANCH   1  18
HETATM   18  N1  UNL     1      -5.621  23.689  16.222  1.00  0.00    -0.271 NA
BRANCH  18  19
HETATM   19  C3  UNL     1      -6.393  23.784  17.413  1.00  0.00     0.080 C 
HETATM   20  C4  UNL     1      -6.288  24.880  18.354  1.00  0.00     0.129 C 
BRANCH  20  21
HETATM   21  N2  UNL     1      -6.533  26.194  17.884  1.00  0.00    -0.261 N 
HETATM   22  C5  UNL     1      -5.955  27.366  18.235  1.00  0.00     0.207 A 
HETATM   23  N3  UNL     1      -6.524  28.329  17.523  1.00  0.00    -0.346 N 
HETATM   24  C6  UNL     1      -7.453  27.782  16.727  1.00  0.00     0.198 A 
ATOM     25  H3  UNL     1      -6.293  29.321  17.572  1.00  0.00     0.167 HD
HETATM   26  N4  UNL     1      -7.436  26.482  16.970  1.00  0.00    -0.289 N 
ATOM     27  H4  UNL     1      -8.039  25.797  16.512  1.00  0.00     0.188 HD
ENDBRANCH  20  21
ENDBRANCH  18  19
BRANCH  18  28
HETATM   28  C7  UNL     1      -4.950  22.420  16.101  1.00  0.00     0.142 C 
HETATM   29  C8  UNL     1      -4.846  21.587  17.358  1.00  0.00     0.196 C 
HETATM   30  O2  UNL     1      -3.494  21.997  17.456  1.00  0.00    -0.358 OA
HETATM   31  C9  UNL     1      -3.520  22.227  16.090  1.00  0.00     0.276 C 
BRANCH  31  32
HETATM   32  O3  UNL     1      -2.649  23.145  15.561  1.00  0.00    -0.370 OA
ATOM     33  H3  UNL     1      -1.719  23.148  15.758  1.00  0.00     0.212 HD
ENDBRANCH  31  32
ENDBRANCH  18  28
ENDBRANCH   1  18
TORSDOF 7
ENDMDL
MODEL 2
REMARK VINA RESULT: -7.823045836      2.895      5.003
REMARK  7 active torsions:
REMARK  status: ('A' for Active; 'I' for Inactive)
REMARK    1  A    between atoms: C1_2  and  C2_3 
REMARK       I    between atoms: C1_2  and  N5_20 
REMARK    2  A    between atoms: C2_3  and  N1_4 
REMARK    3  A    between atoms: N1_4  and  C3_5 
REMARK    4  A    between atoms: N1_4  and  C7_14 
REMARK    5  A    between atoms: C4_6  and  N2_7 
REMARK    6  A    between atoms: C9_17  and  O3_18 
REMARK    7  A    between atoms: N5_20  and  C10_22 
ROOT
HETATM    1  C2  UNL     1      -2.422  25.069  14.677  1.00  0.00     0.198 C 
ENDROOT
BRANCH   1   2
HETATM    2  C1  UNL     1      -2.459  25.828  13.400  1.00  0.00     0.236 C 
HETATM    3  O1  UNL     1      -3.364  25.590  12.580  1.00  0.00    -0.272 OA
HETATM    4  N5  UNL     1      -1.492  26.787  13.142  1.00  0.00    -0.306 N 
ATOM      5  H5  UNL     1      -0.982  27.120  13.960  1.00  0.00     0.171 HD
BRANCH   4   6
HETATM    6  C10 UNL     1      -1.141  27.317  12.026  1.00  0.00     0.152 A 
HETATM    7  N6  UNL     1      -1.751  28.108  11.153  1.00  0.00    -0.334 N 
HETATM    8  C11 UNL     1      -1.097  28.493  10.075  1.00  0.00     0.073 A 
ATOM      9  H6  UNL     1      -2.711  28.414  11.313  1.00  0.00     0.168 HD
HETATM   10  C12 UNL     1      -1.580  29.328   9.045  1.00  0.00     0.063 A 
HETATM   11  C16 UNL     1       0.185  28.050   9.917  1.00  0.00     0.038 A 
HETATM   12 CL1  UNL     1      -3.205  29.996   9.071  1.00  0.00    -0.082 Cl
HETATM   13  C13 UNL     1      -0.770  29.634   7.989  1.00  0.00     0.050 A 
HETATM   14  C14 UNL     1       0.522  29.196   7.817  1.00  0.00     0.037 A 
HETATM   15 CL2  UNL     1       1.502  29.629   6.437  1.00  0.00    -0.084 Cl
HETATM   16  C15 UNL     1       0.992  28.380   8.822  1.00  0.00     0.045 A 
HETATM   17  S1  UNL     1       0.401  27.094  11.327  1.00  0.00    -0.052 SA
ENDBRANCH   4   6
ENDBRANCH   1   2
BRANCH   1  18
HETATM   18  N1  UNL     1      -3.291  23.920  14.557  1.00  0.00    -0.271 NA
BRANCH  18  19
HETATM   19  C3  UNL     1      -2.612  22.675  14.437  1.00  0.00     0.080 C 
HETATM   20  C4  UNL     1      -2.475  21.951  13.190  1.00  0.00     0.129 C 
BRANCH  20  21
HETATM   21  N2  UNL     1      -1.839  22.601  12.102  1.00  0.00    -0.261 N 
HETATM   22  C5  UNL     1      -0.538  22.927  11.923  1.00  0.00     0.207 A 
HETATM   23  N3  UNL     1      -0.429  23.529  10.747  1.00  0.00    -0.346 N 
HETATM   24  C6  UNL     1      -1.642  23.588  10.182  1.00  0.00     0.198 A 
ATOM     25  H3  UNL     1       0.435  23.887  10.340  1.00  0.00     0.167 HD
HETATM   26  N4  UNL     1      -2.480  23.016  11.030  1.00  0.00    -0.289 N 
ATOM     27  H4  UNL     1      -3.483  22.911  10.875  1.00  0.00     0.188 HD
ENDBRANCH  20  21
ENDBRANCH  18  19
BRANCH  18  28
HETATM   28  C7  UNL     1      -4.150  23.968  15.712  1.00  0.00     0.142 C 
HETATM   29  C8  UNL     1      -4.729  22.653  16.181  1.00  0.00     0.196 C 
HETATM   30  O2  UNL     1      -5.952  23.036  15.578  1.00  0.00    -0.358 OA
HETATM   31  C9  UNL     1      -5.541  24.353  15.705  1.00  0.00     0.276 C 
BRANCH  31  32
HETATM   32  O3  UNL     1      -6.051  25.287  14.839  1.00  0.00    -0.370 OA
ATOM     33  H3  UNL     1      -6.478  26.084  15.133  1.00  0.00     0.212 HD
ENDBRANCH  31  32
ENDBRANCH  18  28
ENDBRANCH   1  18
TORSDOF 7
ENDMDL
MODEL 3
REMARK VINA RESULT: -7.517132018      2.600      4.375
REMARK  7 active torsions:
REMARK  status: ('A' for Active; 'I' for Inactive)
REMARK    1  A    between atoms: C1_2  and  C2_3 
REMARK       I    between atoms: C1_2  and  N5_20 
REMARK    2  A    between atoms: C2_3  and  N1_4 
REMARK    3  A    between atoms: N1_4  and  C3_5 
REMARK    4  A    between atoms: N1_4  and  C7_14 
REMARK    5  A    between atoms: C4_6  and  N2_7 
REMARK    6  A    between atoms: C9_17  and  O3_18 
REMARK    7  A    between atoms: N5_20  and  C10_22 
ROOT
HETATM    1  C2  UNL     1      -6.151  25.228  13.592  1.00  0.00     0.198 C 
ENDROOT
BRANCH   1   2
HETATM    2  C1  UNL     1      -5.253  25.495  12.439  1.00  0.00     0.236 C 
HETATM    3  O1  UNL     1      -4.854  24.540  11.747  1.00  0.00    -0.272 OA
HETATM    4  N5  UNL     1      -4.873  26.796  12.151  1.00  0.00    -0.306 N 
ATOM      5  H5  UNL     1      -5.459  27.521  12.564  1.00  0.00     0.171 HD
BRANCH   4   6
HETATM    6  C10 UNL     1      -3.892  27.225  11.440  1.00  0.00     0.152 A 
HETATM    7  N6  UNL     1      -2.692  26.743  11.144  1.00  0.00    -0.334 N 
HETATM    8  C11 UNL     1      -1.899  27.444  10.359  1.00  0.00     0.073 A 
ATOM      9  H6  UNL     1      -2.388  25.844  11.518  1.00  0.00     0.168 HD
HETATM   10  C12 UNL     1      -0.598  27.093   9.939  1.00  0.00     0.063 A 
HETATM   11  C16 UNL     1      -2.362  28.640   9.890  1.00  0.00     0.038 A 
HETATM   12 CL1  UNL     1       0.171  25.594  10.438  1.00  0.00    -0.082 Cl
HETATM   13  C13 UNL     1       0.097  27.936   9.119  1.00  0.00     0.050 A 
HETATM   14  C14 UNL     1      -0.357  29.142   8.639  1.00  0.00     0.037 A 
HETATM   15 CL2  UNL     1       0.589  30.170   7.591  1.00  0.00    -0.084 Cl
HETATM   16  C15 UNL     1      -1.626  29.484   9.051  1.00  0.00     0.045 A 
HETATM   17  S1  UNL     1      -3.925  28.711  10.598  1.00  0.00    -0.052 SA
ENDBRANCH   4   6
ENDBRANCH   1   2
BRANCH   1  18
HETATM   18  N1  UNL     1      -5.470  24.349  14.516  1.00  0.00    -0.271 NA
BRANCH  18  19
HETATM   19  C3  UNL     1      -4.211  24.831  14.970  1.00  0.00     0.080 C 
HETATM   20  C4  UNL     1      -3.042  23.993  15.137  1.00  0.00     0.129 C 
BRANCH  20  21
HETATM   21  N2  UNL     1      -2.558  23.282  14.010  1.00  0.00    -0.261 N 
HETATM   22  C5  UNL     1      -2.546  21.953  13.758  1.00  0.00     0.207 A 
HETATM   23  N3  UNL     1      -1.984  21.770  12.572  1.00  0.00    -0.346 N 
HETATM   24  C6  UNL     1      -1.640  22.964  12.071  1.00  0.00     0.198 A 
ATOM     25  H3  UNL     1      -1.837  20.869  12.115  1.00  0.00     0.167 HD
HETATM   26  N4  UNL     1      -2.002  23.865  12.969  1.00  0.00    -0.289 N 
ATOM     27  H4  UNL     1      -1.868  24.872  12.868  1.00  0.00     0.188 HD
ENDBRANCH  20  21
ENDBRANCH  18  19
BRANCH  18  28
HETATM   28  C7  UNL     1      -6.400  24.134  15.595  1.00  0.00     0.142 C 
HETATM   29  C8  UNL     1      -6.314  25.091  16.762  1.00  0.00     0.196 C 
HETATM   30  O2  UNL     1      -5.645  24.071  17.482  1.00  0.00    -0.358 OA
HETATM   31  C9  UNL     1      -6.253  23.152  16.642  1.00  0.00     0.276 C 
BRANCH  31  32
HETATM   32  O3  UNL     1      -5.646  21.939  16.445  1.00  0.00    -0.370 OA
ATOM     33  H3  UNL     1      -6.110  21.112  16.516  1.00  0.00     0.212 HD
ENDBRANCH  31  32
ENDBRANCH  18  28
ENDBRANCH   1  18
TORSDOF 7
ENDMDL
MODEL 4
REMARK VINA RESULT: -7.487799833      2.128      2.912
REMARK  7 active torsions:
REMARK  status: ('A' for Active; 'I' for Inactive)
REMARK    1  A    between atoms: C1_2  and  C2_3 
REMARK       I    between atoms: C1_2  and  N5_20 
REMARK    2  A    between atoms: C2_3  and  N1_4 
REMARK    3  A    between atoms: N1_4  and  C3_5 
REMARK    4  A    between atoms: N1_4  and  C7_14 
REMARK    5  A    between atoms: C4_6  and  N2_7 
REMARK    6  A    between atoms: C9_17  and  O3_18 
REMARK    7  A    between atoms: N5_20  and  C10_22 
ROOT
HETATM    1  C2  UNL     1      -4.680  24.895  12.474  1.00  0.00     0.198 C 
ENDROOT
BRANCH   1   2
HETATM    2  C1  UNL     1      -4.307  26.241  11.967  1.00  0.00     0.236 C 
HETATM    3  O1  UNL     1      -5.207  27.052  11.683  1.00  0.00    -0.272 OA
HETATM    4  N5  UNL     1      -2.970  26.572  11.817  1.00  0.00    -0.306 N 
ATOM      5  H5  UNL     1      -2.316  25.985  12.334  1.00  0.00     0.171 HD
BRANCH   4   6
HETATM    6  C10 UNL     1      -2.431  27.510  11.124  1.00  0.00     0.152 A 
HETATM    7  N6  UNL     1      -2.552  28.831  11.114  1.00  0.00    -0.334 N 
HETATM    8  C11 UNL     1      -1.834  29.531  10.258  1.00  0.00     0.073 A 
ATOM      9  H6  UNL     1      -3.190  29.298  11.758  1.00  0.00     0.168 HD
HETATM   10  C12 UNL     1      -1.830  30.934  10.105  1.00  0.00     0.063 A 
HETATM   11  C16 UNL     1      -0.998  28.850   9.421  1.00  0.00     0.038 A 
HETATM   12 CL1  UNL     1      -2.840  31.982  11.090  1.00  0.00    -0.082 Cl
HETATM   13  C13 UNL     1      -1.023  31.509   9.166  1.00  0.00     0.050 A 
HETATM   14  C14 UNL     1      -0.176  30.835   8.317  1.00  0.00     0.037 A 
HETATM   15 CL2  UNL     1       0.831  31.637   7.137  1.00  0.00    -0.084 Cl
HETATM   16  C15 UNL     1      -0.181  29.466   8.467  1.00  0.00     0.045 A 
HETATM   17  S1  UNL     1      -1.277  27.223   9.898  1.00  0.00    -0.052 SA
ENDBRANCH   4   6
ENDBRANCH   1   2
BRANCH   1  18
HETATM   18  N1  UNL     1      -4.465  24.863  13.904  1.00  0.00    -0.271 NA
BRANCH  18  19
HETATM   19  C3  UNL     1      -5.303  23.954  14.607  1.00  0.00     0.080 C 
HETATM   20  C4  UNL     1      -5.660  24.104  16.002  1.00  0.00     0.129 C 
BRANCH  20  21
HETATM   21  N2  UNL     1      -6.319  25.293  16.404  1.00  0.00    -0.261 N 
HETATM   22  C5  UNL     1      -6.270  25.962  17.578  1.00  0.00     0.207 A 
HETATM   23  N3  UNL     1      -7.065  27.018  17.478  1.00  0.00    -0.346 N 
HETATM   24  C6  UNL     1      -7.617  27.025  16.257  1.00  0.00     0.198 A 
ATOM     25  H3  UNL     1      -7.230  27.711  18.209  1.00  0.00     0.167 HD
HETATM   26  N4  UNL     1      -7.144  25.963  15.626  1.00  0.00    -0.289 N 
ATOM     27  H4  UNL     1      -7.386  25.700  14.670  1.00  0.00     0.188 HD
ENDBRANCH  20  21
ENDBRANCH  18  19
BRANCH  18  28
HETATM   28  C7  UNL     1      -3.066  24.565  14.073  1.00  0.00     0.142 C 
HETATM   29  C8  UNL     1      -2.709  23.121  14.341  1.00  0.00     0.196 C 
HETATM   30  O2  UNL     1      -2.532  23.472  15.702  1.00  0.00    -0.358 OA
HETATM   31  C9  UNL     1      -2.307  24.773  15.283  1.00  0.00     0.276 C 
BRANCH  31  32
HETATM   32  O3  UNL     1      -2.564  25.799  16.156  1.00  0.00    -0.370 OA
ATOM     33  H3  UNL     1      -2.735  25.659  17.081  1.00  0.00     0.212 HD
ENDBRANCH  31  32
ENDBRANCH  18  28
ENDBRANCH   1  18
TORSDOF 7
ENDMDL
MODEL 5
REMARK VINA RESULT: -7.330351060      5.327      7.258
REMARK  7 active torsions:
REMARK  status: ('A' for Active; 'I' for Inactive)
REMARK    1  A    between atoms: C1_2  and  C2_3 
REMARK       I    between atoms: C1_2  and  N5_20 
REMARK    2  A    between atoms: C2_3  and  N1_4 
REMARK    3  A    between atoms: N1_4  and  C3_5 
REMARK    4  A    between atoms: N1_4  and  C7_14 
REMARK    5  A    between atoms: C4_6  and  N2_7 
REMARK    6  A    between atoms: C9_17  and  O3_18 
REMARK    7  A    between atoms: N5_20  and  C10_22 
ROOT
HETATM    1  C2  UNL     1       2.752  22.754  11.717  1.00  0.00     0.198 C 
ENDROOT
BRANCH   1   2
HETATM    2  C1  UNL     1       1.839  23.922  11.810  1.00  0.00     0.236 C 
HETATM    3  O1  UNL     1       0.899  23.893  12.625  1.00  0.00    -0.272 OA
HETATM    4  N5  UNL     1       2.045  25.022  10.992  1.00  0.00    -0.306 N 
ATOM      5  H5  UNL     1       2.976  25.089  10.582  1.00  0.00     0.171 HD
BRANCH   4   6
HETATM    6  C10 UNL     1       1.238  25.969  10.675  1.00  0.00     0.152 A 
HETATM    7  N6  UNL     1      -0.035  26.224  10.952  1.00  0.00    -0.334 N 
HETATM    8  C11 UNL     1      -0.588  27.316  10.464  1.00  0.00     0.073 A 
ATOM      9  H6  UNL     1      -0.577  25.585  11.533  1.00  0.00     0.168 HD
HETATM   10  C12 UNL     1      -1.918  27.748  10.651  1.00  0.00     0.063 A 
HETATM   11  C16 UNL     1       0.188  28.133   9.692  1.00  0.00     0.038 A 
HETATM   12 CL1  UNL     1      -3.069  26.832  11.612  1.00  0.00    -0.082 Cl
HETATM   13  C13 UNL     1      -2.338  28.912  10.074  1.00  0.00     0.050 A 
HETATM   14  C14 UNL     1      -1.568  29.744   9.295  1.00  0.00     0.037 A 
HETATM   15 CL2  UNL     1      -2.173  31.221   8.587  1.00  0.00    -0.084 Cl
HETATM   16  C15 UNL     1      -0.270  29.321   9.112  1.00  0.00     0.045 A 
HETATM   17  S1  UNL     1       1.688  27.296   9.698  1.00  0.00    -0.052 SA
ENDBRANCH   4   6
ENDBRANCH   1   2
BRANCH   1  18
HETATM   18  N1  UNL     1       1.956  21.548  11.659  1.00  0.00    -0.271 NA
BRANCH  18  19
HETATM   19  C3  UNL     1       1.234  21.375  10.445  1.00  0.00     0.080 C 
HETATM   20  C4  UNL     1      -0.172  21.033  10.388  1.00  0.00     0.129 C 
BRANCH  20  21
HETATM   21  N2  UNL     1      -1.101  21.898  11.019  1.00  0.00    -0.261 N 
HETATM   22  C5  UNL     1      -1.793  22.947  10.518  1.00  0.00     0.207 A 
HETATM   23  N3  UNL     1      -2.533  23.450  11.496  1.00  0.00    -0.346 N 
HETATM   24  C6  UNL     1      -2.319  22.733  12.608  1.00  0.00     0.198 A 
ATOM     25  H3  UNL     1      -3.162  24.249  11.416  1.00  0.00     0.167 HD
HETATM   26  N4  UNL     1      -1.442  21.796  12.287  1.00  0.00    -0.289 N 
ATOM     27  H4  UNL     1      -1.081  21.093  12.932  1.00  0.00     0.188 HD
ENDBRANCH  20  21
ENDBRANCH  18  19
BRANCH  18  28
HETATM   28  C7  UNL     1       2.877  20.470  11.910  1.00  0.00     0.142 C 
HETATM   29  C8  UNL     1       2.552  19.139  11.270  1.00  0.00     0.196 C 
HETATM   30  O2  UNL     1       2.097  18.699  12.537  1.00  0.00    -0.358 OA
HETATM   31  C9  UNL     1       2.915  19.662  13.106  1.00  0.00     0.276 C 
BRANCH  31  32
HETATM   32  O3  UNL     1       2.590  20.152  14.345  1.00  0.00    -0.370 OA
ATOM     33  H3  UNL     1       2.028  19.686  14.953  1.00  0.00     0.212 HD
ENDBRANCH  31  32
ENDBRANCH  18  28
ENDBRANCH   1  18
TORSDOF 7
ENDMDL
