MODEL 1
REMARK VINA RESULT: -5.310978267      0.000      0.000
REMARK  5 active torsions:
REMARK  status: ('A' for Active; 'I' for Inactive)
REMARK    1  A    between atoms: N1_2  and  C2_5 
REMARK    2  A    between atoms: C2_5  and  C3_6 
REMARK    3  A    between atoms: C3_6  and  C4_7 
REMARK    4  A    between atoms: C4_7  and  O1_8 
REMARK    5  A    between atoms: O1_8  and  C5_9 
ROOT
HETATM    1  C5  UNL     1      37.447  66.592-150.993  1.00  0.00     0.338 C 
HETATM    2  C6  UNL     1      37.821  65.223-150.471  1.00  0.00     0.175 C 
HETATM    3  N2  UNL     1      37.314  65.006-149.167  1.00  0.00    -0.417 N 
ATOM      4  H2  UNL     1      37.912  65.079-148.344  1.00  0.00     0.153 HD
HETATM    5  C7  UNL     1      35.944  64.683-149.054  1.00  0.00     0.115 C 
HETATM    6  C8  UNL     1      35.159  64.717-150.326  1.00  0.00     0.047 C 
HETATM    7  C9  UNL     1      35.103  66.022-151.012  1.00  0.00     0.237 C 
HETATM    8  N3  UNL     1      36.109  66.969-150.604  1.00  0.00    -0.047 N 
ATOM      9  H31 UNL     1      35.884  67.904-150.944  1.00  0.00     0.280 HD
ATOM     10  H32 UNL     1      36.059  67.138-149.599  1.00  0.00     0.280 HD
ENDROOT
BRANCH   1  11
HETATM   11  O1  UNL     1      37.654  66.701-152.358  1.00  0.00    -0.358 OA
BRANCH  11  12
HETATM   12  C4  UNL     1      38.453  65.749-152.923  1.00  0.00     0.172 C 
BRANCH  12  13
HETATM   13  C3  UNL     1      37.844  65.157-154.150  1.00  0.00     0.054 C 
BRANCH  13  14
HETATM   14  C2  UNL     1      36.546  64.419-153.848  1.00  0.00     0.234 C 
BRANCH  14  15
HETATM   15  N1  UNL     1      36.809  63.092-153.329  1.00  0.00    -0.079 N 
HETATM   16  C1  UNL     1      37.985  62.501-153.882  1.00  0.00     0.266 C 
ATOM     17  H12 UNL     1      36.000  62.484-153.458  1.00  0.00     0.276 HD
ATOM     18  H11 UNL     1      36.849  63.101-152.310  1.00  0.00     0.276 HD
ENDBRANCH  14  15
ENDBRANCH  13  14
ENDBRANCH  12  13
ENDBRANCH  11  12
ENDBRANCH   1  11
TORSDOF 5
ENDMDL
MODEL 2
REMARK VINA RESULT: -5.291207365      2.600      3.563
REMARK  5 active torsions:
REMARK  status: ('A' for Active; 'I' for Inactive)
REMARK    1  A    between atoms: N1_2  and  C2_5 
REMARK    2  A    between atoms: C2_5  and  C3_6 
REMARK    3  A    between atoms: C3_6  and  C4_7 
REMARK    4  A    between atoms: C4_7  and  O1_8 
REMARK    5  A    between atoms: O1_8  and  C5_9 
ROOT
HETATM    1  C5  UNL     1      37.291  65.418-150.446  1.00  0.00     0.338 C 
HETATM    2  C6  UNL     1      36.501  66.679-150.713  1.00  0.00     0.175 C 
HETATM    3  N2  UNL     1      35.199  66.388-151.187  1.00  0.00    -0.417 N 
ATOM      4  H2  UNL     1      34.962  66.469-152.175  1.00  0.00     0.153 HD
HETATM    5  C7  UNL     1      34.242  65.981-150.231  1.00  0.00     0.115 C 
HETATM    6  C8  UNL     1      34.749  65.799-148.837  1.00  0.00     0.047 C 
HETATM    7  C9  UNL     1      35.798  64.776-148.663  1.00  0.00     0.237 C 
HETATM    8  N3  UNL     1      36.469  64.378-149.876  1.00  0.00    -0.047 N 
ATOM      9  H31 UNL     1      37.013  63.529-149.726  1.00  0.00     0.280 HD
ATOM     10  H32 UNL     1      35.799  64.031-150.562  1.00  0.00     0.280 HD
ENDROOT
BRANCH   1  11
HETATM   11  O1  UNL     1      38.429  65.668-149.697  1.00  0.00    -0.358 OA
BRANCH  11  12
HETATM   12  C4  UNL     1      39.547  64.966-150.045  1.00  0.00     0.172 C 
BRANCH  12  13
HETATM   13  C3  UNL     1      39.711  64.866-151.525  1.00  0.00     0.054 C 
BRANCH  13  14
HETATM   14  C2  UNL     1      40.964  64.092-151.913  1.00  0.00     0.234 C 
BRANCH  14  15
HETATM   15  N1  UNL     1      42.086  64.462-151.074  1.00  0.00    -0.079 N 
HETATM   16  C1  UNL     1      43.308  64.590-151.802  1.00  0.00     0.266 C 
ATOM     17  H12 UNL     1      42.192  63.808-150.298  1.00  0.00     0.276 HD
ATOM     18  H11 UNL     1      41.884  65.313-150.549  1.00  0.00     0.276 HD
ENDBRANCH  14  15
ENDBRANCH  13  14
ENDBRANCH  12  13
ENDBRANCH  11  12
ENDBRANCH   1  11
TORSDOF 5
ENDMDL
MODEL 3
REMARK VINA RESULT: -5.250541094      1.553      2.400
REMARK  5 active torsions:
REMARK  status: ('A' for Active; 'I' for Inactive)
REMARK    1  A    between atoms: N1_2  and  C2_5 
REMARK    2  A    between atoms: C2_5  and  C3_6 
REMARK    3  A    between atoms: C3_6  and  C4_7 
REMARK    4  A    between atoms: C4_7  and  O1_8 
REMARK    5  A    between atoms: O1_8  and  C5_9 
ROOT
HETATM    1  C5  UNL     1      37.226  65.423-150.865  1.00  0.00     0.338 C 
HETATM    2  C6  UNL     1      36.424  66.705-150.835  1.00  0.00     0.175 C 
HETATM    3  N2  UNL     1      35.052  66.468-151.093  1.00  0.00    -0.417 N 
ATOM      4  H2  UNL     1      34.641  66.663-152.005  1.00  0.00     0.153 HD
HETATM    5  C7  UNL     1      34.278  65.949-150.032  1.00  0.00     0.115 C 
HETATM    6  C8  UNL     1      35.027  65.605-148.785  1.00  0.00     0.047 C 
HETATM    7  C9  UNL     1      36.071  64.572-148.926  1.00  0.00     0.237 C 
HETATM    8  N3  UNL     1      36.502  64.321-150.278  1.00  0.00    -0.047 N 
ATOM      9  H31 UNL     1      37.048  63.462-150.329  1.00  0.00     0.280 HD
ATOM     10  H32 UNL     1      35.711  64.055-150.866  1.00  0.00     0.280 HD
ENDROOT
BRANCH   1  11
HETATM   11  O1  UNL     1      38.485  65.587-150.312  1.00  0.00    -0.358 OA
BRANCH  11  12
HETATM   12  C4  UNL     1      39.515  64.977-150.969  1.00  0.00     0.172 C 
BRANCH  12  13
HETATM   13  C3  UNL     1      39.242  64.823-152.428  1.00  0.00     0.054 C 
BRANCH  13  14
HETATM   14  C2  UNL     1      39.936  63.601-153.016  1.00  0.00     0.234 C 
BRANCH  14  15
HETATM   15  N1  UNL     1      38.989  62.536-153.273  1.00  0.00    -0.079 N 
HETATM   16  C1  UNL     1      37.682  63.017-153.590  1.00  0.00     0.266 C 
ATOM     17  H12 UNL     1      38.956  61.880-152.493  1.00  0.00     0.276 HD
ATOM     18  H11 UNL     1      39.334  61.910-154.002  1.00  0.00     0.276 HD
ENDBRANCH  14  15
ENDBRANCH  13  14
ENDBRANCH  12  13
ENDBRANCH  11  12
ENDBRANCH   1  11
TORSDOF 5
ENDMDL
MODEL 4
REMARK VINA RESULT: -5.204211465      2.230      2.907
REMARK  5 active torsions:
REMARK  status: ('A' for Active; 'I' for Inactive)
REMARK    1  A    between atoms: N1_2  and  C2_5 
REMARK    2  A    between atoms: C2_5  and  C3_6 
REMARK    3  A    between atoms: C3_6  and  C4_7 
REMARK    4  A    between atoms: C4_7  and  O1_8 
REMARK    5  A    between atoms: O1_8  and  C5_9 
ROOT
HETATM    1  C5  UNL     1      37.306  65.432-150.554  1.00  0.00     0.338 C 
HETATM    2  C6  UNL     1      36.510  66.705-150.730  1.00  0.00     0.175 C 
HETATM    3  N2  UNL     1      35.189  66.438-151.168  1.00  0.00    -0.417 N 
ATOM      4  H2  UNL     1      34.916  66.566-152.142  1.00  0.00     0.153 HD
HETATM    5  C7  UNL     1      34.268  65.987-150.197  1.00  0.00     0.115 C 
HETATM    6  C8  UNL     1      34.827  65.738-148.833  1.00  0.00     0.047 C 
HETATM    7  C9  UNL     1      35.880  64.707-148.748  1.00  0.00     0.237 C 
HETATM    8  N3  UNL     1      36.503  64.367-150.003  1.00  0.00    -0.047 N 
ATOM      9  H31 UNL     1      37.050  63.511-149.914  1.00  0.00     0.280 HD
ATOM     10  H32 UNL     1      35.806  64.053-150.679  1.00  0.00     0.280 HD
ENDROOT
BRANCH   1  11
HETATM   11  O1  UNL     1      38.471  65.645-149.837  1.00  0.00    -0.358 OA
BRANCH  11  12
HETATM   12  C4  UNL     1      39.569  64.947-150.250  1.00  0.00     0.172 C 
BRANCH  12  13
HETATM   13  C3  UNL     1      39.666  64.876-151.737  1.00  0.00     0.054 C 
BRANCH  13  14
HETATM   14  C2  UNL     1      40.743  63.902-152.197  1.00  0.00     0.234 C 
BRANCH  14  15
HETATM   15  N1  UNL     1      40.156  62.712-152.780  1.00  0.00    -0.079 N 
HETATM   16  C1  UNL     1      41.114  61.682-153.026  1.00  0.00     0.266 C 
ATOM     17  H12 UNL     1      39.639  62.940-153.629  1.00  0.00     0.276 HD
ATOM     18  H11 UNL     1      39.388  62.366-152.204  1.00  0.00     0.276 HD
ENDBRANCH  14  15
ENDBRANCH  13  14
ENDBRANCH  12  13
ENDBRANCH  11  12
ENDBRANCH   1  11
TORSDOF 5
ENDMDL
MODEL 5
REMARK VINA RESULT: -5.077062566      1.501      1.786
REMARK  5 active torsions:
REMARK  status: ('A' for Active; 'I' for Inactive)
REMARK    1  A    between atoms: N1_2  and  C2_5 
REMARK    2  A    between atoms: C2_5  and  C3_6 
REMARK    3  A    between atoms: C3_6  and  C4_7 
REMARK    4  A    between atoms: C4_7  and  O1_8 
REMARK    5  A    between atoms: O1_8  and  C5_9 
ROOT
HETATM    1  C5  UNL     1      37.515  65.060-152.104  1.00  0.00     0.338 C 
HETATM    2  C6  UNL     1      36.231  64.344-151.749  1.00  0.00     0.175 C 
HETATM    3  N2  UNL     1      36.168  64.041-150.367  1.00  0.00    -0.417 N 
ATOM      4  H2  UNL     1      36.358  63.101-150.020  1.00  0.00     0.153 HD
HETATM    5  C7  UNL     1      35.831  65.095-149.491  1.00  0.00     0.115 C 
HETATM    6  C8  UNL     1      35.686  66.444-150.119  1.00  0.00     0.047 C 
HETATM    7  C9  UNL     1      36.893  66.978-150.779  1.00  0.00     0.237 C 
HETATM    8  N3  UNL     1      37.907  66.000-151.081  1.00  0.00    -0.047 N 
ATOM      9  H31 UNL     1      38.786  66.455-151.326  1.00  0.00     0.280 HD
ATOM     10  H32 UNL     1      38.200  65.511-150.234  1.00  0.00     0.280 HD
ENDROOT
BRANCH   1  11
HETATM   11  O1  UNL     1      37.456  65.637-153.361  1.00  0.00    -0.358 OA
BRANCH  11  12
HETATM   12  C4  UNL     1      38.654  65.936-153.944  1.00  0.00     0.172 C 
BRANCH  12  13
HETATM   13  C3  UNL     1      39.332  64.725-154.493  1.00  0.00     0.054 C 
BRANCH  13  14
HETATM   14  C2  UNL     1      38.522  64.066-155.602  1.00  0.00     0.234 C 
BRANCH  14  15
HETATM   15  N1  UNL     1      37.664  63.025-155.074  1.00  0.00    -0.079 N 
HETATM   16  C1  UNL     1      38.340  62.153-154.167  1.00  0.00     0.266 C 
ATOM     17  H12 UNL     1      37.225  62.497-155.829  1.00  0.00     0.276 HD
ATOM     18  H11 UNL     1      36.830  63.424-154.643  1.00  0.00     0.276 HD
ENDBRANCH  14  15
ENDBRANCH  13  14
ENDBRANCH  12  13
ENDBRANCH  11  12
ENDBRANCH   1  11
TORSDOF 5
ENDMDL
