MODEL 1
REMARK VINA RESULT: -4.623768094      0.000      0.000
REMARK  6 active torsions:
REMARK  status: ('A' for Active; 'I' for Inactive)
REMARK    1  A    between atoms: C2_2  and  C3_3 
REMARK    2  A    between atoms: C3_3  and  N1_4 
REMARK    3  A    between atoms: N1_4  and  C4_6 
REMARK    4  A    between atoms: C7_10  and  N2_11 
REMARK    5  A    between atoms: N2_11  and  C8_13 
REMARK    6  A    between atoms: C8_13  and  N3_15 
ROOT
HETATM    1  C4  UNL     1      37.065  64.583-151.722  1.00  0.00     0.129 C 
HETATM    2  C5  UNL     1      38.004  65.707-152.139  1.00  0.00     0.195 C 
HETATM    3  O1  UNL     1      37.853  65.848-153.506  1.00  0.00    -0.387 OA
HETATM    4  C6  UNL     1      37.042  64.824-153.970  1.00  0.00     0.194 C 
HETATM    5  C7  UNL     1      37.320  63.706-152.990  1.00  0.00     0.127 C 
ENDROOT
BRANCH   5   6
HETATM    6  N2  UNL     1      38.656  63.288-152.916  1.00  0.00    -0.388 N 
ATOM      7  H2  UNL     1      39.301  63.761-152.283  1.00  0.00     0.155 HD
BRANCH   6   8
HETATM    8  C8  UNL     1      39.116  62.216-153.715  1.00  0.00     0.273 C 
HETATM    9  C9  UNL     1      39.849  62.613-154.977  1.00  0.00     0.062 C 
BRANCH   8  10
HETATM   10  N3  UNL     1      37.981  61.401-154.114  1.00  0.00    -0.059 N 
ATOM     11  H33 UNL     1      37.567  61.715-154.992  1.00  0.00     0.276 HD
ATOM     12  H32 UNL     1      38.260  60.466-154.414  1.00  0.00     0.276 HD
ATOM     13  H31 UNL     1      37.302  61.377-153.352  1.00  0.00     0.276 HD
ENDBRANCH   8  10
ENDBRANCH   6   8
ENDBRANCH   5   6
BRANCH   1  14
HETATM   14  N1  UNL     1      35.723  64.942-151.634  1.00  0.00    -0.390 N 
ATOM     15  H1  UNL     1      35.034  64.340-152.083  1.00  0.00     0.159 HD
BRANCH  14  16
HETATM   16  C3  UNL     1      35.271  66.072-150.972  1.00  0.00     0.082 C 
BRANCH  16  17
HETATM   17  C2  UNL     1      34.412  65.932-149.787  1.00  0.00     0.006 C 
HETATM   18  C1  UNL     1      34.752  65.995-148.522  1.00  0.00     0.012 C 
ENDBRANCH  16  17
ENDBRANCH  14  16
ENDBRANCH   1  14
TORSDOF 6
ENDMDL
MODEL 2
REMARK VINA RESULT: -4.567659515      1.253      5.260
REMARK  6 active torsions:
REMARK  status: ('A' for Active; 'I' for Inactive)
REMARK    1  A    between atoms: C2_2  and  C3_3 
REMARK    2  A    between atoms: C3_3  and  N1_4 
REMARK    3  A    between atoms: N1_4  and  C4_6 
REMARK    4  A    between atoms: C7_10  and  N2_11 
REMARK    5  A    between atoms: N2_11  and  C8_13 
REMARK    6  A    between atoms: C8_13  and  N3_15 
ROOT
HETATM    1  C4  UNL     1      37.324  63.765-152.681  1.00  0.00     0.129 C 
HETATM    2  C5  UNL     1      36.659  64.610-153.759  1.00  0.00     0.195 C 
HETATM    3  O1  UNL     1      37.426  65.755-153.880  1.00  0.00    -0.387 OA
HETATM    4  C6  UNL     1      38.386  65.751-152.879  1.00  0.00     0.194 C 
HETATM    5  C7  UNL     1      37.711  64.973-151.770  1.00  0.00     0.127 C 
ENDROOT
BRANCH   5   6
HETATM    6  N2  UNL     1      36.506  65.515-151.302  1.00  0.00    -0.388 N 
ATOM      7  H2  UNL     1      36.066  66.284-151.807  1.00  0.00     0.155 HD
BRANCH   6   8
HETATM    8  C8  UNL     1      35.897  65.003-150.133  1.00  0.00     0.273 C 
HETATM    9  C9  UNL     1      34.914  65.930-149.453  1.00  0.00     0.062 C 
BRANCH   8  10
HETATM   10  N3  UNL     1      36.930  64.682-149.162  1.00  0.00    -0.059 N 
ATOM     11  H33 UNL     1      37.026  63.677-149.015  1.00  0.00     0.276 HD
ATOM     12  H32 UNL     1      37.868  64.865-149.518  1.00  0.00     0.276 HD
ATOM     13  H31 UNL     1      36.740  65.185-148.294  1.00  0.00     0.276 HD
ENDBRANCH   8  10
ENDBRANCH   6   8
ENDBRANCH   5   6
BRANCH   1  14
HETATM   14  N1  UNL     1      38.460  63.076-153.095  1.00  0.00    -0.390 N 
ATOM     15  H1  UNL     1      39.287  63.112-152.499  1.00  0.00     0.159 HD
BRANCH  14  16
HETATM   16  C3  UNL     1      38.532  62.344-154.269  1.00  0.00     0.082 C 
BRANCH  16  17
HETATM   17  C2  UNL     1      38.806  60.901-154.217  1.00  0.00     0.006 C 
HETATM   18  C1  UNL     1      39.891  60.291-153.803  1.00  0.00     0.012 C 
ENDBRANCH  16  17
ENDBRANCH  14  16
ENDBRANCH   1  14
TORSDOF 6
ENDMDL
MODEL 3
REMARK VINA RESULT: -4.515956728      1.363      1.624
REMARK  6 active torsions:
REMARK  status: ('A' for Active; 'I' for Inactive)
REMARK    1  A    between atoms: C2_2  and  C3_3 
REMARK    2  A    between atoms: C3_3  and  N1_4 
REMARK    3  A    between atoms: N1_4  and  C4_6 
REMARK    4  A    between atoms: C7_10  and  N2_11 
REMARK    5  A    between atoms: N2_11  and  C8_13 
REMARK    6  A    between atoms: C8_13  and  N3_15 
ROOT
HETATM    1  C4  UNL     1      37.429  65.356-150.964  1.00  0.00     0.129 C 
HETATM    2  C5  UNL     1      38.875  65.551-150.530  1.00  0.00     0.195 C 
HETATM    3  O1  UNL     1      39.477  66.306-151.520  1.00  0.00    -0.387 OA
HETATM    4  C6  UNL     1      38.585  66.448-152.572  1.00  0.00     0.194 C 
HETATM    5  C7  UNL     1      37.757  65.184-152.482  1.00  0.00     0.127 C 
ENDROOT
BRANCH   5   6
HETATM    6  N2  UNL     1      38.475  63.986-152.596  1.00  0.00    -0.388 N 
ATOM      7  H2  UNL     1      39.360  63.876-152.102  1.00  0.00     0.155 HD
BRANCH   6   8
HETATM    8  C8  UNL     1      37.980  62.927-153.392  1.00  0.00     0.273 C 
HETATM    9  C9  UNL     1      39.020  62.175-154.193  1.00  0.00     0.062 C 
BRANCH   8  10
HETATM   10  N3  UNL     1      37.009  63.457-154.336  1.00  0.00    -0.059 N 
ATOM     11  H33 UNL     1      36.500  64.257-153.960  1.00  0.00     0.276 HD
ATOM     12  H32 UNL     1      37.453  63.928-155.125  1.00  0.00     0.276 HD
ATOM     13  H31 UNL     1      36.387  62.705-154.632  1.00  0.00     0.276 HD
ENDBRANCH   8  10
ENDBRANCH   6   8
ENDBRANCH   5   6
BRANCH   1  14
HETATM   14  N1  UNL     1      36.603  66.457-150.761  1.00  0.00    -0.390 N 
ATOM     15  H1  UNL     1      37.039  67.348-150.526  1.00  0.00     0.159 HD
BRANCH  14  16
HETATM   16  C3  UNL     1      35.222  66.412-150.860  1.00  0.00     0.082 C 
BRANCH  16  17
HETATM   17  C2  UNL     1      34.418  65.987-149.705  1.00  0.00     0.006 C 
HETATM   18  C1  UNL     1      34.757  65.966-148.438  1.00  0.00     0.012 C 
ENDBRANCH  16  17
ENDBRANCH  14  16
ENDBRANCH   1  14
TORSDOF 6
ENDMDL
MODEL 4
REMARK VINA RESULT: -4.477137800      0.885      1.036
REMARK  6 active torsions:
REMARK  status: ('A' for Active; 'I' for Inactive)
REMARK    1  A    between atoms: C2_2  and  C3_3 
REMARK    2  A    between atoms: C3_3  and  N1_4 
REMARK    3  A    between atoms: N1_4  and  C4_6 
REMARK    4  A    between atoms: C7_10  and  N2_11 
REMARK    5  A    between atoms: N2_11  and  C8_13 
REMARK    6  A    between atoms: C8_13  and  N3_15 
ROOT
HETATM    1  C4  UNL     1      37.261  64.832-151.749  1.00  0.00     0.129 C 
HETATM    2  C5  UNL     1      38.175  65.959-152.208  1.00  0.00     0.195 C 
HETATM    3  O1  UNL     1      38.085  65.993-153.587  1.00  0.00    -0.387 OA
HETATM    4  C6  UNL     1      37.336  64.904-154.008  1.00  0.00     0.194 C 
HETATM    5  C7  UNL     1      37.609  63.874-152.934  1.00  0.00     0.127 C 
ENDROOT
BRANCH   5   6
HETATM    6  N2  UNL     1      38.955  63.519-152.770  1.00  0.00    -0.388 N 
ATOM      7  H2  UNL     1      39.496  63.922-152.006  1.00  0.00     0.155 HD
BRANCH   6   8
HETATM    8  C8  UNL     1      39.567  62.605-153.658  1.00  0.00     0.273 C 
HETATM    9  C9  UNL     1      38.708  61.434-154.080  1.00  0.00     0.062 C 
BRANCH   8  10
HETATM   10  N3  UNL     1      40.761  62.061-153.032  1.00  0.00    -0.059 N 
ATOM     11  H33 UNL     1      41.464  61.781-153.715  1.00  0.00     0.276 HD
ATOM     12  H32 UNL     1      41.306  62.776-152.549  1.00  0.00     0.276 HD
ATOM     13  H31 UNL     1      40.493  61.294-152.414  1.00  0.00     0.276 HD
ENDBRANCH   8  10
ENDBRANCH   6   8
ENDBRANCH   5   6
BRANCH   1  14
HETATM   14  N1  UNL     1      35.904  65.141-151.749  1.00  0.00    -0.390 N 
ATOM     15  H1  UNL     1      35.283  64.580-152.331  1.00  0.00     0.159 HD
BRANCH  14  16
HETATM   16  C3  UNL     1      35.349  66.167-151.003  1.00  0.00     0.082 C 
BRANCH  16  17
HETATM   17  C2  UNL     1      34.483  65.854-149.856  1.00  0.00     0.006 C 
HETATM   18  C1  UNL     1      34.748  65.975-148.577  1.00  0.00     0.012 C 
ENDBRANCH  16  17
ENDBRANCH  14  16
ENDBRANCH   1  14
TORSDOF 6
ENDMDL
MODEL 5
REMARK VINA RESULT: -4.403836008      2.455      4.493
REMARK  6 active torsions:
REMARK  status: ('A' for Active; 'I' for Inactive)
REMARK    1  A    between atoms: C2_2  and  C3_3 
REMARK    2  A    between atoms: C3_3  and  N1_4 
REMARK    3  A    between atoms: N1_4  and  C4_6 
REMARK    4  A    between atoms: C7_10  and  N2_11 
REMARK    5  A    between atoms: N2_11  and  C8_13 
REMARK    6  A    between atoms: C8_13  and  N3_15 
ROOT
HETATM    1  C4  UNL     1      36.609  64.781-150.907  1.00  0.00     0.129 C 
HETATM    2  C5  UNL     1      35.850  65.360-149.721  1.00  0.00     0.195 C 
HETATM    3  O1  UNL     1      36.099  66.720-149.731  1.00  0.00    -0.387 OA
HETATM    4  C6  UNL     1      37.051  66.989-150.703  1.00  0.00     0.194 C 
HETATM    5  C7  UNL     1      37.856  65.708-150.746  1.00  0.00     0.127 C 
ENDROOT
BRANCH   5   6
HETATM    6  N2  UNL     1      38.466  65.341-149.539  1.00  0.00    -0.388 N 
ATOM      7  H2  UNL     1      37.891  65.069-148.742  1.00  0.00     0.155 HD
BRANCH   6   8
HETATM    8  C8  UNL     1      39.875  65.345-149.420  1.00  0.00     0.273 C 
HETATM    9  C9  UNL     1      40.525  66.711-149.442  1.00  0.00     0.062 C 
BRANCH   8  10
HETATM   10  N3  UNL     1      40.447  64.578-150.514  1.00  0.00    -0.059 N 
ATOM     11  H33 UNL     1      39.811  64.500-151.307  1.00  0.00     0.276 HD
ATOM     12  H32 UNL     1      41.202  65.077-150.985  1.00  0.00     0.276 HD
ATOM     13  H31 UNL     1      40.744  63.666-150.164  1.00  0.00     0.276 HD
ENDBRANCH   8  10
ENDBRANCH   6   8
ENDBRANCH   5   6
BRANCH   1  14
HETATM   14  N1  UNL     1      36.003  64.980-152.144  1.00  0.00    -0.390 N 
ATOM     15  H1  UNL     1      35.132  65.509-152.173  1.00  0.00     0.159 HD
BRANCH  14  16
HETATM   16  C3  UNL     1      36.515  64.501-153.338  1.00  0.00     0.082 C 
BRANCH  16  17
HETATM   17  C2  UNL     1      37.285  63.248-153.356  1.00  0.00     0.006 C 
HETATM   18  C1  UNL     1      38.568  63.082-153.566  1.00  0.00     0.012 C 
ENDBRANCH  16  17
ENDBRANCH  14  16
ENDBRANCH   1  14
TORSDOF 6
ENDMDL
