MODEL 1
REMARK VINA RESULT: -4.498619368      0.000      0.000
REMARK  8 active torsions:
REMARK  status: ('A' for Active; 'I' for Inactive)
REMARK    1  A    between atoms: C2_2  and  N1_3 
REMARK    2  A    between atoms: C2_2  and  C3_7 
REMARK    3  A    between atoms: C3_7  and  C4_8 
REMARK    4  A    between atoms: C4_8  and  N2_9 
REMARK    5  A    between atoms: C6_17  and  O1_18 
REMARK    6  A    between atoms: O1_18  and  C7_19 
REMARK    7  A    between atoms: C7_19  and  C8_20 
REMARK    8  A    between atoms: C8_20  and  N4_21 
ROOT
HETATM    1  C4  UNL     1      36.785  65.414-150.217  1.00  0.00     0.313 C 
HETATM    2  N3  UNL     1      35.904  66.667-150.246  1.00  0.00    -0.035 N 
ATOM      3  H31 UNL     1      36.094  67.470-150.845  1.00  0.00     0.280 HD
ATOM      4  H32 UNL     1      35.860  67.336-149.477  1.00  0.00     0.280 HD
HETATM    5  C5  UNL     1      34.864  65.711-150.518  1.00  0.00     0.271 C 
HETATM    6  C6  UNL     1      35.943  64.892-151.296  1.00  0.00     0.211 C 
ENDROOT
BRANCH   1   7
HETATM    7  C3  UNL     1      38.206  65.797-150.401  1.00  0.00     0.104 C 
BRANCH   7   8
HETATM    8  C2  UNL     1      38.452  67.111-151.053  1.00  0.00     0.183 C 
HETATM    9  C1  UNL     1      39.485  67.991-150.486  1.00  0.00     0.040 C 
BRANCH   8  10
HETATM   10  N1  UNL     1      38.908  66.787-152.423  1.00  0.00    -0.075 N 
ATOM     11  H13 UNL     1      39.887  67.021-152.594  1.00  0.00     0.274 HD
ATOM     12  H12 UNL     1      38.990  65.786-152.600  1.00  0.00     0.274 HD
ATOM     13  H11 UNL     1      38.259  67.262-153.050  1.00  0.00     0.274 HD
ENDBRANCH   8  10
ENDBRANCH   7   8
ENDBRANCH   1   7
BRANCH   1  14
HETATM   14  N2  UNL     1      36.500  64.940-148.841  1.00  0.00    -0.042 N 
ATOM     15  H23 UNL     1      37.328  65.007-148.250  1.00  0.00     0.277 HD
ATOM     16  H22 UNL     1      35.892  65.593-148.346  1.00  0.00     0.277 HD
ATOM     17  H21 UNL     1      36.114  63.995-148.826  1.00  0.00     0.277 HD
ENDBRANCH   1  14
BRANCH   6  18
HETATM   18  O1  UNL     1      36.031  65.297-152.584  1.00  0.00    -0.378 OA
BRANCH  18  19
HETATM   19  C7  UNL     1      36.460  64.526-153.567  1.00  0.00     0.195 C 
BRANCH  19  20
HETATM   20  C8  UNL     1      37.380  63.372-153.314  1.00  0.00     0.255 C 
BRANCH  20  21
HETATM   21  N4  UNL     1      37.747  62.618-154.469  1.00  0.00    -0.077 N 
ATOM     22  H43 UNL     1      36.914  62.355-154.995  1.00  0.00     0.274 HD
ATOM     23  H42 UNL     1      38.207  63.222-155.150  1.00  0.00     0.274 HD
ATOM     24  H41 UNL     1      38.321  61.795-154.289  1.00  0.00     0.274 HD
ENDBRANCH  20  21
ENDBRANCH  19  20
ENDBRANCH  18  19
ENDBRANCH   6  18
TORSDOF 8
ENDMDL
MODEL 2
REMARK VINA RESULT: -4.274935519      1.220      1.326
REMARK  8 active torsions:
REMARK  status: ('A' for Active; 'I' for Inactive)
REMARK    1  A    between atoms: C2_2  and  N1_3 
REMARK    2  A    between atoms: C2_2  and  C3_7 
REMARK    3  A    between atoms: C3_7  and  C4_8 
REMARK    4  A    between atoms: C4_8  and  N2_9 
REMARK    5  A    between atoms: C6_17  and  O1_18 
REMARK    6  A    between atoms: O1_18  and  C7_19 
REMARK    7  A    between atoms: C7_19  and  C8_20 
REMARK    8  A    between atoms: C8_20  and  N4_21 
ROOT
HETATM    1  C4  UNL     1      36.991  65.432-150.351  1.00  0.00     0.313 C 
HETATM    2  N3  UNL     1      35.871  66.463-150.180  1.00  0.00    -0.035 N 
ATOM      3  H31 UNL     1      35.835  67.340-150.700  1.00  0.00     0.280 HD
ATOM      4  H32 UNL     1      35.761  67.034-149.342  1.00  0.00     0.280 HD
HETATM    5  C5  UNL     1      35.030  65.336-150.481  1.00  0.00     0.271 C 
HETATM    6  C6  UNL     1      36.179  64.842-151.418  1.00  0.00     0.211 C 
ENDROOT
BRANCH   1   7
HETATM    7  C3  UNL     1      38.278  66.126-150.592  1.00  0.00     0.104 C 
BRANCH   7   8
HETATM    8  C2  UNL     1      39.312  65.353-151.330  1.00  0.00     0.183 C 
HETATM    9  C1  UNL     1      40.167  66.066-152.292  1.00  0.00     0.040 C 
BRANCH   8  10
HETATM   10  N1  UNL     1      40.227  64.832-150.289  1.00  0.00    -0.075 N 
ATOM     11  H13 UNL     1      40.724  63.986-150.568  1.00  0.00     0.274 HD
ATOM     12  H12 UNL     1      41.052  65.415-150.143  1.00  0.00     0.274 HD
ATOM     13  H11 UNL     1      39.655  64.715-149.453  1.00  0.00     0.274 HD
ENDBRANCH   8  10
ENDBRANCH   7   8
ENDBRANCH   1   7
BRANCH   1  14
HETATM   14  N2  UNL     1      36.937  64.783-149.017  1.00  0.00    -0.042 N 
ATOM     15  H23 UNL     1      37.369  65.372-148.305  1.00  0.00     0.277 HD
ATOM     16  H22 UNL     1      35.984  64.763-148.657  1.00  0.00     0.277 HD
ATOM     17  H21 UNL     1      37.349  63.850-149.021  1.00  0.00     0.277 HD
ENDBRANCH   1  14
BRANCH   6  18
HETATM   18  O1  UNL     1      36.062  65.373-152.656  1.00  0.00    -0.378 OA
BRANCH  18  19
HETATM   19  C7  UNL     1      36.496  64.776-153.753  1.00  0.00     0.195 C 
BRANCH  19  20
HETATM   20  C8  UNL     1      37.281  63.503-153.694  1.00  0.00     0.255 C 
BRANCH  20  21
HETATM   21  N4  UNL     1      37.616  62.933-154.960  1.00  0.00    -0.077 N 
ATOM     22  H43 UNL     1      37.672  61.917-154.882  1.00  0.00     0.274 HD
ATOM     23  H42 UNL     1      36.831  63.021-155.603  1.00  0.00     0.274 HD
ATOM     24  H41 UNL     1      38.465  63.297-155.392  1.00  0.00     0.274 HD
ENDBRANCH  20  21
ENDBRANCH  19  20
ENDBRANCH  18  19
ENDBRANCH   6  18
TORSDOF 8
ENDMDL
MODEL 3
REMARK VINA RESULT: -4.131106402      1.652      4.147
REMARK  8 active torsions:
REMARK  status: ('A' for Active; 'I' for Inactive)
REMARK    1  A    between atoms: C2_2  and  N1_3 
REMARK    2  A    between atoms: C2_2  and  C3_7 
REMARK    3  A    between atoms: C3_7  and  C4_8 
REMARK    4  A    between atoms: C4_8  and  N2_9 
REMARK    5  A    between atoms: C6_17  and  O1_18 
REMARK    6  A    between atoms: O1_18  and  C7_19 
REMARK    7  A    between atoms: C7_19  and  C8_20 
REMARK    8  A    between atoms: C8_20  and  N4_21 
ROOT
HETATM    1  C4  UNL     1      36.746  64.058-152.718  1.00  0.00     0.313 C 
HETATM    2  N3  UNL     1      36.298  64.779-153.992  1.00  0.00    -0.035 N 
ATOM      3  H31 UNL     1      35.704  65.609-153.985  1.00  0.00     0.280 HD
ATOM      4  H32 UNL     1      35.623  64.385-154.648  1.00  0.00     0.280 HD
HETATM    5  C5  UNL     1      37.711  64.825-154.251  1.00  0.00     0.271 C 
HETATM    6  C6  UNL     1      37.899  64.962-152.706  1.00  0.00     0.211 C 
ENDROOT
BRANCH   1   7
HETATM    7  C3  UNL     1      35.661  64.103-151.708  1.00  0.00     0.104 C 
BRANCH   7   8
HETATM    8  C2  UNL     1      35.857  65.049-150.577  1.00  0.00     0.183 C 
HETATM    9  C1  UNL     1      34.677  65.730-150.022  1.00  0.00     0.040 C 
BRANCH   8  10
HETATM   10  N1  UNL     1      36.403  64.228-149.473  1.00  0.00    -0.075 N 
ATOM     11  H13 UNL     1      37.101  63.549-149.776  1.00  0.00     0.274 HD
ATOM     12  H12 UNL     1      37.007  64.748-148.838  1.00  0.00     0.274 HD
ATOM     13  H11 UNL     1      35.594  63.807-149.016  1.00  0.00     0.274 HD
ENDBRANCH   8  10
ENDBRANCH   7   8
ENDBRANCH   1   7
BRANCH   1  14
HETATM   14  N2  UNL     1      36.956  62.695-153.263  1.00  0.00    -0.042 N 
ATOM     15  H23 UNL     1      37.802  62.272-152.881  1.00  0.00     0.277 HD
ATOM     16  H22 UNL     1      36.265  62.041-152.895  1.00  0.00     0.277 HD
ATOM     17  H21 UNL     1      36.968  62.680-154.284  1.00  0.00     0.277 HD
ENDBRANCH   1  14
BRANCH   6  18
HETATM   18  O1  UNL     1      37.837  66.256-152.318  1.00  0.00    -0.378 OA
BRANCH  18  19
HETATM   19  C7  UNL     1      38.667  66.800-151.445  1.00  0.00     0.195 C 
BRANCH  19  20
HETATM   20  C8  UNL     1      39.831  66.039-150.891  1.00  0.00     0.255 C 
BRANCH  20  21
HETATM   21  N4  UNL     1      39.594  65.376-149.649  1.00  0.00    -0.077 N 
ATOM     22  H43 UNL     1      39.423  64.383-149.809  1.00  0.00     0.274 HD
ATOM     23  H42 UNL     1      40.458  65.325-149.109  1.00  0.00     0.274 HD
ATOM     24  H41 UNL     1      38.848  65.772-149.078  1.00  0.00     0.274 HD
ENDBRANCH  20  21
ENDBRANCH  19  20
ENDBRANCH  18  19
ENDBRANCH   6  18
TORSDOF 8
ENDMDL
MODEL 4
REMARK VINA RESULT: -4.063815833      1.575      4.387
REMARK  8 active torsions:
REMARK  status: ('A' for Active; 'I' for Inactive)
REMARK    1  A    between atoms: C2_2  and  N1_3 
REMARK    2  A    between atoms: C2_2  and  C3_7 
REMARK    3  A    between atoms: C3_7  and  C4_8 
REMARK    4  A    between atoms: C4_8  and  N2_9 
REMARK    5  A    between atoms: C6_17  and  O1_18 
REMARK    6  A    between atoms: O1_18  and  C7_19 
REMARK    7  A    between atoms: C7_19  and  C8_20 
REMARK    8  A    between atoms: C8_20  and  N4_21 
ROOT
HETATM    1  C4  UNL     1      36.794  64.093-152.727  1.00  0.00     0.313 C 
HETATM    2  N3  UNL     1      36.302  64.730-154.030  1.00  0.00    -0.035 N 
ATOM      3  H31 UNL     1      35.723  65.570-154.057  1.00  0.00     0.280 HD
ATOM      4  H32 UNL     1      35.595  64.304-154.628  1.00  0.00     0.280 HD
HETATM    5  C5  UNL     1      37.704  64.733-154.349  1.00  0.00     0.271 C 
HETATM    6  C6  UNL     1      37.959  64.974-152.827  1.00  0.00     0.211 C 
ENDROOT
BRANCH   1   7
HETATM    7  C3  UNL     1      35.753  64.228-151.680  1.00  0.00     0.104 C 
BRANCH   7   8
HETATM    8  C2  UNL     1      36.069  65.152-150.557  1.00  0.00     0.183 C 
HETATM    9  C1  UNL     1      34.969  65.915-149.949  1.00  0.00     0.040 C 
BRANCH   8  10
HETATM   10  N1  UNL     1      36.602  64.288-149.480  1.00  0.00    -0.075 N 
ATOM     11  H13 UNL     1      37.560  63.977-149.643  1.00  0.00     0.274 HD
ATOM     12  H12 UNL     1      36.783  64.786-148.609  1.00  0.00     0.274 HD
ATOM     13  H11 UNL     1      35.934  63.523-149.383  1.00  0.00     0.274 HD
ENDBRANCH   8  10
ENDBRANCH   7   8
ENDBRANCH   1   7
BRANCH   1  14
HETATM   14  N2  UNL     1      36.960  62.691-153.184  1.00  0.00    -0.042 N 
ATOM     15  H23 UNL     1      36.060  62.269-153.411  1.00  0.00     0.277 HD
ATOM     16  H22 UNL     1      37.396  62.654-154.105  1.00  0.00     0.277 HD
ATOM     17  H21 UNL     1      37.473  62.120-152.511  1.00  0.00     0.277 HD
ENDBRANCH   1  14
BRANCH   6  18
HETATM   18  O1  UNL     1      37.934  66.293-152.530  1.00  0.00    -0.378 OA
BRANCH  18  19
HETATM   19  C7  UNL     1      38.950  66.942-151.989  1.00  0.00     0.195 C 
BRANCH  19  20
HETATM   20  C8  UNL     1      38.793  67.735-150.729  1.00  0.00     0.255 C 
BRANCH  20  21
HETATM   21  N4  UNL     1      39.583  68.922-150.650  1.00  0.00    -0.077 N 
ATOM     22  H43 UNL     1      40.197  68.880-149.836  1.00  0.00     0.274 HD
ATOM     23  H42 UNL     1      40.276  68.931-151.398  1.00  0.00     0.274 HD
ATOM     24  H41 UNL     1      39.058  69.796-150.648  1.00  0.00     0.274 HD
ENDBRANCH  20  21
ENDBRANCH  19  20
ENDBRANCH  18  19
ENDBRANCH   6  18
TORSDOF 8
ENDMDL
MODEL 5
REMARK VINA RESULT: -4.053272024      1.502      4.241
REMARK  8 active torsions:
REMARK  status: ('A' for Active; 'I' for Inactive)
REMARK    1  A    between atoms: C2_2  and  N1_3 
REMARK    2  A    between atoms: C2_2  and  C3_7 
REMARK    3  A    between atoms: C3_7  and  C4_8 
REMARK    4  A    between atoms: C4_8  and  N2_9 
REMARK    5  A    between atoms: C6_17  and  O1_18 
REMARK    6  A    between atoms: O1_18  and  C7_19 
REMARK    7  A    between atoms: C7_19  and  C8_20 
REMARK    8  A    between atoms: C8_20  and  N4_21 
ROOT
HETATM    1  C4  UNL     1      37.970  65.258-151.472  1.00  0.00     0.313 C 
HETATM    2  N3  UNL     1      38.383  66.380-152.430  1.00  0.00    -0.035 N 
ATOM      3  H31 UNL     1      37.835  66.645-153.248  1.00  0.00     0.280 HD
ATOM      4  H32 UNL     1      39.175  66.306-153.067  1.00  0.00     0.280 HD
HETATM    5  C5  UNL     1      38.416  67.157-151.220  1.00  0.00     0.271 C 
HETATM    6  C6  UNL     1      37.225  66.274-150.726  1.00  0.00     0.211 C 
ENDROOT
BRANCH   1   7
HETATM    7  C3  UNL     1      37.322  64.163-152.233  1.00  0.00     0.104 C 
BRANCH   7   8
HETATM    8  C2  UNL     1      37.958  63.797-153.527  1.00  0.00     0.183 C 
HETATM    9  C1  UNL     1      38.626  62.491-153.633  1.00  0.00     0.040 C 
BRANCH   8  10
HETATM   10  N1  UNL     1      36.851  63.762-154.509  1.00  0.00    -0.075 N 
ATOM     11  H13 UNL     1      36.301  62.904-154.474  1.00  0.00     0.274 HD
ATOM     12  H12 UNL     1      36.089  64.403-154.288  1.00  0.00     0.274 HD
ATOM     13  H11 UNL     1      37.282  63.936-155.416  1.00  0.00     0.274 HD
ENDBRANCH   8  10
ENDBRANCH   7   8
ENDBRANCH   1   7
BRANCH   1  14
HETATM   14  N2  UNL     1      39.305  64.872-150.950  1.00  0.00    -0.042 N 
ATOM     15  H23 UNL     1      39.439  63.862-150.994  1.00  0.00     0.277 HD
ATOM     16  H22 UNL     1      40.046  65.163-151.587  1.00  0.00     0.277 HD
ATOM     17  H21 UNL     1      39.471  65.224-150.007  1.00  0.00     0.277 HD
ENDBRANCH   1  14
BRANCH   6  18
HETATM   18  O1  UNL     1      36.039  66.785-151.127  1.00  0.00    -0.378 OA
BRANCH  18  19
HETATM   19  C7  UNL     1      34.872  66.383-150.655  1.00  0.00     0.195 C 
BRANCH  19  20
HETATM   20  C8  UNL     1      34.775  65.495-149.454  1.00  0.00     0.255 C 
BRANCH  20  21
HETATM   21  N4  UNL     1      34.794  66.166-148.193  1.00  0.00    -0.077 N 
ATOM     22  H43 UNL     1      35.517  65.767-147.595  1.00  0.00     0.274 HD
ATOM     23  H42 UNL     1      35.156  67.113-148.306  1.00  0.00     0.274 HD
ATOM     24  H41 UNL     1      33.903  66.189-147.698  1.00  0.00     0.274 HD
ENDBRANCH  20  21
ENDBRANCH  19  20
ENDBRANCH  18  19
ENDBRANCH   6  18
TORSDOF 8
ENDMDL
