MODEL 1
REMARK VINA RESULT: -4.964391500      0.000      0.000
REMARK  1 active torsions:
REMARK  status: ('A' for Active; 'I' for Inactive)
REMARK    1  A    between atoms: C2_2  and  N2_6 
ROOT
HETATM    1  N2  UNL     1      43.103  -1.886  28.166  1.00  0.00    -0.246 N 
HETATM    2  C3  UNL     1      44.228  -1.063  27.704  1.00  0.00     0.160 C 
HETATM    3  C4  UNL     1      44.477  -1.676  26.346  1.00  0.00     0.056 C 
HETATM    4  C5  UNL     1      44.064  -3.128  26.628  1.00  0.00     0.150 C 
HETATM    5  C6  UNL     1      43.853  -3.789  25.310  1.00  0.00     0.042 C 
HETATM    6  O1  UNL     1      42.938  -2.952  27.383  1.00  0.00    -0.272 OA
ENDROOT
BRANCH   1   7
HETATM    7  C2  UNL     1      42.335  -1.539  29.299  1.00  0.00     0.093 C 
HETATM    8  C1  UNL     1      41.250  -2.395  29.856  1.00  0.00     0.090 C 
HETATM    9  N1  UNL     1      42.543  -0.414  29.939  1.00  0.00    -0.388 N 
ATOM     10  H12 UNL     1      41.988  -0.164  30.758  1.00  0.00     0.157 HD
ATOM     11  H11 UNL     1      43.285   0.172  29.557  1.00  0.00     0.157 HD
ENDBRANCH   1   7
TORSDOF 1
ENDMDL
MODEL 2
REMARK VINA RESULT: -4.925146848      1.599      3.726
REMARK  1 active torsions:
REMARK  status: ('A' for Active; 'I' for Inactive)
REMARK    1  A    between atoms: C2_2  and  N2_6 
ROOT
HETATM    1  N2  UNL     1      43.464  -2.690  27.201  1.00  0.00    -0.246 N 
HETATM    2  C3  UNL     1      44.003  -1.747  28.189  1.00  0.00     0.160 C 
HETATM    3  C4  UNL     1      43.462  -2.348  29.465  1.00  0.00     0.056 C 
HETATM    4  C5  UNL     1      42.148  -2.948  28.942  1.00  0.00     0.150 C 
HETATM    5  C6  UNL     1      41.677  -3.928  29.959  1.00  0.00     0.042 C 
HETATM    6  O1  UNL     1      42.546  -3.485  27.750  1.00  0.00    -0.272 OA
ENDROOT
BRANCH   1   7
HETATM    7  C2  UNL     1      43.903  -2.702  25.858  1.00  0.00     0.093 C 
HETATM    8  C1  UNL     1      44.042  -3.943  25.045  1.00  0.00     0.090 C 
HETATM    9  N1  UNL     1      44.218  -1.590  25.240  1.00  0.00    -0.388 N 
ATOM     10  H12 UNL     1      44.534  -1.599  24.270  1.00  0.00     0.157 HD
ATOM     11  H11 UNL     1      44.122  -0.741  25.797  1.00  0.00     0.157 HD
ENDBRANCH   1   7
TORSDOF 1
ENDMDL
MODEL 3
REMARK VINA RESULT: -4.856208113      1.238      1.396
REMARK  1 active torsions:
REMARK  status: ('A' for Active; 'I' for Inactive)
REMARK    1  A    between atoms: C2_2  and  N2_6 
ROOT
HETATM    1  N2  UNL     1      43.004  -2.761  27.961  1.00  0.00    -0.246 N 
HETATM    2  C3  UNL     1      43.944  -1.660  27.716  1.00  0.00     0.160 C 
HETATM    3  C4  UNL     1      44.234  -1.869  26.249  1.00  0.00     0.056 C 
HETATM    4  C5  UNL     1      44.097  -3.396  26.163  1.00  0.00     0.150 C 
HETATM    5  C6  UNL     1      43.946  -3.744  24.723  1.00  0.00     0.042 C 
HETATM    6  O1  UNL     1      42.994  -3.617  26.939  1.00  0.00    -0.272 OA
ENDROOT
BRANCH   1   7
HETATM    7  C2  UNL     1      42.240  -2.846  29.146  1.00  0.00     0.093 C 
HETATM    8  C1  UNL     1      41.428  -1.721  29.689  1.00  0.00     0.090 C 
HETATM    9  N1  UNL     1      42.203  -3.951  29.850  1.00  0.00    -0.388 N 
ATOM     10  H12 UNL     1      41.651  -4.013  30.705  1.00  0.00     0.157 HD
ATOM     11  H11 UNL     1      42.759  -4.721  29.479  1.00  0.00     0.157 HD
ENDBRANCH   1   7
TORSDOF 1
ENDMDL
MODEL 4
REMARK VINA RESULT: -4.702443970      1.825      4.006
REMARK  1 active torsions:
REMARK  status: ('A' for Active; 'I' for Inactive)
REMARK    1  A    between atoms: C2_2  and  N2_6 
ROOT
HETATM    1  N2  UNL     1      43.553  -2.704  27.268  1.00  0.00    -0.246 N 
HETATM    2  C3  UNL     1      42.828  -3.855  27.822  1.00  0.00     0.160 C 
HETATM    3  C4  UNL     1      42.409  -3.296  29.162  1.00  0.00     0.056 C 
HETATM    4  C5  UNL     1      43.587  -2.349  29.437  1.00  0.00     0.150 C 
HETATM    5  C6  UNL     1      43.155  -1.411  30.510  1.00  0.00     0.042 C 
HETATM    6  O1  UNL     1      43.780  -1.785  28.207  1.00  0.00    -0.272 OA
ENDROOT
BRANCH   1   7
HETATM    7  C2  UNL     1      43.932  -2.639  25.909  1.00  0.00     0.093 C 
HETATM    8  C1  UNL     1      44.019  -3.830  25.018  1.00  0.00     0.090 C 
HETATM    9  N1  UNL     1      44.235  -1.495  25.345  1.00  0.00    -0.388 N 
ATOM     10  H12 UNL     1      44.509  -1.449  24.363  1.00  0.00     0.157 HD
ATOM     11  H11 UNL     1      44.176  -0.681  25.956  1.00  0.00     0.157 HD
ENDBRANCH   1   7
TORSDOF 1
ENDMDL
MODEL 5
REMARK VINA RESULT: -4.503860749      1.466      1.628
REMARK  1 active torsions:
REMARK  status: ('A' for Active; 'I' for Inactive)
REMARK    1  A    between atoms: C2_2  and  N2_6 
ROOT
HETATM    1  N2  UNL     1      42.449  -2.966  28.436  1.00  0.00    -0.246 N 
HETATM    2  C3  UNL     1      43.340  -1.801  28.377  1.00  0.00     0.160 C 
HETATM    3  C4  UNL     1      43.890  -1.947  26.978  1.00  0.00     0.056 C 
HETATM    4  C5  UNL     1      43.872  -3.477  26.841  1.00  0.00     0.150 C 
HETATM    5  C6  UNL     1      43.993  -3.790  25.391  1.00  0.00     0.042 C 
HETATM    6  O1  UNL     1      42.671  -3.790  27.412  1.00  0.00    -0.272 OA
ENDROOT
BRANCH   1   7
HETATM    7  C2  UNL     1      41.501  -3.134  29.470  1.00  0.00     0.093 C 
HETATM    8  C1  UNL     1      41.865  -3.426  30.885  1.00  0.00     0.090 C 
HETATM    9  N1  UNL     1      40.216  -3.039  29.232  1.00  0.00    -0.388 N 
ATOM     10  H12 UNL     1      39.532  -3.161  29.979  1.00  0.00     0.157 HD
ATOM     11  H11 UNL     1      39.967  -2.840  28.263  1.00  0.00     0.157 HD
ENDBRANCH   1   7
TORSDOF 1
ENDMDL
