MODEL 1
REMARK VINA RESULT: -8.841408572      0.000      0.000
REMARK  6 active torsions:
REMARK  status: ('A' for Active; 'I' for Inactive)
REMARK       I    between atoms: C1_4  and  N3_6 
REMARK    1  A    between atoms: N3_6  and  N4_8 
REMARK    2  A    between atoms: C2_10  and  C3_11 
REMARK    3  A    between atoms: C6_14  and  N5_15 
REMARK    4  A    between atoms: N5_15  and  N6_17 
REMARK    5  A    between atoms: N6_17  and  C7_19 
REMARK    6  A    between atoms: C11_27  and  C12_28 
ROOT
HETATM    1  N6  UNL     1      19.462  34.880   6.784  1.00  0.00    -0.128 N 
ATOM      2  H6  UNL     1      19.349  35.875   6.980  1.00  0.00     0.205 HD
ENDROOT
BRANCH   1   3
HETATM    3  N5  UNL     1      20.210  34.108   7.642  1.00  0.00    -0.287 N 
ATOM      4  H5  UNL     1      19.863  33.953   8.589  1.00  0.00     0.187 HD
BRANCH   3   5
HETATM    5  C6  UNL     1      21.436  33.521   7.268  1.00  0.00     0.048 A 
HETATM    6  C5  UNL     1      22.653  34.161   7.209  1.00  0.00     0.032 A 
HETATM    7  C4  UNL     1      23.824  33.537   6.783  1.00  0.00     0.015 A 
HETATM    8  C3  UNL     1      23.810  32.227   6.399  1.00  0.00    -0.019 A 
HETATM    9  C19 UNL     1      22.601  31.543   6.444  1.00  0.00     0.015 A 
HETATM   10  C18 UNL     1      21.472  32.176   6.863  1.00  0.00     0.032 A 
BRANCH   8  11
HETATM   11  C2  UNL     1      24.992  31.501   5.928  1.00  0.00     0.118 C 
HETATM   12  N4  UNL     1      24.843  30.361   5.374  1.00  0.00    -0.309 N 
ATOM     13  H4  UNL     1      23.908  29.969   5.265  1.00  0.00     0.186 HD
BRANCH  12  14
HETATM   14  N3  UNL     1      25.932  29.659   4.922  1.00  0.00    -0.274 N 
HETATM   15  C1  UNL     1      25.859  28.281   4.678  1.00  0.00     0.200 C 
HETATM   16  N1  UNL     1      24.869  27.596   5.110  1.00  0.00    -0.372 N 
HETATM   17  N2  UNL     1      26.887  27.645   3.956  1.00  0.00    -0.062 NA
ATOM     18  H12 UNL     1      24.816  26.592   4.933  1.00  0.00     0.158 HD
ATOM     19  H11 UNL     1      24.124  28.056   5.632  1.00  0.00     0.158 HD
ATOM     20  H3  UNL     1      26.812  30.149   4.760  1.00  0.00     0.189 HD
ENDBRANCH  12  14
ENDBRANCH   8  11
ENDBRANCH   3   5
ENDBRANCH   1   3
BRANCH   1  21
HETATM   21  C7  UNL     1      18.833  34.317   5.611  1.00  0.00     0.734 A 
HETATM   22  N7  UNL     1      17.540  34.035   5.496  1.00  0.00    -0.127 N 
HETATM   23  N8  UNL     1      17.269  33.554   4.286  1.00  0.00    -0.269 N 
ATOM     24  H7  UNL     1      16.849  34.168   6.235  1.00  0.00     0.206 HD
HETATM   25  C8  UNL     1      18.439  33.534   3.617  1.00  0.00     0.160 A 
ATOM     26  H8  UNL     1      16.358  33.260   3.935  1.00  0.00     0.189 HD
HETATM   27  C9  UNL     1      18.735  33.139   2.329  1.00  0.00     0.055 A 
HETATM   28  N10 UNL     1      19.401  34.005   4.437  1.00  0.00    -0.065 N 
HETATM   29  C10 UNL     1      20.055  33.252   1.942  1.00  0.00     0.036 A 
HETATM   30  C11 UNL     1      21.025  33.741   2.816  1.00  0.00     0.059 A 
HETATM   31  N9  UNL     1      20.658  34.115   4.077  1.00  0.00    -0.277 N 
ATOM     32  H9  UNL     1      21.352  34.476   4.731  1.00  0.00     0.188 HD
BRANCH  30  33
HETATM   33  C12 UNL     1      22.413  33.808   2.392  1.00  0.00    -0.006 A 
HETATM   34  C13 UNL     1      23.343  32.999   2.986  1.00  0.00     0.014 A 
HETATM   35  C14 UNL     1      24.688  33.120   2.587  1.00  0.00     0.003 A 
HETATM   36  C15 UNL     1      25.059  34.024   1.626  1.00  0.00     0.024 A 
HETATM   37  C16 UNL     1      24.125  34.832   1.035  1.00  0.00     0.035 A 
HETATM   38 CL1  UNL     1      24.629  35.988  -0.173  1.00  0.00    -0.084 Cl
HETATM   39  C17 UNL     1      22.797  34.708   1.434  1.00  0.00     0.037 A 
ENDBRANCH  30  33
ENDBRANCH   1  21
TORSDOF 6
ENDMDL
MODEL 2
REMARK VINA RESULT: -8.716172414      0.974      1.268
REMARK  6 active torsions:
REMARK  status: ('A' for Active; 'I' for Inactive)
REMARK       I    between atoms: C1_4  and  N3_6 
REMARK    1  A    between atoms: N3_6  and  N4_8 
REMARK    2  A    between atoms: C2_10  and  C3_11 
REMARK    3  A    between atoms: C6_14  and  N5_15 
REMARK    4  A    between atoms: N5_15  and  N6_17 
REMARK    5  A    between atoms: N6_17  and  C7_19 
REMARK    6  A    between atoms: C11_27  and  C12_28 
ROOT
HETATM    1  N6  UNL     1      19.459  34.944   6.630  1.00  0.00    -0.128 N 
ATOM      2  H6  UNL     1      19.272  35.924   6.849  1.00  0.00     0.205 HD
ENDROOT
BRANCH   1   3
HETATM    3  N5  UNL     1      20.279  34.216   7.461  1.00  0.00    -0.287 N 
ATOM      4  H5  UNL     1      20.002  34.091   8.435  1.00  0.00     0.187 HD
BRANCH   3   5
HETATM    5  C6  UNL     1      21.486  33.634   7.022  1.00  0.00     0.048 A 
HETATM    6  C5  UNL     1      22.665  34.303   6.785  1.00  0.00     0.032 A 
HETATM    7  C4  UNL     1      23.813  33.677   6.304  1.00  0.00     0.015 A 
HETATM    8  C3  UNL     1      23.815  32.337   6.044  1.00  0.00    -0.019 A 
HETATM    9  C19 UNL     1      22.644  31.623   6.271  1.00  0.00     0.015 A 
HETATM   10  C18 UNL     1      21.536  32.259   6.741  1.00  0.00     0.032 A 
BRANCH   8  11
HETATM   11  C2  UNL     1      24.974  31.606   5.527  1.00  0.00     0.118 C 
HETATM   12  N4  UNL     1      24.898  30.341   5.379  1.00  0.00    -0.309 N 
ATOM     13  H4  UNL     1      24.036  29.854   5.621  1.00  0.00     0.186 HD
BRANCH  12  14
HETATM   14  N3  UNL     1      25.968  29.631   4.895  1.00  0.00    -0.274 N 
HETATM   15  C1  UNL     1      25.865  28.262   4.613  1.00  0.00     0.200 C 
HETATM   16  N1  UNL     1      24.865  27.585   5.036  1.00  0.00    -0.372 N 
HETATM   17  N2  UNL     1      26.872  27.627   3.862  1.00  0.00    -0.062 NA
ATOM     18  H12 UNL     1      24.790  26.588   4.831  1.00  0.00     0.158 HD
ATOM     19  H11 UNL     1      24.136  28.044   5.580  1.00  0.00     0.158 HD
ATOM     20  H3  UNL     1      26.855  30.108   4.738  1.00  0.00     0.189 HD
ENDBRANCH  12  14
ENDBRANCH   8  11
ENDBRANCH   3   5
ENDBRANCH   1   3
BRANCH   1  21
HETATM   21  C7  UNL     1      18.856  34.357   5.456  1.00  0.00     0.734 A 
HETATM   22  N7  UNL     1      17.573  34.034   5.333  1.00  0.00    -0.127 N 
HETATM   23  N8  UNL     1      17.325  33.540   4.124  1.00  0.00    -0.269 N 
ATOM     24  H7  UNL     1      16.873  34.149   6.067  1.00  0.00     0.206 HD
HETATM   25  C8  UNL     1      18.500  33.554   3.463  1.00  0.00     0.160 A 
ATOM     26  H8  UNL     1      16.426  33.216   3.768  1.00  0.00     0.189 HD
HETATM   27  C9  UNL     1      18.817  33.163   2.179  1.00  0.00     0.055 A 
HETATM   28  N10 UNL     1      19.442  34.058   4.287  1.00  0.00    -0.065 N 
HETATM   29  C10 UNL     1      20.136  33.316   1.799  1.00  0.00     0.036 A 
HETATM   30  C11 UNL     1      21.084  33.838   2.678  1.00  0.00     0.059 A 
HETATM   31  N9  UNL     1      20.696  34.206   3.935  1.00  0.00    -0.277 N 
ATOM     32  H9  UNL     1      21.375  34.591   4.592  1.00  0.00     0.188 HD
BRANCH  30  33
HETATM   33  C12 UNL     1      22.472  33.947   2.263  1.00  0.00    -0.006 A 
HETATM   34  C13 UNL     1      22.942  35.136   1.776  1.00  0.00     0.014 A 
HETATM   35  C14 UNL     1      24.279  35.198   1.338  1.00  0.00     0.003 A 
HETATM   36  C15 UNL     1      25.091  34.096   1.398  1.00  0.00     0.024 A 
HETATM   37  C16 UNL     1      24.616  32.908   1.885  1.00  0.00     0.035 A 
HETATM   38 CL1  UNL     1      25.669  31.516   1.932  1.00  0.00    -0.084 Cl
HETATM   39  C17 UNL     1      23.294  32.853   2.317  1.00  0.00     0.037 A 
ENDBRANCH  30  33
ENDBRANCH   1  21
TORSDOF 6
ENDMDL
MODEL 3
REMARK VINA RESULT: -8.614645510      1.179      1.331
REMARK  6 active torsions:
REMARK  status: ('A' for Active; 'I' for Inactive)
REMARK       I    between atoms: C1_4  and  N3_6 
REMARK    1  A    between atoms: N3_6  and  N4_8 
REMARK    2  A    between atoms: C2_10  and  C3_11 
REMARK    3  A    between atoms: C6_14  and  N5_15 
REMARK    4  A    between atoms: N5_15  and  N6_17 
REMARK    5  A    between atoms: N6_17  and  C7_19 
REMARK    6  A    between atoms: C11_27  and  C12_28 
ROOT
HETATM    1  N6  UNL     1      18.953  35.541   7.102  1.00  0.00    -0.128 N 
ATOM      2  H6  UNL     1      18.776  36.545   7.063  1.00  0.00     0.205 HD
ENDROOT
BRANCH   1   3
HETATM    3  N5  UNL     1      19.749  35.038   8.105  1.00  0.00    -0.287 N 
ATOM      4  H5  UNL     1      19.391  35.039   9.060  1.00  0.00     0.187 HD
BRANCH   3   5
HETATM    5  C6  UNL     1      21.040  34.523   7.868  1.00  0.00     0.048 A 
HETATM    6  C5  UNL     1      22.071  35.184   7.240  1.00  0.00     0.032 A 
HETATM    7  C4  UNL     1      23.312  34.601   6.991  1.00  0.00     0.015 A 
HETATM    8  C3  UNL     1      23.562  33.315   7.374  1.00  0.00    -0.019 A 
HETATM    9  C19 UNL     1      22.548  32.611   8.013  1.00  0.00     0.015 A 
HETATM   10  C18 UNL     1      21.344  33.204   8.243  1.00  0.00     0.032 A 
BRANCH   8  11
HETATM   11  C2  UNL     1      24.833  32.625   7.141  1.00  0.00     0.118 C 
HETATM   12  N4  UNL     1      24.871  31.351   7.198  1.00  0.00    -0.309 N 
ATOM     13  H4  UNL     1      24.020  30.829   7.406  1.00  0.00     0.186 HD
BRANCH  12  14
HETATM   14  N3  UNL     1      26.047  30.678   6.982  1.00  0.00    -0.274 N 
HETATM   15  C1  UNL     1      26.247  29.916   5.824  1.00  0.00     0.200 C 
HETATM   16  N1  UNL     1      25.262  29.614   5.066  1.00  0.00    -0.372 N 
HETATM   17  N2  UNL     1      27.543  29.475   5.495  1.00  0.00    -0.062 NA
ATOM     18  H12 UNL     1      25.408  29.058   4.222  1.00  0.00     0.158 HD
ATOM     19  H11 UNL     1      24.323  29.933   5.304  1.00  0.00     0.158 HD
ATOM     20  H3  UNL     1      26.790  30.734   7.679  1.00  0.00     0.189 HD
ENDBRANCH  12  14
ENDBRANCH   8  11
ENDBRANCH   3   5
ENDBRANCH   1   3
BRANCH   1  21
HETATM   21  C7  UNL     1      18.362  34.681   6.102  1.00  0.00     0.734 A 
HETATM   22  N7  UNL     1      17.087  34.306   6.071  1.00  0.00    -0.127 N 
HETATM   23  N8  UNL     1      16.849  33.538   5.012  1.00  0.00    -0.269 N 
ATOM     24  H7  UNL     1      16.387  34.571   6.764  1.00  0.00     0.206 HD
HETATM   25  C8  UNL     1      18.021  33.427   4.355  1.00  0.00     0.160 A 
ATOM     26  H8  UNL     1      15.958  33.117   4.749  1.00  0.00     0.189 HD
HETATM   27  C9  UNL     1      18.343  32.756   3.194  1.00  0.00     0.055 A 
HETATM   28  N10 UNL     1      18.951  34.133   5.030  1.00  0.00    -0.065 N 
HETATM   29  C10 UNL     1      19.656  32.849   2.777  1.00  0.00     0.036 A 
HETATM   30  C11 UNL     1      20.593  33.586   3.501  1.00  0.00     0.059 A 
HETATM   31  N9  UNL     1      20.200  34.226   4.641  1.00  0.00    -0.277 N 
ATOM     32  H9  UNL     1      20.870  34.771   5.184  1.00  0.00     0.188 HD
BRANCH  30  33
HETATM   33  C12 UNL     1      21.976  33.630   3.059  1.00  0.00    -0.006 A 
HETATM   34  C13 UNL     1      22.923  32.896   3.720  1.00  0.00     0.014 A 
HETATM   35  C14 UNL     1      24.262  32.995   3.298  1.00  0.00     0.003 A 
HETATM   36  C15 UNL     1      24.612  33.805   2.250  1.00  0.00     0.024 A 
HETATM   37  C16 UNL     1      23.662  34.538   1.591  1.00  0.00     0.035 A 
HETATM   38 CL1  UNL     1      24.139  35.576   0.270  1.00  0.00    -0.084 Cl
HETATM   39  C17 UNL     1      22.340  34.436   2.013  1.00  0.00     0.037 A 
ENDBRANCH  30  33
ENDBRANCH   1  21
TORSDOF 6
ENDMDL
MODEL 4
REMARK VINA RESULT: -8.529212146      2.674      4.476
REMARK  6 active torsions:
REMARK  status: ('A' for Active; 'I' for Inactive)
REMARK       I    between atoms: C1_4  and  N3_6 
REMARK    1  A    between atoms: N3_6  and  N4_8 
REMARK    2  A    between atoms: C2_10  and  C3_11 
REMARK    3  A    between atoms: C6_14  and  N5_15 
REMARK    4  A    between atoms: N5_15  and  N6_17 
REMARK    5  A    between atoms: N6_17  and  C7_19 
REMARK    6  A    between atoms: C11_27  and  C12_28 
ROOT
HETATM    1  N6  UNL     1      21.976  35.860   6.371  1.00  0.00    -0.128 N 
ATOM      2  H6  UNL     1      22.733  35.953   7.049  1.00  0.00     0.205 HD
ENDROOT
BRANCH   1   3
HETATM    3  N5  UNL     1      22.282  35.763   5.033  1.00  0.00    -0.287 N 
ATOM      4  H5  UNL     1      21.933  36.482   4.398  1.00  0.00     0.187 HD
BRANCH   3   5
HETATM    5  C6  UNL     1      23.058  34.712   4.502  1.00  0.00     0.048 A 
HETATM    6  C5  UNL     1      22.919  34.160   3.249  1.00  0.00     0.032 A 
HETATM    7  C4  UNL     1      23.687  33.087   2.799  1.00  0.00     0.015 A 
HETATM    8  C3  UNL     1      24.636  32.528   3.605  1.00  0.00    -0.019 A 
HETATM    9  C19 UNL     1      24.810  33.059   4.879  1.00  0.00     0.015 A 
HETATM   10  C18 UNL     1      24.046  34.106   5.294  1.00  0.00     0.032 A 
BRANCH   8  11
HETATM   11  C2  UNL     1      25.476  31.394   3.215  1.00  0.00     0.118 C 
HETATM   12  N4  UNL     1      25.553  30.380   3.985  1.00  0.00    -0.309 N 
ATOM     13  H4  UNL     1      25.031  30.370   4.862  1.00  0.00     0.186 HD
BRANCH  12  14
HETATM   14  N3  UNL     1      26.331  29.303   3.644  1.00  0.00    -0.274 N 
HETATM   15  C1  UNL     1      26.010  28.009   4.074  1.00  0.00     0.200 C 
HETATM   16  N1  UNL     1      25.145  27.826   4.999  1.00  0.00    -0.372 N 
HETATM   17  N2  UNL     1      26.649  26.900   3.487  1.00  0.00    -0.062 NA
ATOM     18  H12 UNL     1      24.912  26.883   5.312  1.00  0.00     0.158 HD
ATOM     19  H11 UNL     1      24.682  28.629   5.424  1.00  0.00     0.158 HD
ATOM     20  H3  UNL     1      27.159  29.447   3.067  1.00  0.00     0.189 HD
ENDBRANCH  12  14
ENDBRANCH   8  11
ENDBRANCH   3   5
ENDBRANCH   1   3
BRANCH   1  21
HETATM   21  C7  UNL     1      20.610  35.832   6.839  1.00  0.00     0.734 A 
HETATM   22  N7  UNL     1      20.138  36.529   7.868  1.00  0.00    -0.127 N 
HETATM   23  N8  UNL     1      18.837  36.308   8.029  1.00  0.00    -0.269 N 
ATOM     24  H7  UNL     1      20.697  37.150   8.453  1.00  0.00     0.206 HD
HETATM   25  C8  UNL     1      18.480  35.435   7.065  1.00  0.00     0.160 A 
ATOM     26  H8  UNL     1      18.231  36.715   8.740  1.00  0.00     0.189 HD
HETATM   27  C9  UNL     1      17.257  34.873   6.765  1.00  0.00     0.055 A 
HETATM   28  N10 UNL     1      19.575  35.144   6.333  1.00  0.00    -0.065 N 
HETATM   29  C10 UNL     1      17.227  34.008   5.689  1.00  0.00     0.036 A 
HETATM   30  C11 UNL     1      18.380  33.727   4.957  1.00  0.00     0.059 A 
HETATM   31  N9  UNL     1      19.556  34.323   5.311  1.00  0.00    -0.277 N 
ATOM     32  H9  UNL     1      20.410  34.132   4.787  1.00  0.00     0.188 HD
BRANCH  30  33
HETATM   33  C12 UNL     1      18.324  32.780   3.857  1.00  0.00    -0.006 A 
HETATM   34  C13 UNL     1      19.155  32.940   2.781  1.00  0.00     0.014 A 
HETATM   35  C14 UNL     1      19.046  32.033   1.710  1.00  0.00     0.003 A 
HETATM   36  C15 UNL     1      18.131  31.013   1.742  1.00  0.00     0.024 A 
HETATM   37  C16 UNL     1      17.302  30.856   2.820  1.00  0.00     0.035 A 
HETATM   38 CL1  UNL     1      16.134  29.558   2.824  1.00  0.00    -0.084 Cl
HETATM   39  C17 UNL     1      17.414  31.756   3.875  1.00  0.00     0.037 A 
ENDBRANCH  30  33
ENDBRANCH   1  21
TORSDOF 6
ENDMDL
MODEL 5
REMARK VINA RESULT: -8.449310982      3.170      5.366
REMARK  6 active torsions:
REMARK  status: ('A' for Active; 'I' for Inactive)
REMARK       I    between atoms: C1_4  and  N3_6 
REMARK    1  A    between atoms: N3_6  and  N4_8 
REMARK    2  A    between atoms: C2_10  and  C3_11 
REMARK    3  A    between atoms: C6_14  and  N5_15 
REMARK    4  A    between atoms: N5_15  and  N6_17 
REMARK    5  A    between atoms: N6_17  and  C7_19 
REMARK    6  A    between atoms: C11_27  and  C12_28 
ROOT
HETATM    1  N6  UNL     1      21.876  34.774   2.672  1.00  0.00    -0.128 N 
ATOM      2  H6  UNL     1      21.439  34.687   1.754  1.00  0.00     0.205 HD
ENDROOT
BRANCH   1   3
HETATM    3  N5  UNL     1      23.247  34.852   2.757  1.00  0.00    -0.287 N 
ATOM      4  H5  UNL     1      23.679  35.770   2.862  1.00  0.00     0.187 HD
BRANCH   3   5
HETATM    5  C6  UNL     1      24.081  33.715   2.707  1.00  0.00     0.048 A 
HETATM    6  C5  UNL     1      24.633  33.170   1.571  1.00  0.00     0.032 A 
HETATM    7  C4  UNL     1      25.411  32.013   1.580  1.00  0.00     0.015 A 
HETATM    8  C3  UNL     1      25.664  31.358   2.751  1.00  0.00    -0.019 A 
HETATM    9  C19 UNL     1      25.125  31.877   3.923  1.00  0.00     0.015 A 
HETATM   10  C18 UNL     1      24.368  33.008   3.885  1.00  0.00     0.032 A 
BRANCH   8  11
HETATM   11  C2  UNL     1      26.460  30.133   2.847  1.00  0.00     0.118 C 
HETATM   12  N4  UNL     1      25.909  29.010   2.592  1.00  0.00    -0.309 N 
ATOM     13  H4  UNL     1      24.925  28.978   2.327  1.00  0.00     0.186 HD
BRANCH  12  14
HETATM   14  N3  UNL     1      26.631  27.846   2.673  1.00  0.00    -0.274 N 
HETATM   15  C1  UNL     1      26.399  26.915   3.693  1.00  0.00     0.200 C 
HETATM   16  N1  UNL     1      25.699  27.232   4.716  1.00  0.00    -0.372 N 
HETATM   17  N2  UNL     1      26.943  25.620   3.593  1.00  0.00    -0.062 NA
ATOM     18  H12 UNL     1      25.530  26.554   5.460  1.00  0.00     0.158 HD
ATOM     19  H11 UNL     1      25.305  28.169   4.789  1.00  0.00     0.158 HD
ATOM     20  H3  UNL     1      27.352  27.655   1.976  1.00  0.00     0.189 HD
ENDBRANCH  12  14
ENDBRANCH   8  11
ENDBRANCH   3   5
ENDBRANCH   1   3
BRANCH   1  21
HETATM   21  C7  UNL     1      21.041  34.812   3.850  1.00  0.00     0.734 A 
HETATM   22  N7  UNL     1      21.199  35.643   4.876  1.00  0.00    -0.127 N 
HETATM   23  N8  UNL     1      20.254  35.447   5.790  1.00  0.00    -0.269 N 
ATOM     24  H7  UNL     1      21.944  36.336   4.951  1.00  0.00     0.206 HD
HETATM   25  C8  UNL     1      19.473  34.454   5.319  1.00  0.00     0.160 A 
ATOM     26  H8  UNL     1      20.142  35.948   6.671  1.00  0.00     0.189 HD
HETATM   27  C9  UNL     1      18.351  33.858   5.855  1.00  0.00     0.055 A 
HETATM   28  N10 UNL     1      19.961  34.064   4.123  1.00  0.00    -0.065 N 
HETATM   29  C10 UNL     1      17.771  32.856   5.103  1.00  0.00     0.036 A 
HETATM   30  C11 UNL     1      18.304  32.477   3.872  1.00  0.00     0.059 A 
HETATM   31  N9  UNL     1      19.418  33.113   3.403  1.00  0.00    -0.277 N 
ATOM     32  H9  UNL     1      19.822  32.851   2.504  1.00  0.00     0.188 HD
BRANCH  30  33
HETATM   33  C12 UNL     1      17.696  31.389   3.125  1.00  0.00    -0.006 A 
HETATM   34  C13 UNL     1      18.315  30.908   2.003  1.00  0.00     0.014 A 
HETATM   35  C14 UNL     1      17.679  29.886   1.274  1.00  0.00     0.003 A 
HETATM   36  C15 UNL     1      16.469  29.382   1.675  1.00  0.00     0.024 A 
HETATM   37  C16 UNL     1      15.852  29.867   2.798  1.00  0.00     0.035 A 
HETATM   38 CL1  UNL     1      14.303  29.219   3.276  1.00  0.00    -0.084 Cl
HETATM   39  C17 UNL     1      16.486  30.878   3.515  1.00  0.00     0.037 A 
ENDBRANCH  30  33
ENDBRANCH   1  21
TORSDOF 6
ENDMDL
