MODEL 1
REMARK VINA RESULT: -7.712828652      0.000      0.000
REMARK  12 active torsions:
REMARK  status: ('A' for Active; 'I' for Inactive)
REMARK    1  A    between atoms: C2_2  and  C3_3 
REMARK    2  A    between atoms: C3_3  and  C4_4 
REMARK    3  A    between atoms: C4_4  and  C5_5 
REMARK    4  A    between atoms: C5_5  and  N1_6 
REMARK    5  A    between atoms: N1_6  and  C6_8 
REMARK    6  A    between atoms: C8_12  and  N3_13 
REMARK    7  A    between atoms: C9_18  and  N5_19 
REMARK    8  A    between atoms: N7_25  and  C11_26 
REMARK    9  A    between atoms: C12_28  and  C13_29 
REMARK   10  A    between atoms: C13_29  and  O2_30 
REMARK   11  A    between atoms: C14_32  and  O3_33 
REMARK   12  A    between atoms: C15_35  and  O4_36 
ROOT
HETATM    1  C6  UNL     1      38.847  29.604  19.246  1.00  0.00     0.684 A 
HETATM    2  N2  UNL     1      39.070  28.860  18.143  1.00  0.00    -0.184 N 
ATOM      3  H2  UNL     1      38.351  28.412  17.574  1.00  0.00     0.184 HD
HETATM    4  C7  UNL     1      40.390  28.802  17.915  1.00  0.00     0.138 A 
HETATM    5  C8  UNL     1      41.138  28.182  16.935  1.00  0.00     0.146 A 
HETATM    6  N4  UNL     1      42.473  28.328  17.000  1.00  0.00    -0.175 N 
ATOM      7  H4  UNL     1      43.062  27.884  16.295  1.00  0.00     0.186 HD
HETATM    8  C9  UNL     1      43.052  29.059  17.992  1.00  0.00     0.679 A 
HETATM    9  N6  UNL     1      42.302  29.661  18.947  1.00  0.00    -0.174 N 
ATOM     10  H6  UNL     1      42.756  30.204  19.682  1.00  0.00     0.186 HD
HETATM   11  C10 UNL     1      40.977  29.547  18.928  1.00  0.00     0.172 A 
HETATM   12  N7  UNL     1      40.021  30.036  19.741  1.00  0.00    -0.135 N 
ENDROOT
BRANCH  12  13
HETATM   13  C11 UNL     1      40.166  30.867  20.927  1.00  0.00     0.279 C 
HETATM   14  O1  UNL     1      39.175  31.801  21.035  1.00  0.00    -0.353 OA
HETATM   15  C12 UNL     1      38.829  31.966  22.348  1.00  0.00     0.179 C 
HETATM   16  C14 UNL     1      39.413  30.870  23.162  1.00  0.00     0.182 C 
HETATM   17  C15 UNL     1      40.179  30.044  22.188  1.00  0.00     0.199 C 
BRANCH  15  18
HETATM   18  C13 UNL     1      39.322  33.291  22.927  1.00  0.00     0.198 C 
BRANCH  18  19
HETATM   19  O2  UNL     1      38.728  34.300  22.206  1.00  0.00    -0.398 OA
ATOM     20  H2  UNL     1      39.370  34.994  22.108  1.00  0.00     0.209 HD
ENDBRANCH  18  19
ENDBRANCH  15  18
BRANCH  16  21
HETATM   21  O3  UNL     1      38.386  30.106  23.737  1.00  0.00    -0.390 OA
ATOM     22  H3  UNL     1      38.537  30.015  24.671  1.00  0.00     0.210 HD
ENDBRANCH  16  21
BRANCH  17  23
HETATM   23  O4  UNL     1      41.468  29.833  22.679  1.00  0.00    -0.388 OA
ATOM     24  H4  UNL     1      41.498  29.809  23.628  1.00  0.00     0.210 HD
ENDBRANCH  17  23
ENDBRANCH  12  13
BRANCH   1  25
HETATM   25  N1  UNL     1      37.698  29.878  19.768  1.00  0.00    -0.226 N 
ATOM     26  H1  UNL     1      37.208  30.724  19.475  1.00  0.00     0.177 HD
BRANCH  25  27
HETATM   27  C5  UNL     1      37.086  29.017  20.759  1.00  0.00     0.138 C 
BRANCH  27  28
HETATM   28  C4  UNL     1      36.460  27.800  20.159  1.00  0.00     0.020 C 
BRANCH  28  29
HETATM   29  C3  UNL     1      37.005  26.557  20.794  1.00  0.00     0.001 C 
BRANCH  29  30
HETATM   30  C2  UNL     1      38.200  26.835  21.680  1.00  0.00    -0.004 C 
HETATM   31  C1  UNL     1      39.491  26.408  21.015  1.00  0.00     0.005 C 
ENDBRANCH  29  30
ENDBRANCH  28  29
ENDBRANCH  27  28
ENDBRANCH  25  27
ENDBRANCH   1  25
BRANCH   5  32
HETATM   32  N3  UNL     1      40.612  27.485  15.985  1.00  0.00    -0.383 N 
ATOM     33  H32 UNL     1      40.474  27.902  15.064  1.00  0.00     0.157 HD
ATOM     34  H31 UNL     1      40.319  26.514  16.104  1.00  0.00     0.157 HD
ENDBRANCH   5  32
BRANCH   8  35
HETATM   35  N5  UNL     1      44.331  29.199  18.055  1.00  0.00    -0.234 N 
ATOM     36  H52 UNL     1      44.865  29.075  17.196  1.00  0.00     0.174 HD
ATOM     37  H51 UNL     1      44.792  29.427  18.936  1.00  0.00     0.174 HD
ENDBRANCH   8  35
TORSDOF 12
ENDMDL
MODEL 2
REMARK VINA RESULT: -7.708574547      1.279      1.683
REMARK  12 active torsions:
REMARK  status: ('A' for Active; 'I' for Inactive)
REMARK    1  A    between atoms: C2_2  and  C3_3 
REMARK    2  A    between atoms: C3_3  and  C4_4 
REMARK    3  A    between atoms: C4_4  and  C5_5 
REMARK    4  A    between atoms: C5_5  and  N1_6 
REMARK    5  A    between atoms: N1_6  and  C6_8 
REMARK    6  A    between atoms: C8_12  and  N3_13 
REMARK    7  A    between atoms: C9_18  and  N5_19 
REMARK    8  A    between atoms: N7_25  and  C11_26 
REMARK    9  A    between atoms: C12_28  and  C13_29 
REMARK   10  A    between atoms: C13_29  and  O2_30 
REMARK   11  A    between atoms: C14_32  and  O3_33 
REMARK   12  A    between atoms: C15_35  and  O4_36 
ROOT
HETATM    1  C6  UNL     1      39.732  28.916  18.218  1.00  0.00     0.684 A 
HETATM    2  N2  UNL     1      40.018  28.244  17.083  1.00  0.00    -0.184 N 
ATOM      3  H2  UNL     1      39.338  27.773  16.486  1.00  0.00     0.184 HD
HETATM    4  C7  UNL     1      41.339  28.295  16.867  1.00  0.00     0.138 A 
HETATM    5  C8  UNL     1      42.138  27.779  15.867  1.00  0.00     0.146 A 
HETATM    6  N4  UNL     1      43.459  28.019  15.953  1.00  0.00    -0.175 N 
ATOM      7  H4  UNL     1      44.083  27.654  15.233  1.00  0.00     0.186 HD
HETATM    8  C9  UNL     1      43.975  28.741  16.985  1.00  0.00     0.679 A 
HETATM    9  N6  UNL     1      43.176  29.241  17.959  1.00  0.00    -0.174 N 
ATOM     10  H6  UNL     1      43.583  29.779  18.724  1.00  0.00     0.186 HD
HETATM   11  C10 UNL     1      41.863  29.031  17.921  1.00  0.00     0.172 A 
HETATM   12  N7  UNL     1      40.868  29.409  18.746  1.00  0.00    -0.135 N 
ENDROOT
BRANCH  12  13
HETATM   13  C11 UNL     1      40.943  30.189  19.971  1.00  0.00     0.279 C 
HETATM   14  O1  UNL     1      39.935  31.107  20.070  1.00  0.00    -0.353 OA
HETATM   15  C12 UNL     1      39.523  31.211  21.369  1.00  0.00     0.179 C 
HETATM   16  C14 UNL     1      40.080  30.089  22.164  1.00  0.00     0.182 C 
HETATM   17  C15 UNL     1      40.904  29.313  21.196  1.00  0.00     0.199 C 
BRANCH  15  18
HETATM   18  C13 UNL     1      39.969  32.516  22.027  1.00  0.00     0.198 C 
BRANCH  18  19
HETATM   19  O2  UNL     1      38.850  33.301  22.182  1.00  0.00    -0.398 OA
ATOM     20  H2  UNL     1      38.655  33.336  23.112  1.00  0.00     0.209 HD
ENDBRANCH  18  19
ENDBRANCH  15  18
BRANCH  16  21
HETATM   21  O3  UNL     1      39.036  29.289  22.654  1.00  0.00    -0.390 OA
ATOM     22  H3  UNL     1      38.439  29.070  21.948  1.00  0.00     0.210 HD
ENDBRANCH  16  21
BRANCH  17  23
HETATM   23  O4  UNL     1      42.170  29.096  21.742  1.00  0.00    -0.388 OA
ATOM     24  H4  UNL     1      42.168  29.128  22.691  1.00  0.00     0.210 HD
ENDBRANCH  17  23
ENDBRANCH  12  13
BRANCH   1  25
HETATM   25  N1  UNL     1      38.563  29.080  18.741  1.00  0.00    -0.226 N 
ATOM     26  H1  UNL     1      38.182  30.023  18.820  1.00  0.00     0.177 HD
BRANCH  25  27
HETATM   27  C5  UNL     1      37.777  27.960  19.218  1.00  0.00     0.138 C 
BRANCH  27  28
HETATM   28  C4  UNL     1      38.579  26.997  20.032  1.00  0.00     0.020 C 
BRANCH  28  29
HETATM   29  C3  UNL     1      37.719  26.327  21.060  1.00  0.00     0.001 C 
BRANCH  29  30
HETATM   30  C2  UNL     1      36.268  26.744  20.960  1.00  0.00    -0.004 C 
HETATM   31  C1  UNL     1      35.775  27.341  22.261  1.00  0.00     0.005 C 
ENDBRANCH  29  30
ENDBRANCH  28  29
ENDBRANCH  27  28
ENDBRANCH  25  27
ENDBRANCH   1  25
BRANCH   5  32
HETATM   32  N3  UNL     1      41.672  27.092  14.878  1.00  0.00    -0.383 N 
ATOM     33  H32 UNL     1      42.243  26.362  14.452  1.00  0.00     0.157 HD
ATOM     34  H31 UNL     1      40.741  27.241  14.489  1.00  0.00     0.157 HD
ENDBRANCH   5  32
BRANCH   8  35
HETATM   35  N5  UNL     1      45.239  28.972  17.068  1.00  0.00    -0.234 N 
ATOM     36  H52 UNL     1      45.808  28.808  16.238  1.00  0.00     0.174 HD
ATOM     37  H51 UNL     1      45.656  29.308  17.936  1.00  0.00     0.174 HD
ENDBRANCH   8  35
TORSDOF 12
ENDMDL
MODEL 3
REMARK VINA RESULT: -7.631795290      2.531      3.754
REMARK  12 active torsions:
REMARK  status: ('A' for Active; 'I' for Inactive)
REMARK    1  A    between atoms: C2_2  and  C3_3 
REMARK    2  A    between atoms: C3_3  and  C4_4 
REMARK    3  A    between atoms: C4_4  and  C5_5 
REMARK    4  A    between atoms: C5_5  and  N1_6 
REMARK    5  A    between atoms: N1_6  and  C6_8 
REMARK    6  A    between atoms: C8_12  and  N3_13 
REMARK    7  A    between atoms: C9_18  and  N5_19 
REMARK    8  A    between atoms: N7_25  and  C11_26 
REMARK    9  A    between atoms: C12_28  and  C13_29 
REMARK   10  A    between atoms: C13_29  and  O2_30 
REMARK   11  A    between atoms: C14_32  and  O3_33 
REMARK   12  A    between atoms: C15_35  and  O4_36 
ROOT
HETATM    1  C6  UNL     1      41.055  28.578  20.256  1.00  0.00     0.684 A 
HETATM    2  N2  UNL     1      40.640  28.244  19.015  1.00  0.00    -0.184 N 
ATOM      3  H2  UNL     1      39.687  27.987  18.759  1.00  0.00     0.184 HD
HETATM    4  C7  UNL     1      41.683  28.305  18.175  1.00  0.00     0.138 A 
HETATM    5  C8  UNL     1      41.801  28.064  16.822  1.00  0.00     0.146 A 
HETATM    6  N4  UNL     1      43.020  28.221  16.276  1.00  0.00    -0.175 N 
ATOM      7  H4  UNL     1      43.149  28.051  15.279  1.00  0.00     0.186 HD
HETATM    8  C9  UNL     1      44.084  28.602  17.035  1.00  0.00     0.679 A 
HETATM    9  N6  UNL     1      43.951  28.834  18.363  1.00  0.00    -0.174 N 
ATOM     10  H6  UNL     1      44.761  29.118  18.914  1.00  0.00     0.186 HD
HETATM   11  C10 UNL     1      42.766  28.692  18.951  1.00  0.00     0.172 A 
HETATM   12  N7  UNL     1      42.371  28.858  20.228  1.00  0.00    -0.135 N 
ENDROOT
BRANCH  12  13
HETATM   13  C11 UNL     1      43.158  29.257  21.385  1.00  0.00     0.279 C 
HETATM   14  O1  UNL     1      44.441  29.593  21.053  1.00  0.00    -0.353 OA
HETATM   15  C12 UNL     1      44.864  30.639  21.825  1.00  0.00     0.179 C 
HETATM   16  C14 UNL     1      43.706  31.247  22.526  1.00  0.00     0.182 C 
HETATM   17  C15 UNL     1      42.538  30.421  22.110  1.00  0.00     0.199 C 
BRANCH  15  18
HETATM   18  C13 UNL     1      45.882  30.218  22.884  1.00  0.00     0.198 C 
BRANCH  18  19
HETATM   19  O2  UNL     1      46.836  29.453  22.255  1.00  0.00    -0.398 OA
ATOM     20  H2  UNL     1      47.451  29.165  22.919  1.00  0.00     0.209 HD
ENDBRANCH  18  19
ENDBRANCH  15  18
BRANCH  16  21
HETATM   21  O3  UNL     1      43.533  32.572  22.099  1.00  0.00    -0.390 OA
ATOM     22  H3  UNL     1      44.274  33.099  22.375  1.00  0.00     0.210 HD
ENDBRANCH  16  21
BRANCH  17  23
HETATM   23  O4  UNL     1      41.826  30.030  23.244  1.00  0.00    -0.388 OA
ATOM     24  H4  UNL     1      41.767  30.720  23.895  1.00  0.00     0.210 HD
ENDBRANCH  17  23
ENDBRANCH  12  13
BRANCH   1  25
HETATM   25  N1  UNL     1      40.328  28.630  21.321  1.00  0.00    -0.226 N 
ATOM     26  H1  UNL     1      40.772  28.838  22.216  1.00  0.00     0.177 HD
BRANCH  25  27
HETATM   27  C5  UNL     1      38.898  28.402  21.281  1.00  0.00     0.138 C 
BRANCH  27  28
HETATM   28  C4  UNL     1      38.525  27.004  21.656  1.00  0.00     0.020 C 
BRANCH  28  29
HETATM   29  C3  UNL     1      37.367  26.526  20.836  1.00  0.00     0.001 C 
BRANCH  29  30
HETATM   30  C2  UNL     1      36.035  26.975  21.397  1.00  0.00    -0.004 C 
HETATM   31  C1  UNL     1      35.263  27.802  20.391  1.00  0.00     0.005 C 
ENDBRANCH  29  30
ENDBRANCH  28  29
ENDBRANCH  27  28
ENDBRANCH  25  27
ENDBRANCH   1  25
BRANCH   5  32
HETATM   32  N3  UNL     1      40.807  27.702  16.082  1.00  0.00    -0.383 N 
ATOM     33  H32 UNL     1      40.110  28.390  15.795  1.00  0.00     0.157 HD
ATOM     34  H31 UNL     1      40.674  26.743  15.760  1.00  0.00     0.157 HD
ENDBRANCH   5  32
BRANCH   8  35
HETATM   35  N5  UNL     1      45.253  28.752  16.513  1.00  0.00    -0.234 N 
ATOM     36  H52 UNL     1      45.344  29.398  15.729  1.00  0.00     0.174 HD
ATOM     37  H51 UNL     1      46.059  28.242  16.874  1.00  0.00     0.174 HD
ENDBRANCH   8  35
TORSDOF 12
ENDMDL
MODEL 4
REMARK VINA RESULT: -7.569507503      2.485      4.921
REMARK  12 active torsions:
REMARK  status: ('A' for Active; 'I' for Inactive)
REMARK    1  A    between atoms: C2_2  and  C3_3 
REMARK    2  A    between atoms: C3_3  and  C4_4 
REMARK    3  A    between atoms: C4_4  and  C5_5 
REMARK    4  A    between atoms: C5_5  and  N1_6 
REMARK    5  A    between atoms: N1_6  and  C6_8 
REMARK    6  A    between atoms: C8_12  and  N3_13 
REMARK    7  A    between atoms: C9_18  and  N5_19 
REMARK    8  A    between atoms: N7_25  and  C11_26 
REMARK    9  A    between atoms: C12_28  and  C13_29 
REMARK   10  A    between atoms: C13_29  and  O2_30 
REMARK   11  A    between atoms: C14_32  and  O3_33 
REMARK   12  A    between atoms: C15_35  and  O4_36 
ROOT
HETATM    1  C6  UNL     1      42.357  28.808  20.002  1.00  0.00     0.684 A 
HETATM    2  N2  UNL     1      43.465  28.979  19.251  1.00  0.00    -0.184 N 
ATOM      3  H2  UNL     1      44.339  29.397  19.571  1.00  0.00     0.184 HD
HETATM    4  C7  UNL     1      43.232  28.513  18.016  1.00  0.00     0.138 A 
HETATM    5  C8  UNL     1      44.017  28.450  16.883  1.00  0.00     0.146 A 
HETATM    6  N4  UNL     1      43.462  27.909  15.783  1.00  0.00    -0.175 N 
ATOM      7  H4  UNL     1      44.010  27.844  14.925  1.00  0.00     0.186 HD
HETATM    8  C9  UNL     1      42.182  27.445  15.799  1.00  0.00     0.679 A 
HETATM    9  N6  UNL     1      41.425  27.515  16.920  1.00  0.00    -0.174 N 
ATOM     10  H6  UNL     1      40.468  27.163  16.911  1.00  0.00     0.186 HD
HETATM   11  C10 UNL     1      41.926  28.043  18.034  1.00  0.00     0.172 A 
HETATM   12  N7  UNL     1      41.397  28.227  19.259  1.00  0.00    -0.135 N 
ENDROOT
BRANCH  12  13
HETATM   13  C11 UNL     1      40.066  27.890  19.740  1.00  0.00     0.279 C 
HETATM   14  O1  UNL     1      40.031  27.700  21.092  1.00  0.00    -0.353 OA
HETATM   15  C12 UNL     1      38.859  28.183  21.603  1.00  0.00     0.179 C 
HETATM   16  C14 UNL     1      38.174  29.018  20.584  1.00  0.00     0.182 C 
HETATM   17  C15 UNL     1      39.058  28.952  19.387  1.00  0.00     0.199 C 
BRANCH  15  18
HETATM   18  C13 UNL     1      37.895  27.075  22.023  1.00  0.00     0.198 C 
BRANCH  18  19
HETATM   19  O2  UNL     1      37.718  27.178  23.382  1.00  0.00    -0.398 OA
ATOM     20  H2  UNL     1      38.408  26.675  23.797  1.00  0.00     0.209 HD
ENDBRANCH  18  19
ENDBRANCH  15  18
BRANCH  16  21
HETATM   21  O3  UNL     1      38.079  30.342  21.038  1.00  0.00    -0.390 OA
ATOM     22  H3  UNL     1      38.940  30.745  21.038  1.00  0.00     0.210 HD
ENDBRANCH  16  21
BRANCH  17  23
HETATM   23  O4  UNL     1      38.292  28.617  18.269  1.00  0.00    -0.388 OA
ATOM     24  H4  UNL     1      37.363  28.755  18.408  1.00  0.00     0.210 HD
ENDBRANCH  17  23
ENDBRANCH  12  13
BRANCH   1  25
HETATM   25  N1  UNL     1      42.210  29.137  21.242  1.00  0.00    -0.226 N 
ATOM     26  H1  UNL     1      42.204  28.405  21.952  1.00  0.00     0.177 HD
BRANCH  25  27
HETATM   27  C5  UNL     1      42.055  30.517  21.652  1.00  0.00     0.138 C 
BRANCH  27  28
HETATM   28  C4  UNL     1      42.883  30.862  22.847  1.00  0.00     0.020 C 
BRANCH  28  29
HETATM   29  C3  UNL     1      44.270  31.252  22.436  1.00  0.00     0.001 C 
BRANCH  29  30
HETATM   30  C2  UNL     1      45.310  30.248  22.881  1.00  0.00    -0.004 C 
HETATM   31  C1  UNL     1      46.076  29.688  21.701  1.00  0.00     0.005 C 
ENDBRANCH  29  30
ENDBRANCH  28  29
ENDBRANCH  27  28
ENDBRANCH  25  27
ENDBRANCH   1  25
BRANCH   5  32
HETATM   32  N3  UNL     1      45.232  28.882  16.844  1.00  0.00    -0.383 N 
ATOM     33  H32 UNL     1      45.415  29.877  16.714  1.00  0.00     0.157 HD
ATOM     34  H31 UNL     1      46.043  28.269  16.939  1.00  0.00     0.157 HD
ENDBRANCH   5  32
BRANCH   8  35
HETATM   35  N5  UNL     1      41.650  26.927  14.747  1.00  0.00    -0.234 N 
ATOM     36  H52 UNL     1      40.776  27.329  14.409  1.00  0.00     0.174 HD
ATOM     37  H51 UNL     1      42.089  26.140  14.269  1.00  0.00     0.174 HD
ENDBRANCH   8  35
TORSDOF 12
ENDMDL
MODEL 5
REMARK VINA RESULT: -7.538494444      1.795      2.893
REMARK  12 active torsions:
REMARK  status: ('A' for Active; 'I' for Inactive)
REMARK    1  A    between atoms: C2_2  and  C3_3 
REMARK    2  A    between atoms: C3_3  and  C4_4 
REMARK    3  A    between atoms: C4_4  and  C5_5 
REMARK    4  A    between atoms: C5_5  and  N1_6 
REMARK    5  A    between atoms: N1_6  and  C6_8 
REMARK    6  A    between atoms: C8_12  and  N3_13 
REMARK    7  A    between atoms: C9_18  and  N5_19 
REMARK    8  A    between atoms: N7_25  and  C11_26 
REMARK    9  A    between atoms: C12_28  and  C13_29 
REMARK   10  A    between atoms: C13_29  and  O2_30 
REMARK   11  A    between atoms: C14_32  and  O3_33 
REMARK   12  A    between atoms: C15_35  and  O4_36 
ROOT
HETATM    1  C6  UNL     1      39.747  28.095  19.344  1.00  0.00     0.684 A 
HETATM    2  N2  UNL     1      39.908  27.685  18.068  1.00  0.00    -0.184 N 
ATOM      3  H2  UNL     1      39.201  27.213  17.503  1.00  0.00     0.184 HD
HETATM    4  C7  UNL     1      41.147  27.997  17.662  1.00  0.00     0.138 A 
HETATM    5  C8  UNL     1      41.810  27.802  16.468  1.00  0.00     0.146 A 
HETATM    6  N4  UNL     1      43.078  28.246  16.392  1.00  0.00    -0.175 N 
ATOM      7  H4  UNL     1      43.602  28.121  15.527  1.00  0.00     0.186 HD
HETATM    8  C9  UNL     1      43.671  28.859  17.453  1.00  0.00     0.679 A 
HETATM    9  N6  UNL     1      43.005  29.041  18.620  1.00  0.00    -0.174 N 
ATOM     10  H6  UNL     1      43.468  29.503  19.403  1.00  0.00     0.186 HD
HETATM   11  C10 UNL     1      41.749  28.620  18.746  1.00  0.00     0.172 A 
HETATM   12  N7  UNL     1      40.881  28.677  19.774  1.00  0.00    -0.135 N 
ENDROOT
BRANCH  12  13
HETATM   13  C11 UNL     1      41.073  29.238  21.103  1.00  0.00     0.279 C 
HETATM   14  O1  UNL     1      42.392  29.325  21.448  1.00  0.00    -0.353 OA
HETATM   15  C12 UNL     1      42.613  30.463  22.172  1.00  0.00     0.179 C 
HETATM   16  C14 UNL     1      41.434  31.360  22.069  1.00  0.00     0.182 C 
HETATM   17  C15 UNL     1      40.464  30.610  21.224  1.00  0.00     0.199 C 
BRANCH  15  18
HETATM   18  C13 UNL     1      42.859  30.184  23.654  1.00  0.00     0.198 C 
BRANCH  18  19
HETATM   19  O2  UNL     1      43.727  29.121  23.732  1.00  0.00    -0.398 OA
ATOM     20  H2  UNL     1      44.549  29.396  23.344  1.00  0.00     0.209 HD
ENDBRANCH  18  19
ENDBRANCH  15  18
BRANCH  16  21
HETATM   21  O3  UNL     1      41.800  32.556  21.434  1.00  0.00    -0.390 OA
ATOM     22  H3  UNL     1      42.409  33.038  21.981  1.00  0.00     0.210 HD
ENDBRANCH  16  21
BRANCH  17  23
HETATM   23  O4  UNL     1      39.221  30.592  21.859  1.00  0.00    -0.388 OA
ATOM     24  H4  UNL     1      39.018  31.414  22.288  1.00  0.00     0.210 HD
ENDBRANCH  17  23
ENDBRANCH  12  13
BRANCH   1  25
HETATM   25  N1  UNL     1      38.683  27.965  20.064  1.00  0.00    -0.226 N 
ATOM     26  H1  UNL     1      38.232  28.801  20.438  1.00  0.00     0.177 HD
BRANCH  25  27
HETATM   27  C5  UNL     1      38.114  26.666  20.357  1.00  0.00     0.138 C 
BRANCH  27  28
HETATM   28  C4  UNL     1      37.124  26.708  21.476  1.00  0.00     0.020 C 
BRANCH  28  29
HETATM   29  C3  UNL     1      37.672  27.479  22.639  1.00  0.00     0.001 C 
BRANCH  29  30
HETATM   30  C2  UNL     1      36.685  28.490  23.180  1.00  0.00    -0.004 C 
HETATM   31  C1  UNL     1      36.735  28.555  24.691  1.00  0.00     0.005 C 
ENDBRANCH  29  30
ENDBRANCH  28  29
ENDBRANCH  27  28
ENDBRANCH  25  27
ENDBRANCH   1  25
BRANCH   5  32
HETATM   32  N3  UNL     1      41.269  27.224  15.449  1.00  0.00    -0.383 N 
ATOM     33  H32 UNL     1      40.534  27.700  14.925  1.00  0.00     0.157 HD
ATOM     34  H31 UNL     1      41.541  26.295  15.128  1.00  0.00     0.157 HD
ENDBRANCH   5  32
BRANCH   8  35
HETATM   35  N5  UNL     1      44.884  29.284  17.382  1.00  0.00    -0.234 N 
ATOM     36  H52 UNL     1      45.223  29.605  16.476  1.00  0.00     0.174 HD
ATOM     37  H51 UNL     1      45.486  29.300  18.206  1.00  0.00     0.174 HD
ENDBRANCH   8  35
TORSDOF 12
ENDMDL
