MODEL 1
REMARK VINA RESULT: -8.223600314      0.000      0.000
REMARK  2 active torsions:
REMARK  status: ('A' for Active; 'I' for Inactive)
REMARK    1  A    between atoms: C10_11  and  N1_12 
REMARK       I    between atoms: N2_14  and  C11_16 
REMARK       I    between atoms: C11_16  and  N4_20 
REMARK    2  A    between atoms: N4_20  and  C12_22 
ROOT
HETATM    1  C1  UNL     1      19.723  41.548  24.020  1.00  0.00     0.046 C 
HETATM    2  C2  UNL     1      21.029  42.198  24.428  1.00  0.00     0.064 C 
HETATM    3  C3  UNL     1      21.520  41.468  25.667  1.00  0.00     0.046 C 
HETATM    4  C4  UNL     1      20.777  43.640  24.670  1.00  0.00     0.086 C 
HETATM    5  C5  UNL     1      21.563  44.572  23.787  1.00  0.00     0.132 C 
HETATM    6  C6  UNL     1      22.937  44.860  24.357  1.00  0.00     0.057 C 
HETATM    7  F1  UNL     1      20.886  45.784  23.765  1.00  0.00    -0.238 F 
HETATM    8  C7  UNL     1      21.699  44.108  22.406  1.00  0.00     0.014 A 
HETATM    9  C8  UNL     1      21.648  44.948  21.318  1.00  0.00     0.015 A 
HETATM   10  C9  UNL     1      21.787  44.420  20.051  1.00  0.00     0.031 A 
HETATM   11  C10 UNL     1      21.976  43.073  19.817  1.00  0.00     0.051 A 
HETATM   12  C13 UNL     1      22.025  42.240  20.923  1.00  0.00     0.068 A 
HETATM   13  C14 UNL     1      21.891  42.740  22.201  1.00  0.00     0.081 A 
HETATM   14  O1  UNL     1      21.930  41.959  23.336  1.00  0.00    -0.340 OA
ENDROOT
BRANCH  11  15
HETATM   15  N1  UNL     1      22.119  42.534  18.500  1.00  0.00    -0.287 N 
HETATM   16  N2  UNL     1      23.288  42.495  18.012  1.00  0.00    -0.132 N 
HETATM   17  C11 UNL     1      23.424  41.955  16.696  1.00  0.00     0.690 C 
ATOM     18  H2  UNL     1      24.096  42.833  18.536  1.00  0.00     0.205 HD
HETATM   19  N3  UNL     1      22.679  42.451  15.777  1.00  0.00    -0.233 N 
HETATM   20  N4  UNL     1      24.339  40.926  16.434  1.00  0.00    -0.167 N 
ATOM     21  H32 UNL     1      22.013  43.200  15.967  1.00  0.00     0.174 HD
ATOM     22  H31 UNL     1      22.776  42.066  14.837  1.00  0.00     0.174 HD
ATOM     23  H4  UNL     1      24.166  39.976  16.763  1.00  0.00     0.183 HD
ATOM     24  H1  UNL     1      21.312  42.196  17.976  1.00  0.00     0.187 HD
BRANCH  20  25
HETATM   25  C12 UNL     1      25.538  41.245  15.686  1.00  0.00     0.472 C 
HETATM   26  F2  UNL     1      26.214  42.221  16.356  1.00  0.00    -0.191 F 
HETATM   27  F3  UNL     1      26.330  40.129  15.553  1.00  0.00    -0.191 F 
ENDBRANCH  20  25
ENDBRANCH  11  15
TORSDOF 2
ENDMDL
MODEL 2
REMARK VINA RESULT: -8.191094799      3.687      4.720
REMARK  2 active torsions:
REMARK  status: ('A' for Active; 'I' for Inactive)
REMARK    1  A    between atoms: C10_11  and  N1_12 
REMARK       I    between atoms: N2_14  and  C11_16 
REMARK       I    between atoms: C11_16  and  N4_20 
REMARK    2  A    between atoms: N4_20  and  C12_22 
ROOT
HETATM    1  C1  UNL     1      23.264  44.372  24.092  1.00  0.00     0.046 C 
HETATM    2  C2  UNL     1      21.972  43.665  24.444  1.00  0.00     0.064 C 
HETATM    3  C3  UNL     1      21.389  44.380  25.651  1.00  0.00     0.046 C 
HETATM    4  C4  UNL     1      22.279  42.238  24.712  1.00  0.00     0.086 C 
HETATM    5  C5  UNL     1      21.579  41.263  23.801  1.00  0.00     0.132 C 
HETATM    6  C6  UNL     1      20.195  40.916  24.308  1.00  0.00     0.057 C 
HETATM    7  F1  UNL     1      22.312  40.084  23.823  1.00  0.00    -0.238 F 
HETATM    8  C7  UNL     1      21.488  41.710  22.411  1.00  0.00     0.014 A 
HETATM    9  C8  UNL     1      21.629  40.865  21.335  1.00  0.00     0.015 A 
HETATM   10  C9  UNL     1      21.527  41.377  20.057  1.00  0.00     0.031 A 
HETATM   11  C10 UNL     1      21.287  42.712  19.801  1.00  0.00     0.051 A 
HETATM   12  C13 UNL     1      21.146  43.549  20.896  1.00  0.00     0.068 A 
HETATM   13  C14 UNL     1      21.243  43.066  22.184  1.00  0.00     0.081 A 
HETATM   14  O1  UNL     1      21.113  43.853  23.308  1.00  0.00    -0.340 OA
ENDROOT
BRANCH  11  15
HETATM   15  N1  UNL     1      21.182  43.233  18.475  1.00  0.00    -0.287 N 
HETATM   16  N2  UNL     1      20.030  43.254  17.948  1.00  0.00    -0.132 N 
HETATM   17  C11 UNL     1      19.931  43.776  16.621  1.00  0.00     0.690 C 
ATOM     18  H2  UNL     1      19.208  42.913  18.448  1.00  0.00     0.205 HD
HETATM   19  N3  UNL     1      20.712  43.278  15.733  1.00  0.00    -0.233 N 
HETATM   20  N4  UNL     1      19.015  44.792  16.317  1.00  0.00    -0.167 N 
ATOM     21  H32 UNL     1      21.378  42.538  15.955  1.00  0.00     0.174 HD
ATOM     22  H31 UNL     1      20.641  43.651  14.786  1.00  0.00     0.174 HD
ATOM     23  H4  UNL     1      19.167  45.748  16.640  1.00  0.00     0.183 HD
ATOM     24  H1  UNL     1      22.002  43.573  17.973  1.00  0.00     0.187 HD
BRANCH  20  25
HETATM   25  C12 UNL     1      17.845  44.452  15.533  1.00  0.00     0.472 C 
HETATM   26  F2  UNL     1      17.014  43.699  16.310  1.00  0.00    -0.191 F 
HETATM   27  F3  UNL     1      17.199  45.593  15.119  1.00  0.00    -0.191 F 
ENDBRANCH  20  25
ENDBRANCH  11  15
TORSDOF 2
ENDMDL
MODEL 3
REMARK VINA RESULT: -7.154083636      6.668     10.469
REMARK  2 active torsions:
REMARK  status: ('A' for Active; 'I' for Inactive)
REMARK    1  A    between atoms: C10_11  and  N1_12 
REMARK       I    between atoms: N2_14  and  C11_16 
REMARK       I    between atoms: C11_16  and  N4_20 
REMARK    2  A    between atoms: N4_20  and  C12_22 
ROOT
HETATM    1  C1  UNL     1      21.996  40.998  23.988  1.00  0.00     0.046 C 
HETATM    2  C2  UNL     1      21.634  42.376  23.474  1.00  0.00     0.064 C 
HETATM    3  C3  UNL     1      20.788  42.177  22.227  1.00  0.00     0.046 C 
HETATM    4  C4  UNL     1      22.890  43.119  23.205  1.00  0.00     0.086 C 
HETATM    5  C5  UNL     1      23.056  44.384  24.006  1.00  0.00     0.132 C 
HETATM    6  C6  UNL     1      22.380  45.563  23.336  1.00  0.00     0.057 C 
HETATM    7  F1  UNL     1      24.413  44.675  24.035  1.00  0.00    -0.238 F 
HETATM    8  C7  UNL     1      22.587  44.278  25.388  1.00  0.00     0.014 A 
HETATM    9  C8  UNL     1      23.230  44.869  26.450  1.00  0.00     0.015 A 
HETATM   10  C9  UNL     1      22.714  44.714  27.721  1.00  0.00     0.031 A 
HETATM   11  C10 UNL     1      21.571  43.987  27.983  1.00  0.00     0.051 A 
HETATM   12  C13 UNL     1      20.936  43.398  26.901  1.00  0.00     0.068 A 
HETATM   13  C14 UNL     1      21.427  43.536  25.621  1.00  0.00     0.081 A 
HETATM   14  O1  UNL     1      20.838  42.972  24.510  1.00  0.00    -0.340 OA
ENDROOT
BRANCH  11  15
HETATM   15  N1  UNL     1      21.044  43.832  29.302  1.00  0.00    -0.287 N 
HETATM   16  N2  UNL     1      20.351  44.786  29.767  1.00  0.00    -0.132 N 
HETATM   17  C11 UNL     1      19.826  44.626  31.086  1.00  0.00     0.690 C 
ATOM     18  H2  UNL     1      20.174  45.631  29.223  1.00  0.00     0.205 HD
HETATM   19  N3  UNL     1      20.655  44.313  32.015  1.00  0.00    -0.233 N 
HETATM   20  N4  UNL     1      18.460  44.806  31.342  1.00  0.00    -0.167 N 
ATOM     21  H32 UNL     1      21.649  44.182  31.829  1.00  0.00     0.174 HD
ATOM     22  H31 UNL     1      20.280  44.198  32.957  1.00  0.00     0.174 HD
ATOM     23  H4  UNL     1      17.774  44.119  31.028  1.00  0.00     0.183 HD
ATOM     24  H1  UNL     1      21.220  42.989  29.848  1.00  0.00     0.187 HD
BRANCH  20  25
HETATM   25  C12 UNL     1      18.045  45.993  32.061  1.00  0.00     0.472 C 
HETATM   26  F2  UNL     1      16.822  46.372  31.593  1.00  0.00    -0.191 F 
HETATM   27  F3  UNL     1      17.974  45.733  33.410  1.00  0.00    -0.191 F 
ENDBRANCH  20  25
ENDBRANCH  11  15
TORSDOF 2
ENDMDL
MODEL 4
REMARK VINA RESULT: -7.108607490      6.831      9.844
REMARK  2 active torsions:
REMARK  status: ('A' for Active; 'I' for Inactive)
REMARK    1  A    between atoms: C10_11  and  N1_12 
REMARK       I    between atoms: N2_14  and  C11_16 
REMARK       I    between atoms: C11_16  and  N4_20 
REMARK    2  A    between atoms: N4_20  and  C12_22 
ROOT
HETATM    1  C1  UNL     1      21.416  44.800  23.957  1.00  0.00     0.046 C 
HETATM    2  C2  UNL     1      21.716  43.401  23.460  1.00  0.00     0.064 C 
HETATM    3  C3  UNL     1      22.577  43.547  22.216  1.00  0.00     0.046 C 
HETATM    4  C4  UNL     1      20.428  42.715  23.192  1.00  0.00     0.086 C 
HETATM    5  C5  UNL     1      20.200  41.468  24.005  1.00  0.00     0.132 C 
HETATM    6  C6  UNL     1      20.823  40.251  23.352  1.00  0.00     0.057 C 
HETATM    7  F1  UNL     1      18.831  41.240  24.030  1.00  0.00    -0.238 F 
HETATM    8  C7  UNL     1      20.666  41.567  25.389  1.00  0.00     0.014 A 
HETATM    9  C8  UNL     1      19.992  41.019  26.454  1.00  0.00     0.015 A 
HETATM   10  C9  UNL     1      20.507  41.162  27.726  1.00  0.00     0.031 A 
HETATM   11  C10 UNL     1      21.682  41.839  27.986  1.00  0.00     0.051 A 
HETATM   12  C13 UNL     1      22.349  42.386  26.901  1.00  0.00     0.068 A 
HETATM   13  C14 UNL     1      21.858  42.257  25.620  1.00  0.00     0.081 A 
HETATM   14  O1  UNL     1      22.479  42.781  24.507  1.00  0.00    -0.340 OA
ENDROOT
BRANCH  11  15
HETATM   15  N1  UNL     1      22.208  41.984  29.306  1.00  0.00    -0.287 N 
HETATM   16  N2  UNL     1      22.910  41.031  29.760  1.00  0.00    -0.132 N 
HETATM   17  C11 UNL     1      23.435  41.181  31.081  1.00  0.00     0.690 C 
ATOM     18  H2  UNL     1      23.093  40.193  29.206  1.00  0.00     0.205 HD
HETATM   19  N3  UNL     1      22.605  41.476  32.013  1.00  0.00    -0.233 N 
HETATM   20  N4  UNL     1      24.803  41.009  31.333  1.00  0.00    -0.167 N 
ATOM     21  H32 UNL     1      21.609  41.601  31.829  1.00  0.00     0.174 HD
ATOM     22  H31 UNL     1      22.979  41.583  32.956  1.00  0.00     0.174 HD
ATOM     23  H4  UNL     1      25.483  41.705  31.026  1.00  0.00     0.183 HD
ATOM     24  H1  UNL     1      22.027  42.820  29.861  1.00  0.00     0.187 HD
BRANCH  20  25
HETATM   25  C12 UNL     1      25.228  39.818  32.039  1.00  0.00     0.472 C 
HETATM   26  F2  UNL     1      26.488  39.500  31.624  1.00  0.00    -0.191 F 
HETATM   27  F3  UNL     1      25.220  40.038  33.396  1.00  0.00    -0.191 F 
ENDBRANCH  20  25
ENDBRANCH  11  15
TORSDOF 2
ENDMDL
MODEL 5
REMARK VINA RESULT: -6.718393588      7.713     10.388
REMARK  2 active torsions:
REMARK  status: ('A' for Active; 'I' for Inactive)
REMARK    1  A    between atoms: C10_11  and  N1_12 
REMARK       I    between atoms: N2_14  and  C11_16 
REMARK       I    between atoms: C11_16  and  N4_20 
REMARK    2  A    between atoms: N4_20  and  C12_22 
ROOT
HETATM    1  C1  UNL     1      23.050  42.847  34.269  1.00  0.00     0.046 C 
HETATM    2  C2  UNL     1      23.571  41.435  34.439  1.00  0.00     0.064 C 
HETATM    3  C3  UNL     1      23.050  40.928  35.773  1.00  0.00     0.046 C 
HETATM    4  C4  UNL     1      25.053  41.472  34.374  1.00  0.00     0.086 C 
HETATM    5  C5  UNL     1      25.654  40.658  33.259  1.00  0.00     0.132 C 
HETATM    6  C6  UNL     1      25.848  39.211  33.662  1.00  0.00     0.057 C 
HETATM    7  F1  UNL     1      26.921  41.170  33.015  1.00  0.00    -0.238 F 
HETATM    8  C7  UNL     1      24.897  40.715  32.007  1.00  0.00     0.014 A 
HETATM    9  C8  UNL     1      25.490  40.759  30.768  1.00  0.00     0.015 A 
HETATM   10  C9  UNL     1      24.695  40.811  29.641  1.00  0.00     0.031 A 
HETATM   11  C10 UNL     1      23.316  40.823  29.696  1.00  0.00     0.051 A 
HETATM   12  C13 UNL     1      22.735  40.778  30.953  1.00  0.00     0.068 A 
HETATM   13  C14 UNL     1      23.503  40.725  32.096  1.00  0.00     0.081 A 
HETATM   14  O1  UNL     1      22.979  40.680  33.370  1.00  0.00    -0.340 OA
ENDROOT
BRANCH  11  15
HETATM   15  N1  UNL     1      22.501  40.877  28.524  1.00  0.00    -0.287 N 
HETATM   16  N2  UNL     1      22.753  41.791  27.683  1.00  0.00    -0.132 N 
HETATM   17  C11 UNL     1      21.934  41.841  26.512  1.00  0.00     0.690 C 
ATOM     18  H2  UNL     1      23.507  42.462  27.834  1.00  0.00     0.205 HD
HETATM   19  N3  UNL     1      20.663  41.866  26.684  1.00  0.00    -0.233 N 
HETATM   20  N4  UNL     1      22.511  41.861  25.235  1.00  0.00    -0.167 N 
ATOM     21  H32 UNL     1      20.244  41.852  27.614  1.00  0.00     0.174 HD
ATOM     22  H31 UNL     1      20.079  41.902  25.849  1.00  0.00     0.174 HD
ATOM     23  H4  UNL     1      22.948  41.026  24.845  1.00  0.00     0.183 HD
ATOM     24  H1  UNL     1      21.746  40.208  28.371  1.00  0.00     0.187 HD
BRANCH  20  25
HETATM   25  C12 UNL     1      22.470  43.097  24.481  1.00  0.00     0.472 C 
HETATM   26  F2  UNL     1      22.595  44.136  25.356  1.00  0.00    -0.191 F 
HETATM   27  F3  UNL     1      23.492  43.130  23.561  1.00  0.00    -0.191 F 
ENDBRANCH  20  25
ENDBRANCH  11  15
TORSDOF 2
ENDMDL
