MODEL 1
REMARK VINA RESULT: -6.465474005      0.000      0.000
REMARK  5 active torsions:
REMARK  status: ('A' for Active; 'I' for Inactive)
REMARK    1  A    between atoms: C2_2  and  C3_3 
REMARK    2  A    between atoms: C2_2  and  C8_13 
REMARK       I    between atoms: C3_3  and  N1_5 
REMARK    3  A    between atoms: C9_14  and  S1_15 
REMARK    4  A    between atoms: S1_15  and  N3_16 
REMARK    5  A    between atoms: C10_27  and  N7_28 
ROOT
HETATM    1  C8  UNL     1      12.719  51.529 -49.290  1.00  0.00     0.041 A 
HETATM    2  C9  UNL     1      12.550  50.748 -48.165  1.00  0.00     0.175 A 
HETATM    3  N4  UNL     1      11.398  50.868 -47.475  1.00  0.00    -0.274 N 
ATOM      4  H4  UNL     1      11.258  50.298 -46.640  1.00  0.00     0.189 HD
HETATM    5  N5  UNL     1      10.441  51.706 -47.851  1.00  0.00    -0.240 N 
ATOM      6  H5  UNL     1       9.587  51.761 -47.297  1.00  0.00     0.208 HD
HETATM    7  N6  UNL     1      10.558  52.465 -48.908  1.00  0.00    -0.271 N 
ATOM      8  H6  UNL     1       9.809  53.104 -49.177  1.00  0.00     0.190 HD
HETATM    9  C10 UNL     1      11.709  52.383 -49.649  1.00  0.00     0.124 A 
ENDROOT
BRANCH   1  10
HETATM   10  C2  UNL     1      13.925  51.348 -50.060  1.00  0.00     0.114 C 
HETATM   11  C1  UNL     1      14.339  52.651 -50.715  1.00  0.00     0.025 C 
BRANCH  10  12
HETATM   12  C3  UNL     1      13.652  50.451 -51.255  1.00  0.00     0.228 C 
HETATM   13  O1  UNL     1      12.542  50.573 -51.823  1.00  0.00    -0.273 OA
HETATM   14  N1  UNL     1      14.588  49.531 -51.704  1.00  0.00    -0.348 N 
HETATM   15  C4  UNL     1      14.216  48.730 -52.908  1.00  0.00     0.153 C 
HETATM   16  C7  UNL     1      15.870  49.200 -51.178  1.00  0.00     0.153 C 
HETATM   17  C5  UNL     1      15.353  48.985 -53.882  1.00  0.00     0.252 C 
HETATM   18  N2  UNL     1      16.526  48.299 -53.363  1.00  0.00    -0.072 N 
HETATM   19  C6  UNL     1      16.414  47.995 -51.969  1.00  0.00     0.252 C 
ATOM     20  H22 UNL     1      16.729  47.459 -53.905  1.00  0.00     0.277 HD
ATOM     21  H21 UNL     1      17.376  48.829 -53.555  1.00  0.00     0.277 HD
ENDBRANCH  10  12
ENDBRANCH   1  10
BRANCH   2  22
HETATM   22  S1  UNL     1      13.738  49.694 -47.642  1.00  0.00     0.274 S 
HETATM   23  O2  UNL     1      15.152  50.077 -47.701  1.00  0.00    -0.199 OA
HETATM   24  O3  UNL     1      13.606  48.202 -48.402  1.00  0.00    -0.199 OA
BRANCH  22  25
HETATM   25  N3  UNL     1      13.475  49.358 -46.116  1.00  0.00    -0.323 N 
ATOM     26  H32 UNL     1      13.607  50.010 -45.342  1.00  0.00     0.169 HD
ATOM     27  H31 UNL     1      13.155  48.392 -46.049  1.00  0.00     0.169 HD
ENDBRANCH  22  25
ENDBRANCH   2  22
BRANCH   9  28
HETATM   28  N7  UNL     1      11.712  53.137 -50.685  1.00  0.00    -0.384 N 
ATOM     29  H72 UNL     1      12.462  53.827 -50.689  1.00  0.00     0.157 HD
ATOM     30  H71 UNL     1      11.029  53.099 -51.442  1.00  0.00     0.157 HD
ENDBRANCH   9  28
TORSDOF 5
ENDMDL
MODEL 2
REMARK VINA RESULT: -6.404008498      2.505      5.491
REMARK  5 active torsions:
REMARK  status: ('A' for Active; 'I' for Inactive)
REMARK    1  A    between atoms: C2_2  and  C3_3 
REMARK    2  A    between atoms: C2_2  and  C8_13 
REMARK       I    between atoms: C3_3  and  N1_5 
REMARK    3  A    between atoms: C9_14  and  S1_15 
REMARK    4  A    between atoms: S1_15  and  N3_16 
REMARK    5  A    between atoms: C10_27  and  N7_28 
ROOT
HETATM    1  C8  UNL     1      14.060  50.226 -50.647  1.00  0.00     0.041 A 
HETATM    2  C9  UNL     1      12.951  50.696 -51.320  1.00  0.00     0.175 A 
HETATM    3  N4  UNL     1      12.309  49.853 -52.154  1.00  0.00    -0.274 N 
ATOM      4  H4  UNL     1      11.488  50.184 -52.660  1.00  0.00     0.189 HD
HETATM    5  N5  UNL     1      12.716  48.603 -52.333  1.00  0.00    -0.240 N 
ATOM      6  H5  UNL     1      12.197  48.002 -52.974  1.00  0.00     0.208 HD
HETATM    7  N6  UNL     1      13.760  48.116 -51.718  1.00  0.00    -0.271 N 
ATOM      8  H6  UNL     1      14.056  47.152 -51.874  1.00  0.00     0.190 HD
HETATM    9  C10 UNL     1      14.450  48.930 -50.857  1.00  0.00     0.124 A 
ENDROOT
BRANCH   1  10
HETATM   10  C2  UNL     1      14.703  51.113 -49.707  1.00  0.00     0.114 C 
HETATM   11  C1  UNL     1      16.088  51.490 -50.193  1.00  0.00     0.025 C 
BRANCH  10  12
HETATM   12  C3  UNL     1      14.997  50.377 -48.412  1.00  0.00     0.228 C 
HETATM   13  O1  UNL     1      16.200  50.199 -48.113  1.00  0.00    -0.273 OA
HETATM   14  N1  UNL     1      13.979  49.916 -47.589  1.00  0.00    -0.348 N 
HETATM   15  C4  UNL     1      14.395  49.236 -46.327  1.00  0.00     0.153 C 
HETATM   16  C7  UNL     1      12.567  49.966 -47.766  1.00  0.00     0.153 C 
HETATM   17  C5  UNL     1      13.677  50.016 -45.238  1.00  0.00     0.252 C 
HETATM   18  N2  UNL     1      12.261  49.700 -45.347  1.00  0.00    -0.072 N 
HETATM   19  C6  UNL     1      11.914  49.161 -46.626  1.00  0.00     0.252 C 
ATOM     20  H22 UNL     1      11.965  49.078 -44.595  1.00  0.00     0.277 HD
ATOM     21  H21 UNL     1      11.686  50.513 -45.124  1.00  0.00     0.277 HD
ENDBRANCH  10  12
ENDBRANCH   1  10
BRANCH   2  22
HETATM   22  S1  UNL     1      12.416  52.270 -51.139  1.00  0.00     0.274 S 
HETATM   23  O2  UNL     1      13.364  53.387 -51.178  1.00  0.00    -0.199 OA
HETATM   24  O3  UNL     1      11.510  52.448 -49.737  1.00  0.00    -0.199 OA
BRANCH  22  25
HETATM   25  N3  UNL     1      11.377  52.582 -52.295  1.00  0.00    -0.323 N 
ATOM     26  H32 UNL     1      11.459  52.259 -53.259  1.00  0.00     0.169 HD
ATOM     27  H31 UNL     1      10.626  53.153 -51.908  1.00  0.00     0.169 HD
ENDBRANCH  22  25
ENDBRANCH   2  22
BRANCH   9  28
HETATM   28  N7  UNL     1      15.434  48.350 -50.275  1.00  0.00    -0.384 N 
ATOM     29  H72 UNL     1      15.920  48.943 -49.601  1.00  0.00     0.157 HD
ATOM     30  H71 UNL     1      15.750  47.398 -50.460  1.00  0.00     0.157 HD
ENDBRANCH   9  28
TORSDOF 5
ENDMDL
MODEL 3
REMARK VINA RESULT: -6.335204803      1.441      1.735
REMARK  5 active torsions:
REMARK  status: ('A' for Active; 'I' for Inactive)
REMARK    1  A    between atoms: C2_2  and  C3_3 
REMARK    2  A    between atoms: C2_2  and  C8_13 
REMARK       I    between atoms: C3_3  and  N1_5 
REMARK    3  A    between atoms: C9_14  and  S1_15 
REMARK    4  A    between atoms: S1_15  and  N3_16 
REMARK    5  A    between atoms: C10_27  and  N7_28 
ROOT
HETATM    1  C8  UNL     1      13.308  50.931 -48.255  1.00  0.00     0.041 A 
HETATM    2  C9  UNL     1      13.533  49.909 -47.355  1.00  0.00     0.175 A 
HETATM    3  N4  UNL     1      12.486  49.450 -46.641  1.00  0.00    -0.274 N 
ATOM      4  H4  UNL     1      12.635  48.695 -45.971  1.00  0.00     0.189 HD
HETATM    5  N5  UNL     1      11.266  49.952 -46.785  1.00  0.00    -0.240 N 
ATOM      6  H5  UNL     1      10.506  49.571 -46.222  1.00  0.00     0.208 HD
HETATM    7  N6  UNL     1      11.007  50.920 -47.623  1.00  0.00    -0.271 N 
ATOM      8  H6  UNL     1      10.062  51.292 -47.715  1.00  0.00     0.190 HD
HETATM    9  C10 UNL     1      12.035  51.424 -48.377  1.00  0.00     0.124 A 
ENDROOT
BRANCH   1  10
HETATM   10  C2  UNL     1      14.418  51.372 -49.063  1.00  0.00     0.114 C 
HETATM   11  C1  UNL     1      14.683  52.848 -48.843  1.00  0.00     0.025 C 
BRANCH  10  12
HETATM   12  C3  UNL     1      14.046  51.320 -50.535  1.00  0.00     0.228 C 
HETATM   13  O1  UNL     1      13.804  52.409 -51.105  1.00  0.00    -0.273 OA
HETATM   14  N1  UNL     1      13.975  50.119 -51.226  1.00  0.00    -0.348 N 
HETATM   15  C4  UNL     1      13.631  50.200 -52.676  1.00  0.00     0.153 C 
HETATM   16  C7  UNL     1      14.158  48.785 -50.761  1.00  0.00     0.153 C 
HETATM   17  C5  UNL     1      14.774  49.472 -53.364  1.00  0.00     0.252 C 
HETATM   18  N2  UNL     1      14.629  48.058 -53.056  1.00  0.00    -0.072 N 
HETATM   19  C6  UNL     1      13.802  47.825 -51.913  1.00  0.00     0.252 C 
ATOM     20  H22 UNL     1      14.289  47.539 -53.866  1.00  0.00     0.277 HD
ATOM     21  H21 UNL     1      15.540  47.612 -52.945  1.00  0.00     0.277 HD
ENDBRANCH  10  12
ENDBRANCH   1  10
BRANCH   2  22
HETATM   22  S1  UNL     1      15.057  49.261 -47.126  1.00  0.00     0.274 S 
HETATM   23  O2  UNL     1      16.233  49.892 -47.733  1.00  0.00    -0.199 OA
HETATM   24  O3  UNL     1      15.100  47.637 -47.555  1.00  0.00    -0.199 OA
BRANCH  22  25
HETATM   25  N3  UNL     1      15.366  49.243 -45.572  1.00  0.00    -0.323 N 
ATOM     26  H32 UNL     1      16.285  49.396 -45.156  1.00  0.00     0.169 HD
ATOM     27  H31 UNL     1      14.496  49.056 -45.073  1.00  0.00     0.169 HD
ENDBRANCH  22  25
ENDBRANCH   2  22
BRANCH   9  28
HETATM   28  N7  UNL     1      11.674  52.342 -49.196  1.00  0.00    -0.384 N 
ATOM     29  H72 UNL     1      10.720  52.671 -49.050  1.00  0.00     0.157 HD
ATOM     30  H71 UNL     1      12.249  52.716 -49.952  1.00  0.00     0.157 HD
ENDBRANCH   9  28
TORSDOF 5
ENDMDL
MODEL 4
REMARK VINA RESULT: -6.272217467      1.398      1.612
REMARK  5 active torsions:
REMARK  status: ('A' for Active; 'I' for Inactive)
REMARK    1  A    between atoms: C2_2  and  C3_3 
REMARK    2  A    between atoms: C2_2  and  C8_13 
REMARK       I    between atoms: C3_3  and  N1_5 
REMARK    3  A    between atoms: C9_14  and  S1_15 
REMARK    4  A    between atoms: S1_15  and  N3_16 
REMARK    5  A    between atoms: C10_27  and  N7_28 
ROOT
HETATM    1  C8  UNL     1      13.136  51.538 -49.074  1.00  0.00     0.041 A 
HETATM    2  C9  UNL     1      12.431  50.903 -48.072  1.00  0.00     0.175 A 
HETATM    3  N4  UNL     1      11.138  51.239 -47.894  1.00  0.00    -0.274 N 
ATOM      4  H4  UNL     1      10.603  50.779 -47.157  1.00  0.00     0.189 HD
HETATM    5  N5  UNL     1      10.542  52.151 -48.651  1.00  0.00    -0.240 N 
ATOM      6  H5  UNL     1       9.561  52.370 -48.479  1.00  0.00     0.208 HD
HETATM    7  N6  UNL     1      11.170  52.777 -49.610  1.00  0.00    -0.271 N 
ATOM      8  H6  UNL     1      10.690  53.476 -50.178  1.00  0.00     0.190 HD
HETATM    9  C10 UNL     1      12.487  52.474 -49.836  1.00  0.00     0.124 A 
ENDROOT
BRANCH   1  10
HETATM   10  C2  UNL     1      14.500  51.127 -49.302  1.00  0.00     0.114 C 
HETATM   11  C1  UNL     1      15.463  52.217 -48.876  1.00  0.00     0.025 C 
BRANCH  10  12
HETATM   12  C3  UNL     1      14.769  51.013 -50.792  1.00  0.00     0.228 C 
HETATM   13  O1  UNL     1      15.472  51.906 -51.319  1.00  0.00    -0.273 OA
HETATM   14  N1  UNL     1      14.260  49.965 -51.546  1.00  0.00    -0.348 N 
HETATM   15  C4  UNL     1      14.621  49.946 -52.995  1.00  0.00     0.153 C 
HETATM   16  C7  UNL     1      13.408  48.891 -51.160  1.00  0.00     0.153 C 
HETATM   17  C5  UNL     1      15.247  48.576 -53.196  1.00  0.00     0.252 C 
HETATM   18  N2  UNL     1      14.177  47.596 -53.096  1.00  0.00    -0.072 N 
HETATM   19  C6  UNL     1      13.020  48.110 -52.430  1.00  0.00     0.252 C 
ATOM     20  H22 UNL     1      13.935  47.222 -54.014  1.00  0.00     0.277 HD
ATOM     21  H21 UNL     1      14.505  46.739 -52.651  1.00  0.00     0.277 HD
ENDBRANCH  10  12
ENDBRANCH   1  10
BRANCH   2  22
HETATM   22  S1  UNL     1      13.149  49.763 -47.081  1.00  0.00     0.274 S 
HETATM   23  O2  UNL     1      14.434  50.044 -46.433  1.00  0.00    -0.199 OA
HETATM   24  O3  UNL     1      13.313  48.288 -47.867  1.00  0.00    -0.199 OA
BRANCH  22  25
HETATM   25  N3  UNL     1      12.157  49.441 -45.888  1.00  0.00    -0.323 N 
ATOM     26  H32 UNL     1      11.155  49.627 -45.894  1.00  0.00     0.169 HD
ATOM     27  H31 UNL     1      12.693  49.021 -45.128  1.00  0.00     0.169 HD
ENDBRANCH  22  25
ENDBRANCH   2  22
BRANCH   9  28
HETATM   28  N7  UNL     1      13.004  53.112 -50.820  1.00  0.00    -0.384 N 
ATOM     29  H72 UNL     1      14.024  53.121 -50.815  1.00  0.00     0.157 HD
ATOM     30  H71 UNL     1      12.478  53.602 -51.545  1.00  0.00     0.157 HD
ENDBRANCH   9  28
TORSDOF 5
ENDMDL
MODEL 5
REMARK VINA RESULT: -6.135012877      1.423      1.942
REMARK  5 active torsions:
REMARK  status: ('A' for Active; 'I' for Inactive)
REMARK    1  A    between atoms: C2_2  and  C3_3 
REMARK    2  A    between atoms: C2_2  and  C8_13 
REMARK       I    between atoms: C3_3  and  N1_5 
REMARK    3  A    between atoms: C9_14  and  S1_15 
REMARK    4  A    between atoms: S1_15  and  N3_16 
REMARK    5  A    between atoms: C10_27  and  N7_28 
ROOT
HETATM    1  C8  UNL     1      13.643  50.334 -48.202  1.00  0.00     0.041 A 
HETATM    2  C9  UNL     1      14.186  49.590 -47.174  1.00  0.00     0.175 A 
HETATM    3  N4  UNL     1      13.409  49.321 -46.106  1.00  0.00    -0.274 N 
ATOM      4  H4  UNL     1      13.795  48.773 -45.337  1.00  0.00     0.189 HD
HETATM    5  N5  UNL     1      12.155  49.748 -46.027  1.00  0.00    -0.240 N 
ATOM      6  H5  UNL     1      11.606  49.517 -45.199  1.00  0.00     0.208 HD
HETATM    7  N6  UNL     1      11.600  50.454 -46.975  1.00  0.00    -0.271 N 
ATOM      8  H6  UNL     1      10.635  50.774 -46.891  1.00  0.00     0.190 HD
HETATM    9  C10 UNL     1      12.345  50.757 -48.086  1.00  0.00     0.124 A 
ENDROOT
BRANCH   1  10
HETATM   10  C2  UNL     1      14.458  50.563 -49.370  1.00  0.00     0.114 C 
HETATM   11  C1  UNL     1      14.090  51.879 -50.026  1.00  0.00     0.025 C 
BRANCH  10  12
HETATM   12  C3  UNL     1      14.119  49.550 -50.450  1.00  0.00     0.228 C 
HETATM   13  O1  UNL     1      12.913  49.236 -50.585  1.00  0.00    -0.273 OA
HETATM   14  N1  UNL     1      15.098  48.990 -51.257  1.00  0.00    -0.348 N 
HETATM   15  C4  UNL     1      14.637  48.031 -52.304  1.00  0.00     0.153 C 
HETATM   16  C7  UNL     1      16.512  49.166 -51.234  1.00  0.00     0.153 C 
HETATM   17  C5  UNL     1      15.195  48.605 -53.596  1.00  0.00     0.252 C 
HETATM   18  N2  UNL     1      16.636  48.411 -53.565  1.00  0.00    -0.072 N 
HETATM   19  C6  UNL     1      17.132  48.180 -52.243  1.00  0.00     0.252 C 
ATOM     20  H22 UNL     1      16.918  47.662 -54.198  1.00  0.00     0.277 HD
ATOM     21  H21 UNL     1      17.120  49.191 -54.007  1.00  0.00     0.277 HD
ENDBRANCH  10  12
ENDBRANCH   1  10
BRANCH   2  22
HETATM   22  S1  UNL     1      15.768  49.050 -47.222  1.00  0.00     0.274 S 
HETATM   23  O2  UNL     1      16.840  49.930 -47.696  1.00  0.00    -0.199 OA
HETATM   24  O3  UNL     1      15.896  47.616 -48.087  1.00  0.00    -0.199 OA
BRANCH  22  25
HETATM   25  N3  UNL     1      16.202  48.639 -45.754  1.00  0.00    -0.323 N 
ATOM     26  H32 UNL     1      15.568  48.302 -45.029  1.00  0.00     0.169 HD
ATOM     27  H31 UNL     1      17.210  48.769 -45.668  1.00  0.00     0.169 HD
ENDBRANCH  22  25
ENDBRANCH   2  22
BRANCH   9  28
HETATM   28  N7  UNL     1      11.702  51.420 -48.975  1.00  0.00    -0.384 N 
ATOM     29  H72 UNL     1      12.246  52.170 -49.402  1.00  0.00     0.157 HD
ATOM     30  H71 UNL     1      10.729  51.261 -49.238  1.00  0.00     0.157 HD
ENDBRANCH   9  28
TORSDOF 5
ENDMDL
