MODEL 1
REMARK VINA RESULT: -5.717156168      0.000      0.000
REMARK  11 active torsions:
REMARK  status: ('A' for Active; 'I' for Inactive)
REMARK    1  A    between atoms: N1_1  and  C1_4 
REMARK    2  A    between atoms: C2_7  and  C3_8 
REMARK    3  A    between atoms: C3_8  and  N3_9 
REMARK    4  A    between atoms: N3_9  and  C4_11 
REMARK    5  A    between atoms: C4_11  and  O1_12 
REMARK    6  A    between atoms: C4_11  and  C5_14 
REMARK    7  A    between atoms: C6_18  and  C7_19 
REMARK    8  A    between atoms: C7_19  and  N5_20 
REMARK    9  A    between atoms: C8_24  and  N6_25 
REMARK   10  A    between atoms: C11_31  and  C12_32 
REMARK   11  A    between atoms: C14_37  and  C15_38 
ROOT
HETATM    1  C5  UNL     1      38.807  55.221   0.834  1.00  0.00     0.134 A 
HETATM    2  N4  UNL     1      39.028  56.523   1.179  1.00  0.00    -0.254 N 
ATOM      3  H4  UNL     1      39.854  56.862   1.670  1.00  0.00     0.195 HD
HETATM    4  O2  UNL     1      38.049  57.260   0.798  1.00  0.00    -0.238 OA
HETATM    5  C6  UNL     1      37.128  56.555   0.194  1.00  0.00     0.131 A 
HETATM    6  C8  UNL     1      37.592  55.230   0.203  1.00  0.00     0.104 A 
ENDROOT
BRANCH   1   7
HETATM    7  C4  UNL     1      39.662  54.097   1.118  1.00  0.00     0.168 C 
BRANCH   7   8
HETATM    8  N3  UNL     1      39.712  53.272   2.235  1.00  0.00    -0.363 N 
ATOM      9  H3  UNL     1      39.932  52.285   2.099  1.00  0.00     0.162 HD
BRANCH   8  10
HETATM   10  C3  UNL     1      39.470  53.737   3.558  1.00  0.00     0.180 C 
BRANCH  10  11
HETATM   11  C2  UNL     1      38.329  53.038   4.273  1.00  0.00     0.050 A 
HETATM   12  N2  UNL     1      37.144  52.834   3.750  1.00  0.00    -0.338 N 
HETATM   13  C1  UNL     1      36.212  52.238   4.489  1.00  0.00     0.143 A 
ATOM     14  H2  UNL     1      36.941  53.128   2.794  1.00  0.00     0.168 HD
HETATM   15  S1  UNL     1      37.000  51.947   5.963  1.00  0.00    -0.049 SA
HETATM   16  C14 UNL     1      38.533  52.619   5.565  1.00  0.00     0.078 A 
BRANCH  13  17
HETATM   17  N1  UNL     1      34.976  51.960   4.115  1.00  0.00    -0.380 N 
ATOM     18  H12 UNL     1      34.412  52.357   3.365  1.00  0.00     0.158 HD
ATOM     19  H11 UNL     1      34.358  51.268   4.538  1.00  0.00     0.158 HD
ENDBRANCH  13  17
BRANCH  16  20
HETATM   20  C15 UNL     1      39.736  52.711   6.402  1.00  0.00     0.150 A 
HETATM   21  N9  UNL     1      40.815  51.926   6.355  1.00  0.00    -0.269 N 
HETATM   22  N10 UNL     1      41.660  52.375   7.284  1.00  0.00    -0.007 NA
ATOM     23  H9  UNL     1      40.965  51.135   5.728  1.00  0.00     0.185 HD
HETATM   24  N11 UNL     1      41.143  53.420   7.914  1.00  0.00    -0.007 NA
HETATM   25  N12 UNL     1      39.961  53.609   7.357  1.00  0.00    -0.269 N 
ATOM     26  H12 UNL     1      39.308  54.346   7.623  1.00  0.00     0.185 HD
ENDBRANCH  16  20
ENDBRANCH  10  11
ENDBRANCH   8  10
ENDBRANCH   7   8
BRANCH   7  27
HETATM   27  O1  UNL     1      40.526  53.797   0.187  1.00  0.00    -0.344 OA
ATOM     28  H1  UNL     1      40.550  54.409  -0.539  1.00  0.00     0.219 HD
ENDBRANCH   7  27
ENDBRANCH   1   7
BRANCH   6  29
HETATM   29  N6  UNL     1      36.813  54.209  -0.356  1.00  0.00    -0.310 N 
HETATM   30  C9  UNL     1      36.843  53.807  -1.765  1.00  0.00     0.160 C 
HETATM   31  C10 UNL     1      36.863  52.288  -1.866  1.00  0.00     0.254 C 
HETATM   32  N7  UNL     1      35.629  51.796  -1.309  1.00  0.00    -0.052 N 
HETATM   33  C11 UNL     1      35.517  52.067   0.110  1.00  0.00     0.365 C 
ATOM     34  H72 UNL     1      34.825  52.162  -1.817  1.00  0.00     0.278 HD
ATOM     35  H71 UNL     1      35.507  50.803  -1.504  1.00  0.00     0.278 HD
HETATM   36  C13 UNL     1      35.922  53.455   0.471  1.00  0.00     0.264 C 
HETATM   37  O4  UNL     1      35.449  53.934   1.531  1.00  0.00    -0.270 OA
BRANCH  33  38
HETATM   38  C12 UNL     1      36.266  51.024   0.834  1.00  0.00     0.271 C 
HETATM   39  N8  UNL     1      35.631  49.795   1.114  1.00  0.00    -0.060 NA
HETATM   40  O3  UNL     1      37.438  51.192   1.209  1.00  0.00    -0.274 OA
ENDBRANCH  33  38
ENDBRANCH   6  29
BRANCH   5  41
HETATM   41  C7  UNL     1      35.872  57.103  -0.368  1.00  0.00     0.299 C 
BRANCH  41  42
HETATM   42  N5  UNL     1      34.783  56.924   0.608  1.00  0.00    -0.073 N 
ATOM     43  H53 UNL     1      34.784  55.992   1.022  1.00  0.00     0.274 HD
ATOM     44  H52 UNL     1      34.935  57.461   1.461  1.00  0.00     0.274 HD
ATOM     45  H51 UNL     1      33.892  57.148   0.164  1.00  0.00     0.274 HD
ENDBRANCH  41  42
ENDBRANCH   5  41
TORSDOF 11
ENDMDL
MODEL 2
REMARK VINA RESULT: -5.541003216      3.150      6.578
REMARK  11 active torsions:
REMARK  status: ('A' for Active; 'I' for Inactive)
REMARK    1  A    between atoms: N1_1  and  C1_4 
REMARK    2  A    between atoms: C2_7  and  C3_8 
REMARK    3  A    between atoms: C3_8  and  N3_9 
REMARK    4  A    between atoms: N3_9  and  C4_11 
REMARK    5  A    between atoms: C4_11  and  O1_12 
REMARK    6  A    between atoms: C4_11  and  C5_14 
REMARK    7  A    between atoms: C6_18  and  C7_19 
REMARK    8  A    between atoms: C7_19  and  N5_20 
REMARK    9  A    between atoms: C8_24  and  N6_25 
REMARK   10  A    between atoms: C11_31  and  C12_32 
REMARK   11  A    between atoms: C14_37  and  C15_38 
ROOT
HETATM    1  C5  UNL     1      38.930  53.428   1.878  1.00  0.00     0.134 A 
HETATM    2  N4  UNL     1      39.766  53.437   2.956  1.00  0.00    -0.254 N 
ATOM      3  H4  UNL     1      40.743  53.727   2.932  1.00  0.00     0.195 HD
HETATM    4  O2  UNL     1      39.150  53.028   4.006  1.00  0.00    -0.238 OA
HETATM    5  C6  UNL     1      37.907  52.722   3.739  1.00  0.00     0.131 A 
HETATM    6  C8  UNL     1      37.737  52.971   2.368  1.00  0.00     0.104 A 
ENDROOT
BRANCH   1   7
HETATM    7  C4  UNL     1      39.266  53.787   0.524  1.00  0.00     0.168 C 
BRANCH   7   8
HETATM    8  N3  UNL     1      38.442  54.136  -0.539  1.00  0.00    -0.363 N 
ATOM      9  H3  UNL     1      38.258  53.438  -1.260  1.00  0.00     0.162 HD
BRANCH   8  10
HETATM   10  C3  UNL     1      37.842  55.420  -0.670  1.00  0.00     0.180 C 
BRANCH  10  11
HETATM   11  C2  UNL     1      37.137  55.654  -1.993  1.00  0.00     0.050 A 
HETATM   12  N2  UNL     1      36.014  55.075  -2.344  1.00  0.00    -0.338 N 
HETATM   13  C1  UNL     1      35.508  55.337  -3.547  1.00  0.00     0.143 A 
ATOM     14  H2  UNL     1      35.538  54.437  -1.707  1.00  0.00     0.168 HD
HETATM   15  S1  UNL     1      36.625  56.423  -4.220  1.00  0.00    -0.049 SA
HETATM   16  C14 UNL     1      37.725  56.501  -2.900  1.00  0.00     0.078 A 
BRANCH  13  17
HETATM   17  N1  UNL     1      34.394  54.840  -4.052  1.00  0.00    -0.380 N 
ATOM     18  H12 UNL     1      33.421  55.048  -3.828  1.00  0.00     0.158 HD
ATOM     19  H11 UNL     1      34.325  54.133  -4.784  1.00  0.00     0.158 HD
ENDBRANCH  13  17
BRANCH  16  20
HETATM   20  C15 UNL     1      38.966  57.279  -2.790  1.00  0.00     0.150 A 
HETATM   21  N9  UNL     1      40.137  57.020  -3.377  1.00  0.00    -0.269 N 
HETATM   22  N10 UNL     1      40.976  57.987  -3.007  1.00  0.00    -0.007 NA
ATOM     23  H9  UNL     1      40.348  56.233  -3.991  1.00  0.00     0.185 HD
HETATM   24  N11 UNL     1      40.368  58.848  -2.205  1.00  0.00    -0.007 NA
HETATM   25  N12 UNL     1      39.134  58.394  -2.083  1.00  0.00    -0.269 N 
ATOM     26  H12 UNL     1      38.406  58.839  -1.524  1.00  0.00     0.185 HD
ENDBRANCH  16  20
ENDBRANCH  10  11
ENDBRANCH   8  10
ENDBRANCH   7   8
BRANCH   7  27
HETATM   27  O1  UNL     1      40.541  53.789   0.241  1.00  0.00    -0.344 OA
ATOM     28  H1  UNL     1      41.091  53.393   0.907  1.00  0.00     0.219 HD
ENDBRANCH   7  27
ENDBRANCH   1   7
BRANCH   6  29
HETATM   29  N6  UNL     1      36.502  52.717   1.756  1.00  0.00    -0.310 N 
HETATM   30  C9  UNL     1      35.308  53.555   1.899  1.00  0.00     0.160 C 
HETATM   31  C10 UNL     1      34.652  53.751   0.538  1.00  0.00     0.254 C 
HETATM   32  N7  UNL     1      34.214  52.460   0.075  1.00  0.00    -0.052 N 
HETATM   33  C11 UNL     1      35.319  51.559  -0.179  1.00  0.00     0.365 C 
ATOM     34  H72 UNL     1      33.543  52.045   0.721  1.00  0.00     0.278 HD
ATOM     35  H71 UNL     1      33.615  52.548  -0.747  1.00  0.00     0.278 HD
HETATM   36  C13 UNL     1      36.348  51.582   0.900  1.00  0.00     0.264 C 
HETATM   37  O4  UNL     1      37.072  50.564   1.025  1.00  0.00    -0.270 OA
BRANCH  33  38
HETATM   38  C12 UNL     1      35.858  51.863  -1.518  1.00  0.00     0.271 C 
HETATM   39  N8  UNL     1      34.964  51.996  -2.602  1.00  0.00    -0.060 NA
HETATM   40  O3  UNL     1      37.074  52.005  -1.723  1.00  0.00    -0.274 OA
ENDBRANCH  33  38
ENDBRANCH   6  29
BRANCH   5  41
HETATM   41  C7  UNL     1      36.925  52.222   4.728  1.00  0.00     0.299 C 
BRANCH  41  42
HETATM   42  N5  UNL     1      37.548  52.199   6.064  1.00  0.00    -0.073 N 
ATOM     43  H53 UNL     1      38.553  52.369   6.025  1.00  0.00     0.274 HD
ATOM     44  H52 UNL     1      37.286  53.009   6.626  1.00  0.00     0.274 HD
ATOM     45  H51 UNL     1      37.322  51.319   6.526  1.00  0.00     0.274 HD
ENDBRANCH  41  42
ENDBRANCH   5  41
TORSDOF 11
ENDMDL
MODEL 3
REMARK VINA RESULT: -5.498095234      9.372     11.614
REMARK  11 active torsions:
REMARK  status: ('A' for Active; 'I' for Inactive)
REMARK    1  A    between atoms: N1_1  and  C1_4 
REMARK    2  A    between atoms: C2_7  and  C3_8 
REMARK    3  A    between atoms: C3_8  and  N3_9 
REMARK    4  A    between atoms: N3_9  and  C4_11 
REMARK    5  A    between atoms: C4_11  and  O1_12 
REMARK    6  A    between atoms: C4_11  and  C5_14 
REMARK    7  A    between atoms: C6_18  and  C7_19 
REMARK    8  A    between atoms: C7_19  and  N5_20 
REMARK    9  A    between atoms: C8_24  and  N6_25 
REMARK   10  A    between atoms: C11_31  and  C12_32 
REMARK   11  A    between atoms: C14_37  and  C15_38 
ROOT
HETATM    1  C5  UNL     1      33.867  44.208   2.960  1.00  0.00     0.134 A 
HETATM    2  N4  UNL     1      34.770  45.224   2.845  1.00  0.00    -0.254 N 
ATOM      3  H4  UNL     1      35.664  45.266   3.334  1.00  0.00     0.195 HD
HETATM    4  O2  UNL     1      34.337  46.119   2.033  1.00  0.00    -0.238 OA
HETATM    5  C6  UNL     1      33.161  45.802   1.556  1.00  0.00     0.131 A 
HETATM    6  C8  UNL     1      32.832  44.568   2.140  1.00  0.00     0.104 A 
ENDROOT
BRANCH   1   7
HETATM    7  C4  UNL     1      33.982  43.043   3.800  1.00  0.00     0.168 C 
BRANCH   7   8
HETATM    8  N3  UNL     1      33.912  42.927   5.183  1.00  0.00    -0.363 N 
ATOM      9  H3  UNL     1      33.169  43.424   5.674  1.00  0.00     0.162 HD
BRANCH   8  10
HETATM   10  C3  UNL     1      34.826  42.149   5.947  1.00  0.00     0.180 C 
BRANCH  10  11
HETATM   11  C2  UNL     1      34.248  41.573   7.227  1.00  0.00     0.050 A 
HETATM   12  N2  UNL     1      33.409  40.567   7.270  1.00  0.00    -0.338 N 
HETATM   13  C1  UNL     1      32.945  40.172   8.454  1.00  0.00     0.143 A 
ATOM     14  H2  UNL     1      33.117  40.096   6.414  1.00  0.00     0.168 HD
HETATM   15  S1  UNL     1      33.696  41.229   9.548  1.00  0.00    -0.049 SA
HETATM   16  C14 UNL     1      34.598  42.161   8.417  1.00  0.00     0.078 A 
BRANCH  13  17
HETATM   17  N1  UNL     1      32.098  39.182   8.671  1.00  0.00    -0.380 N 
ATOM     18  H12 UNL     1      31.106  39.205   8.905  1.00  0.00     0.158 HD
ATOM     19  H11 UNL     1      32.312  38.186   8.636  1.00  0.00     0.158 HD
ENDBRANCH  13  17
BRANCH  16  20
HETATM   20  C15 UNL     1      35.502  43.288   8.678  1.00  0.00     0.150 A 
HETATM   21  N9  UNL     1      35.260  44.584   8.464  1.00  0.00    -0.269 N 
HETATM   22  N10 UNL     1      36.350  45.248   8.850  1.00  0.00    -0.007 NA
ATOM     23  H9  UNL     1      34.406  44.988   8.080  1.00  0.00     0.185 HD
HETATM   24  N11 UNL     1      37.270  44.409   9.301  1.00  0.00    -0.007 NA
HETATM   25  N12 UNL     1      36.729  43.209   9.186  1.00  0.00    -0.269 N 
ATOM     26  H12 UNL     1      37.190  42.339   9.451  1.00  0.00     0.185 HD
ENDBRANCH  16  20
ENDBRANCH  10  11
ENDBRANCH   8  10
ENDBRANCH   7   8
BRANCH   7  27
HETATM   27  O1  UNL     1      34.183  41.915   3.174  1.00  0.00    -0.344 OA
ATOM     28  H1  UNL     1      33.563  41.737   2.476  1.00  0.00     0.219 HD
ENDBRANCH   7  27
ENDBRANCH   1   7
BRANCH   6  29
HETATM   29  N6  UNL     1      31.605  43.958   1.847  1.00  0.00    -0.310 N 
HETATM   30  C9  UNL     1      30.344  44.236   2.540  1.00  0.00     0.160 C 
HETATM   31  C10 UNL     1      29.219  44.377   1.524  1.00  0.00     0.254 C 
HETATM   32  N7  UNL     1      29.069  43.108   0.859  1.00  0.00    -0.052 N 
HETATM   33  C11 UNL     1      30.232  42.756   0.070  1.00  0.00     0.365 C 
ATOM     34  H72 UNL     1      28.839  42.370   1.524  1.00  0.00     0.278 HD
ATOM     35  H71 UNL     1      28.221  43.087   0.293  1.00  0.00     0.278 HD
HETATM   36  C13 UNL     1      31.516  43.003   0.787  1.00  0.00     0.264 C 
HETATM   37  O4  UNL     1      32.516  42.338   0.419  1.00  0.00    -0.270 OA
BRANCH  33  38
HETATM   38  C12 UNL     1      30.133  43.453  -1.225  1.00  0.00     0.271 C 
HETATM   39  N8  UNL     1      28.960  43.304  -1.995  1.00  0.00    -0.060 NA
HETATM   40  O3  UNL     1      31.050  44.167  -1.663  1.00  0.00    -0.274 OA
ENDBRANCH  33  38
ENDBRANCH   6  29
BRANCH   5  41
HETATM   41  C7  UNL     1      32.387  46.618   0.594  1.00  0.00     0.299 C 
BRANCH  41  42
HETATM   42  N5  UNL     1      32.765  46.241  -0.779  1.00  0.00    -0.073 N 
ATOM     43  H53 UNL     1      32.465  46.933  -1.466  1.00  0.00     0.274 HD
ATOM     44  H52 UNL     1      33.770  46.309  -0.936  1.00  0.00     0.274 HD
ATOM     45  H51 UNL     1      32.404  45.310  -0.985  1.00  0.00     0.274 HD
ENDBRANCH  41  42
ENDBRANCH   5  41
TORSDOF 11
ENDMDL
MODEL 4
REMARK VINA RESULT: -5.486429016      8.307     11.275
REMARK  11 active torsions:
REMARK  status: ('A' for Active; 'I' for Inactive)
REMARK    1  A    between atoms: N1_1  and  C1_4 
REMARK    2  A    between atoms: C2_7  and  C3_8 
REMARK    3  A    between atoms: C3_8  and  N3_9 
REMARK    4  A    between atoms: N3_9  and  C4_11 
REMARK    5  A    between atoms: C4_11  and  O1_12 
REMARK    6  A    between atoms: C4_11  and  C5_14 
REMARK    7  A    between atoms: C6_18  and  C7_19 
REMARK    8  A    between atoms: C7_19  and  N5_20 
REMARK    9  A    between atoms: C8_24  and  N6_25 
REMARK   10  A    between atoms: C11_31  and  C12_32 
REMARK   11  A    between atoms: C14_37  and  C15_38 
ROOT
HETATM    1  C5  UNL     1      31.313  42.958   1.353  1.00  0.00     0.134 A 
HETATM    2  N4  UNL     1      30.624  42.031   0.627  1.00  0.00    -0.254 N 
ATOM      3  H4  UNL     1      30.593  41.034   0.837  1.00  0.00     0.195 HD
HETATM    4  O2  UNL     1      30.021  42.590  -0.358  1.00  0.00    -0.238 OA
HETATM    5  C6  UNL     1      30.241  43.879  -0.382  1.00  0.00     0.131 A 
HETATM    6  C8  UNL     1      31.075  44.145   0.715  1.00  0.00     0.104 A 
ENDROOT
BRANCH   1   7
HETATM    7  C4  UNL     1      32.136  42.710   2.510  1.00  0.00     0.168 C 
BRANCH   7   8
HETATM    8  N3  UNL     1      33.438  43.110   2.783  1.00  0.00    -0.363 N 
ATOM      9  H3  UNL     1      33.946  43.629   2.067  1.00  0.00     0.162 HD
BRANCH   8  10
HETATM   10  C3  UNL     1      34.098  42.829   4.013  1.00  0.00     0.180 C 
BRANCH  10  11
HETATM   11  C2  UNL     1      34.037  43.952   5.031  1.00  0.00     0.050 A 
HETATM   12  N2  UNL     1      34.006  45.226   4.724  1.00  0.00    -0.338 N 
HETATM   13  C1  UNL     1      33.986  46.121   5.709  1.00  0.00     0.143 A 
ATOM     14  H2  UNL     1      33.998  45.526   3.749  1.00  0.00     0.168 HD
HETATM   15  S1  UNL     1      34.011  45.168   7.112  1.00  0.00    -0.049 SA
HETATM   16  C14 UNL     1      34.047  43.619   6.363  1.00  0.00     0.078 A 
BRANCH  13  17
HETATM   17  N1  UNL     1      33.955  47.434   5.573  1.00  0.00    -0.380 N 
ATOM     18  H12 UNL     1      33.532  48.147   6.166  1.00  0.00     0.158 HD
ATOM     19  H11 UNL     1      34.372  47.973   4.814  1.00  0.00     0.158 HD
ENDBRANCH  13  17
BRANCH  16  20
HETATM   20  C15 UNL     1      34.080  42.297   7.000  1.00  0.00     0.150 A 
HETATM   21  N9  UNL     1      33.048  41.479   7.219  1.00  0.00    -0.269 N 
HETATM   22  N10 UNL     1      33.537  40.389   7.811  1.00  0.00    -0.007 NA
ATOM     23  H9  UNL     1      32.072  41.656   6.980  1.00  0.00     0.185 HD
HETATM   24  N11 UNL     1      34.848  40.497   7.970  1.00  0.00    -0.007 NA
HETATM   25  N12 UNL     1      35.162  41.677   7.465  1.00  0.00    -0.269 N 
ATOM     26  H12 UNL     1      36.106  42.060   7.436  1.00  0.00     0.185 HD
ENDBRANCH  16  20
ENDBRANCH  10  11
ENDBRANCH   8  10
ENDBRANCH   7   8
BRANCH   7  27
HETATM   27  O1  UNL     1      31.580  42.002   3.455  1.00  0.00    -0.344 OA
ATOM     28  H1  UNL     1      31.702  42.350   4.331  1.00  0.00     0.219 HD
ENDBRANCH   7  27
ENDBRANCH   1   7
BRANCH   6  29
HETATM   29  N6  UNL     1      31.519  45.452   0.959  1.00  0.00    -0.310 N 
HETATM   30  C9  UNL     1      30.821  46.432   1.794  1.00  0.00     0.160 C 
HETATM   31  C10 UNL     1      31.820  47.144   2.697  1.00  0.00     0.254 C 
HETATM   32  N7  UNL     1      32.730  47.874   1.852  1.00  0.00    -0.052 N 
HETATM   33  C11 UNL     1      33.539  47.001   1.027  1.00  0.00     0.365 C 
ATOM     34  H72 UNL     1      32.233  48.560   1.285  1.00  0.00     0.278 HD
ATOM     35  H71 UNL     1      33.312  48.507   2.400  1.00  0.00     0.278 HD
HETATM   36  C13 UNL     1      32.752  45.905   0.393  1.00  0.00     0.264 C 
HETATM   37  O4  UNL     1      33.217  45.398  -0.657  1.00  0.00    -0.270 OA
BRANCH  33  38
HETATM   38  C12 UNL     1      34.671  46.523   1.842  1.00  0.00     0.271 C 
HETATM   39  N8  UNL     1      35.375  47.446   2.645  1.00  0.00    -0.060 NA
HETATM   40  O3  UNL     1      35.027  45.334   1.844  1.00  0.00    -0.274 OA
ENDBRANCH  33  38
ENDBRANCH   6  29
BRANCH   5  41
HETATM   41  C7  UNL     1      29.689  44.816  -1.387  1.00  0.00     0.299 C 
BRANCH  41  42
HETATM   42  N5  UNL     1      30.674  45.009  -2.466  1.00  0.00    -0.073 N 
ATOM     43  H53 UNL     1      30.411  45.765  -3.098  1.00  0.00     0.274 HD
ATOM     44  H52 UNL     1      31.549  45.405  -2.123  1.00  0.00     0.274 HD
ATOM     45  H51 UNL     1      30.816  44.126  -2.955  1.00  0.00     0.274 HD
ENDBRANCH  41  42
ENDBRANCH   5  41
TORSDOF 11
ENDMDL
MODEL 5
REMARK VINA RESULT: -5.457879319      3.012      5.911
REMARK  11 active torsions:
REMARK  status: ('A' for Active; 'I' for Inactive)
REMARK    1  A    between atoms: N1_1  and  C1_4 
REMARK    2  A    between atoms: C2_7  and  C3_8 
REMARK    3  A    between atoms: C3_8  and  N3_9 
REMARK    4  A    between atoms: N3_9  and  C4_11 
REMARK    5  A    between atoms: C4_11  and  O1_12 
REMARK    6  A    between atoms: C4_11  and  C5_14 
REMARK    7  A    between atoms: C6_18  and  C7_19 
REMARK    8  A    between atoms: C7_19  and  N5_20 
REMARK    9  A    between atoms: C8_24  and  N6_25 
REMARK   10  A    between atoms: C11_31  and  C12_32 
REMARK   11  A    between atoms: C14_37  and  C15_38 
ROOT
HETATM    1  C5  UNL     1      38.852  52.717   2.607  1.00  0.00     0.134 A 
HETATM    2  N4  UNL     1      39.369  52.473   3.846  1.00  0.00    -0.254 N 
ATOM      3  H4  UNL     1      40.359  52.525   4.083  1.00  0.00     0.195 HD
HETATM    4  O2  UNL     1      38.433  52.170   4.671  1.00  0.00    -0.238 OA
HETATM    5  C6  UNL     1      37.263  52.179   4.088  1.00  0.00     0.131 A 
HETATM    6  C8  UNL     1      37.503  52.530   2.751  1.00  0.00     0.104 A 
ENDROOT
BRANCH   1   7
HETATM    7  C4  UNL     1      39.589  53.054   1.416  1.00  0.00     0.168 C 
BRANCH   7   8
HETATM    8  N3  UNL     1      39.275  53.935   0.390  1.00  0.00    -0.363 N 
ATOM      9  H3  UNL     1      39.436  53.637  -0.573  1.00  0.00     0.162 HD
BRANCH   8  10
HETATM   10  C3  UNL     1      38.739  55.235   0.615  1.00  0.00     0.180 C 
BRANCH  10  11
HETATM   11  C2  UNL     1      38.200  55.919  -0.627  1.00  0.00     0.050 A 
HETATM   12  N2  UNL     1      37.851  55.290  -1.723  1.00  0.00    -0.338 N 
HETATM   13  C1  UNL     1      37.422  56.004  -2.761  1.00  0.00     0.143 A 
ATOM     14  H2  UNL     1      37.907  54.273  -1.779  1.00  0.00     0.168 HD
HETATM   15  S1  UNL     1      37.503  57.605  -2.203  1.00  0.00    -0.049 SA
HETATM   16  C14 UNL     1      38.100  57.288  -0.621  1.00  0.00     0.078 A 
BRANCH  13  17
HETATM   17  N1  UNL     1      37.035  55.529  -3.931  1.00  0.00    -0.380 N 
ATOM     18  H12 UNL     1      37.578  55.096  -4.677  1.00  0.00     0.158 HD
ATOM     19  H11 UNL     1      36.081  55.518  -4.293  1.00  0.00     0.158 HD
ENDBRANCH  13  17
BRANCH  16  20
HETATM   20  C15 UNL     1      38.415  58.248   0.445  1.00  0.00     0.150 A 
HETATM   21  N9  UNL     1      39.563  58.904   0.629  1.00  0.00    -0.269 N 
HETATM   22  N10 UNL     1      39.401  59.671   1.707  1.00  0.00    -0.007 NA
ATOM     23  H9  UNL     1      40.402  58.833   0.054  1.00  0.00     0.185 HD
HETATM   24  N11 UNL     1      38.184  59.516   2.208  1.00  0.00    -0.007 NA
HETATM   25  N12 UNL     1      37.594  58.637   1.418  1.00  0.00    -0.269 N 
ATOM     26  H12 UNL     1      36.639  58.302   1.537  1.00  0.00     0.185 HD
ENDBRANCH  16  20
ENDBRANCH  10  11
ENDBRANCH   8  10
ENDBRANCH   7   8
BRANCH   7  27
HETATM   27  O1  UNL     1      40.734  52.443   1.270  1.00  0.00    -0.344 OA
ATOM     28  H1  UNL     1      41.494  52.980   1.464  1.00  0.00     0.219 HD
ENDBRANCH   7  27
ENDBRANCH   1   7
BRANCH   6  29
HETATM   29  N6  UNL     1      36.439  52.607   1.842  1.00  0.00    -0.310 N 
HETATM   30  C9  UNL     1      35.413  53.652   1.840  1.00  0.00     0.160 C 
HETATM   31  C10 UNL     1      35.167  54.130   0.415  1.00  0.00     0.254 C 
HETATM   32  N7  UNL     1      34.643  53.016  -0.334  1.00  0.00    -0.052 N 
HETATM   33  C11 UNL     1      35.603  51.940  -0.469  1.00  0.00     0.365 C 
ATOM     34  H72 UNL     1      33.770  52.680   0.069  1.00  0.00     0.278 HD
ATOM     35  H71 UNL     1      34.297  53.316  -1.246  1.00  0.00     0.278 HD
HETATM   36  C13 UNL     1      36.313  51.631   0.805  1.00  0.00     0.264 C 
HETATM   37  O4  UNL     1      36.794  50.477   0.929  1.00  0.00    -0.270 OA
BRANCH  33  38
HETATM   38  C12 UNL     1      36.508  52.272  -1.585  1.00  0.00     0.271 C 
HETATM   39  N8  UNL     1      35.955  52.696  -2.812  1.00  0.00    -0.060 NA
HETATM   40  O3  UNL     1      37.743  52.191  -1.481  1.00  0.00    -0.274 OA
ENDBRANCH  33  38
ENDBRANCH   6  29
BRANCH   5  41
HETATM   41  C7  UNL     1      35.978  51.877   4.760  1.00  0.00     0.299 C 
BRANCH  41  42
HETATM   42  N5  UNL     1      36.247  51.254   6.068  1.00  0.00    -0.073 N 
ATOM     43  H53 UNL     1      37.118  50.724   6.072  1.00  0.00     0.274 HD
ATOM     44  H52 UNL     1      36.493  51.941   6.780  1.00  0.00     0.274 HD
ATOM     45  H51 UNL     1      35.447  50.685   6.341  1.00  0.00     0.274 HD
ENDBRANCH  41  42
ENDBRANCH   5  41
TORSDOF 11
ENDMDL
