MODEL 1
REMARK VINA RESULT: -6.148285983      0.000      0.000
REMARK  5 active torsions:
REMARK  status: ('A' for Active; 'I' for Inactive)
REMARK    1  A    between atoms: C2_2  and  C3_3 
REMARK    2  A    between atoms: C4_4  and  C5_5 
REMARK    3  A    between atoms: C7_7  and  N1_8 
REMARK    4  A    between atoms: C7_7  and  C8_12 
REMARK    5  A    between atoms: C8_12  and  C10_15 
ROOT
HETATM    1  C8  UNL     1      16.112  48.029  70.396  1.00  0.00     0.167 C 
HETATM    2  C9  UNL     1      16.305  46.704  71.038  1.00  0.00     0.071 C 
HETATM    3  N2  UNL     1      16.450  45.671  71.536  1.00  0.00    -0.196 NA
ENDROOT
BRANCH   1   4
HETATM    4  C7  UNL     1      14.665  48.237  70.145  1.00  0.00     0.159 A 
HETATM    5  C5  UNL     1      14.088  48.981  69.043  1.00  0.00     0.105 A 
HETATM    6  C6  UNL     1      14.120  49.607  70.451  1.00  0.00     0.061 A 
BRANCH   5   7
HETATM    7  C4  UNL     1      14.875  49.612  67.987  1.00  0.00    -0.099 C 
HETATM    8  C3  UNL     1      15.518  50.106  67.116  1.00  0.00    -0.106 C 
BRANCH   8   9
HETATM    9  C2  UNL     1      16.334  50.725  66.052  1.00  0.00     0.089 C 
HETATM   10  C1  UNL     1      15.905  52.176  65.940  1.00  0.00     0.018 C 
ENDBRANCH   8   9
ENDBRANCH   5   7
BRANCH   4  11
HETATM   11  N1  UNL     1      13.825  47.157  70.697  1.00  0.00    -0.067 N 
ATOM     12  H13 UNL     1      13.325  46.684  69.944  1.00  0.00     0.275 HD
ATOM     13  H12 UNL     1      14.414  46.395  71.031  1.00  0.00     0.275 HD
ATOM     14  H11 UNL     1      13.170  47.436  71.427  1.00  0.00     0.275 HD
ENDBRANCH   4  11
ENDBRANCH   1   4
BRANCH   1  15
HETATM   15  C10 UNL     1      16.794  49.013  71.222  1.00  0.00     0.074 C 
HETATM   16  N3  UNL     1      17.238  48.710  72.374  1.00  0.00    -0.410 N 
ATOM     17  H32 UNL     1      17.105  47.756  72.709  1.00  0.00     0.155 HD
ATOM     18  H31 UNL     1      17.717  49.399  72.953  1.00  0.00     0.155 HD
ENDBRANCH   1  15
TORSDOF 5
ENDMDL
MODEL 2
REMARK VINA RESULT: -6.140367340      1.146      1.254
REMARK  5 active torsions:
REMARK  status: ('A' for Active; 'I' for Inactive)
REMARK    1  A    between atoms: C2_2  and  C3_3 
REMARK    2  A    between atoms: C4_4  and  C5_5 
REMARK    3  A    between atoms: C7_7  and  N1_8 
REMARK    4  A    between atoms: C7_7  and  C8_12 
REMARK    5  A    between atoms: C8_12  and  C10_15 
ROOT
HETATM    1  C8  UNL     1      16.568  48.385  70.558  1.00  0.00     0.167 C 
HETATM    2  C9  UNL     1      17.403  47.158  70.546  1.00  0.00     0.071 C 
HETATM    3  N2  UNL     1      18.051  46.199  70.533  1.00  0.00    -0.196 NA
ENDROOT
BRANCH   1   4
HETATM    4  C7  UNL     1      15.201  48.043  70.095  1.00  0.00     0.159 A 
HETATM    5  C5  UNL     1      14.350  48.867  69.261  1.00  0.00     0.105 A 
HETATM    6  C6  UNL     1      14.063  48.760  70.771  1.00  0.00     0.061 A 
BRANCH   5   7
HETATM    7  C4  UNL     1      14.750  50.164  68.722  1.00  0.00    -0.099 C 
HETATM    8  C3  UNL     1      15.058  51.222  68.272  1.00  0.00    -0.106 C 
BRANCH   8   9
HETATM    9  C2  UNL     1      15.459  52.524  67.702  1.00  0.00     0.089 C 
HETATM   10  C1  UNL     1      15.800  52.293  66.242  1.00  0.00     0.018 C 
ENDBRANCH   8   9
ENDBRANCH   5   7
BRANCH   4  11
HETATM   11  N1  UNL     1      14.975  46.587  69.998  1.00  0.00    -0.067 N 
ATOM     12  H13 UNL     1      14.966  46.173  70.930  1.00  0.00     0.275 HD
ATOM     13  H12 UNL     1      14.015  46.403  69.708  1.00  0.00     0.275 HD
ATOM     14  H11 UNL     1      15.623  46.078  69.398  1.00  0.00     0.275 HD
ENDBRANCH   4  11
ENDBRANCH   1   4
BRANCH   1  15
HETATM   15  C10 UNL     1      16.695  48.981  71.878  1.00  0.00     0.074 C 
HETATM   16  N3  UNL     1      17.600  48.603  72.686  1.00  0.00    -0.410 N 
ATOM     17  H32 UNL     1      18.240  47.867  72.388  1.00  0.00     0.155 HD
ATOM     18  H31 UNL     1      17.690  49.022  73.612  1.00  0.00     0.155 HD
ENDBRANCH   1  15
TORSDOF 5
ENDMDL
MODEL 3
REMARK VINA RESULT: -5.765441787      2.631      3.449
REMARK  5 active torsions:
REMARK  status: ('A' for Active; 'I' for Inactive)
REMARK    1  A    between atoms: C2_2  and  C3_3 
REMARK    2  A    between atoms: C4_4  and  C5_5 
REMARK    3  A    between atoms: C7_7  and  N1_8 
REMARK    4  A    between atoms: C7_7  and  C8_12 
REMARK    5  A    between atoms: C8_12  and  C10_15 
ROOT
HETATM    1  C8  UNL     1      17.774  46.929  69.378  1.00  0.00     0.167 C 
HETATM    2  C9  UNL     1      18.669  45.871  69.914  1.00  0.00     0.071 C 
HETATM    3  N2  UNL     1      19.369  45.048  70.326  1.00  0.00    -0.196 NA
ENDROOT
BRANCH   1   4
HETATM    4  C7  UNL     1      17.849  46.919  67.897  1.00  0.00     0.159 A 
HETATM    5  C5  UNL     1      17.149  47.817  67.000  1.00  0.00     0.105 A 
HETATM    6  C6  UNL     1      16.653  46.367  67.168  1.00  0.00     0.061 A 
BRANCH   5   7
HETATM    7  C4  UNL     1      16.282  48.902  67.450  1.00  0.00    -0.099 C 
HETATM    8  C3  UNL     1      15.592  49.796  67.825  1.00  0.00    -0.106 C 
BRANCH   8   9
HETATM    9  C2  UNL     1      14.724  50.891  68.305  1.00  0.00     0.089 C 
HETATM   10  C1  UNL     1      15.419  52.197  67.974  1.00  0.00     0.018 C 
ENDBRANCH   8   9
ENDBRANCH   5   7
BRANCH   4  11
HETATM   11  N1  UNL     1      19.123  46.373  67.389  1.00  0.00    -0.067 N 
ATOM     12  H13 UNL     1      19.738  47.133  67.100  1.00  0.00     0.275 HD
ATOM     13  H12 UNL     1      19.666  45.984  68.160  1.00  0.00     0.275 HD
ATOM     14  H11 UNL     1      19.043  45.687  66.640  1.00  0.00     0.275 HD
ENDBRANCH   4  11
ENDBRANCH   1   4
BRANCH   1  15
HETATM   15  C10 UNL     1      16.466  46.733  69.982  1.00  0.00     0.074 C 
HETATM   16  N3  UNL     1      16.314  45.978  70.992  1.00  0.00    -0.410 N 
ATOM     17  H32 UNL     1      17.135  45.508  71.374  1.00  0.00     0.155 HD
ATOM     18  H31 UNL     1      15.396  45.841  71.416  1.00  0.00     0.155 HD
ENDBRANCH   1  15
TORSDOF 5
ENDMDL
MODEL 4
REMARK VINA RESULT: -5.619848373      1.424      1.522
REMARK  5 active torsions:
REMARK  status: ('A' for Active; 'I' for Inactive)
REMARK    1  A    between atoms: C2_2  and  C3_3 
REMARK    2  A    between atoms: C4_4  and  C5_5 
REMARK    3  A    between atoms: C7_7  and  N1_8 
REMARK    4  A    between atoms: C7_7  and  C8_12 
REMARK    5  A    between atoms: C8_12  and  C10_15 
ROOT
HETATM    1  C8  UNL     1      16.120  47.736  69.357  1.00  0.00     0.167 C 
HETATM    2  C9  UNL     1      16.599  46.622  70.214  1.00  0.00     0.071 C 
HETATM    3  N2  UNL     1      16.968  45.753  70.882  1.00  0.00    -0.196 NA
ENDROOT
BRANCH   1   4
HETATM    4  C7  UNL     1      14.769  48.146  69.811  1.00  0.00     0.159 A 
HETATM    5  C5  UNL     1      14.035  49.313  69.364  1.00  0.00     0.105 A 
HETATM    6  C6  UNL     1      14.704  49.319  70.752  1.00  0.00     0.061 A 
BRANCH   5   7
HETATM    7  C4  UNL     1      14.528  50.245  68.354  1.00  0.00    -0.099 C 
HETATM    8  C3  UNL     1      14.918  51.021  67.541  1.00  0.00    -0.106 C 
BRANCH   8   9
HETATM    9  C2  UNL     1      15.391  51.972  66.514  1.00  0.00     0.089 C 
HETATM   10  C1  UNL     1      16.470  51.270  65.711  1.00  0.00     0.018 C 
ENDBRANCH   8   9
ENDBRANCH   5   7
BRANCH   4  11
HETATM   11  N1  UNL     1      13.945  47.008  70.266  1.00  0.00    -0.067 N 
ATOM     12  H13 UNL     1      14.101  46.842  71.260  1.00  0.00     0.275 HD
ATOM     13  H12 UNL     1      12.961  47.274  70.278  1.00  0.00     0.275 HD
ATOM     14  H11 UNL     1      14.065  46.140  69.745  1.00  0.00     0.275 HD
ENDBRANCH   4  11
ENDBRANCH   1   4
BRANCH   1  15
HETATM   15  C10 UNL     1      17.159  48.753  69.350  1.00  0.00     0.074 C 
HETATM   16  N3  UNL     1      17.898  48.931  68.332  1.00  0.00    -0.410 N 
ATOM     17  H32 UNL     1      17.746  48.342  67.513  1.00  0.00     0.155 HD
ATOM     18  H31 UNL     1      18.627  49.645  68.327  1.00  0.00     0.155 HD
ENDBRANCH   1  15
TORSDOF 5
ENDMDL
MODEL 5
REMARK VINA RESULT: -5.617276024      1.748      2.861
REMARK  5 active torsions:
REMARK  status: ('A' for Active; 'I' for Inactive)
REMARK    1  A    between atoms: C2_2  and  C3_3 
REMARK    2  A    between atoms: C4_4  and  C5_5 
REMARK    3  A    between atoms: C7_7  and  N1_8 
REMARK    4  A    between atoms: C7_7  and  C8_12 
REMARK    5  A    between atoms: C8_12  and  C10_15 
ROOT
HETATM    1  C8  UNL     1      16.070  47.880  69.790  1.00  0.00     0.167 C 
HETATM    2  C9  UNL     1      16.589  47.849  71.181  1.00  0.00     0.071 C 
HETATM    3  N2  UNL     1      16.999  47.824  72.262  1.00  0.00    -0.196 NA
ENDROOT
BRANCH   1   4
HETATM    4  C7  UNL     1      17.073  47.265  68.887  1.00  0.00     0.159 A 
HETATM    5  C5  UNL     1      17.490  47.778  67.597  1.00  0.00     0.105 A 
HETATM    6  C6  UNL     1      16.538  46.568  67.664  1.00  0.00     0.061 A 
BRANCH   5   7
HETATM    7  C4  UNL     1      16.990  49.021  67.017  1.00  0.00    -0.099 C 
HETATM    8  C3  UNL     1      16.584  50.044  66.563  1.00  0.00    -0.106 C 
BRANCH   8   9
HETATM    9  C2  UNL     1      16.059  51.302  65.995  1.00  0.00     0.089 C 
HETATM   10  C1  UNL     1      15.154  51.926  67.040  1.00  0.00     0.018 C 
ENDBRANCH   8   9
ENDBRANCH   5   7
BRANCH   4  11
HETATM   11  N1  UNL     1      18.075  46.455  69.608  1.00  0.00    -0.067 N 
ATOM     12  H13 UNL     1      17.871  46.456  70.607  1.00  0.00     0.275 HD
ATOM     13  H12 UNL     1      17.940  45.467  69.396  1.00  0.00     0.275 HD
ATOM     14  H11 UNL     1      19.048  46.715  69.452  1.00  0.00     0.275 HD
ENDBRANCH   4  11
ENDBRANCH   1   4
BRANCH   1  15
HETATM   15  C10 UNL     1      14.741  47.290  69.812  1.00  0.00     0.074 C 
HETATM   16  N3  UNL     1      14.090  47.176  70.897  1.00  0.00    -0.410 N 
ATOM     17  H32 UNL     1      14.522  47.509  71.759  1.00  0.00     0.155 HD
ATOM     18  H31 UNL     1      13.157  46.763  70.913  1.00  0.00     0.155 HD
ENDBRANCH   1  15
TORSDOF 5
ENDMDL
