MODEL 1
REMARK VINA RESULT: -9.093383900      0.000      0.000
REMARK  7 active torsions:
REMARK  status: ('A' for Active; 'I' for Inactive)
REMARK    1  A    between atoms: C2_2  and  N1_3 
REMARK    2  A    between atoms: C5_9  and  N2_10 
REMARK    3  A    between atoms: N2_10  and  C6_12 
REMARK    4  A    between atoms: C8_14  and  C9_15 
REMARK    5  A    between atoms: N3_17  and  C11_18 
REMARK    6  A    between atoms: C11_18  and  O1_19 
REMARK    7  A    between atoms: C11_18  and  C12_21 
ROOT
HETATM    1  C6  UNL     1     -74.805  37.483 129.433  1.00  0.00     0.101 A 
HETATM    2  C7  UNL     1     -75.231  38.707 129.935  1.00  0.00     0.059 A 
HETATM    3  C8  UNL     1     -76.519  39.132 129.991  1.00  0.00    -0.001 A 
HETATM    4  C17 UNL     1     -77.469  38.217 129.483  1.00  0.00     0.058 A 
HETATM    5 CL1  UNL     1     -79.113  38.731 129.503  1.00  0.00    -0.082 Cl
HETATM    6  C18 UNL     1     -77.101  37.000 128.976  1.00  0.00     0.114 A 
HETATM    7  N4  UNL     1     -75.807  36.643 128.951  1.00  0.00    -0.351 N 
ATOM      8  H4  UNL     1     -75.550  35.733 128.568  1.00  0.00     0.166 HD
ENDROOT
BRANCH   1   9
HETATM    9  N2  UNL     1     -73.683  36.974 129.408  1.00  0.00    -0.372 N 
ATOM     10  H2  UNL     1     -73.017  37.620 129.833  1.00  0.00     0.161 HD
BRANCH   9  11
HETATM   11  C5  UNL     1     -73.010  35.842 129.009  1.00  0.00     0.083 C 
HETATM   12  C4  UNL     1     -73.651  34.522 129.396  1.00  0.00     0.027 C 
HETATM   13  C3  UNL     1     -72.898  33.478 128.602  1.00  0.00     0.040 C 
HETATM   14  C2  UNL     1     -71.572  33.288 129.316  1.00  0.00     0.120 C 
HETATM   15  C1  UNL     1     -71.816  32.216 130.360  1.00  0.00     0.046 C 
HETATM   16  C20 UNL     1     -71.084  34.502 130.009  1.00  0.00     0.040 C 
HETATM   17  C19 UNL     1     -71.592  35.817 129.575  1.00  0.00     0.027 C 
BRANCH  14  18
HETATM   18  N1  UNL     1     -70.629  32.722 128.354  1.00  0.00    -0.071 N 
ATOM     19  H13 UNL     1     -70.204  31.850 128.669  1.00  0.00     0.275 HD
ATOM     20  H12 UNL     1     -71.079  32.348 127.518  1.00  0.00     0.275 HD
ATOM     21  H11 UNL     1     -69.947  33.454 128.152  1.00  0.00     0.275 HD
ENDBRANCH  14  18
ENDBRANCH   9  11
ENDBRANCH   1   9
BRANCH   3  22
HETATM   22  C9  UNL     1     -76.998  40.307 130.604  1.00  0.00     0.173 C 
HETATM   23  C10 UNL     1     -77.107  41.645 129.991  1.00  0.00     0.156 C 
HETATM   24  N3  UNL     1     -77.312  42.596 131.061  1.00  0.00    -0.380 N 
HETATM   25  C15 UNL     1     -76.204  42.806 131.872  1.00  0.00     0.145 C 
HETATM   26  C16 UNL     1     -75.257  41.609 131.533  1.00  0.00     0.188 C 
HETATM   27  O2  UNL     1     -76.036  40.492 131.709  1.00  0.00    -0.378 OA
BRANCH  24  28
HETATM   28  C11 UNL     1     -78.472  43.306 131.045  1.00  0.00     0.255 C 
BRANCH  28  29
HETATM   29  O1  UNL     1     -78.924  43.638 129.720  1.00  0.00    -0.374 OA
ATOM     30  H1  UNL     1     -78.995  42.886 129.144  1.00  0.00     0.212 HD
ENDBRANCH  28  29
BRANCH  28  31
HETATM   31  C12 UNL     1     -79.703  42.667 131.682  1.00  0.00     0.139 C 
HETATM   32  C13 UNL     1     -80.514  43.687 132.420  1.00  0.00     0.056 C 
HETATM   33  C14 UNL     1     -80.499  41.894 130.707  1.00  0.00     0.056 C 
HETATM   34  F1  UNL     1     -79.159  41.790 132.637  1.00  0.00    -0.239 F 
ENDBRANCH  28  31
ENDBRANCH  24  28
ENDBRANCH   3  22
TORSDOF 7
ENDMDL
MODEL 2
REMARK VINA RESULT: -8.974764642      3.292      5.129
REMARK  7 active torsions:
REMARK  status: ('A' for Active; 'I' for Inactive)
REMARK    1  A    between atoms: C2_2  and  N1_3 
REMARK    2  A    between atoms: C5_9  and  N2_10 
REMARK    3  A    between atoms: N2_10  and  C6_12 
REMARK    4  A    between atoms: C8_14  and  C9_15 
REMARK    5  A    between atoms: N3_17  and  C11_18 
REMARK    6  A    between atoms: C11_18  and  O1_19 
REMARK    7  A    between atoms: C11_18  and  C12_21 
ROOT
HETATM    1  C6  UNL     1     -76.114  35.965 128.409  1.00  0.00     0.101 A 
HETATM    2  C7  UNL     1     -76.843  37.033 128.919  1.00  0.00     0.059 A 
HETATM    3  C8  UNL     1     -76.316  38.154 129.473  1.00  0.00    -0.001 A 
HETATM    4  C17 UNL     1     -74.904  38.191 129.511  1.00  0.00     0.058 A 
HETATM    5 CL1  UNL     1     -74.194  39.583 130.238  1.00  0.00    -0.082 Cl
HETATM    6  C18 UNL     1     -74.141  37.165 129.024  1.00  0.00     0.114 A 
HETATM    7  N4  UNL     1     -74.728  36.082 128.490  1.00  0.00    -0.351 N 
ATOM      8  H4  UNL     1     -74.144  35.326 128.133  1.00  0.00     0.166 HD
ENDROOT
BRANCH   1   9
HETATM    9  N2  UNL     1     -76.488  34.947 127.823  1.00  0.00    -0.372 N 
ATOM     10  H2  UNL     1     -76.431  34.156 128.465  1.00  0.00     0.161 HD
BRANCH   9  11
HETATM   11  C5  UNL     1     -76.955  34.500 126.608  1.00  0.00     0.083 C 
HETATM   12  C4  UNL     1     -76.647  35.386 125.415  1.00  0.00     0.027 C 
HETATM   13  C3  UNL     1     -76.993  34.545 124.208  1.00  0.00     0.040 C 
HETATM   14  C2  UNL     1     -78.508  34.568 124.104  1.00  0.00     0.120 C 
HETATM   15  C1  UNL     1     -78.845  35.785 123.265  1.00  0.00     0.046 C 
HETATM   16  C20 UNL     1     -79.196  34.703 125.408  1.00  0.00     0.040 C 
HETATM   17  C19 UNL     1     -78.471  34.321 126.634  1.00  0.00     0.027 C 
BRANCH  14  18
HETATM   18  N1  UNL     1     -78.915  33.400 123.325  1.00  0.00    -0.071 N 
ATOM     19  H13 UNL     1     -79.635  33.609 122.633  1.00  0.00     0.275 HD
ATOM     20  H12 UNL     1     -78.200  33.081 122.671  1.00  0.00     0.275 HD
ATOM     21  H11 UNL     1     -79.195  32.687 123.997  1.00  0.00     0.275 HD
ENDBRANCH  14  18
ENDBRANCH   9  11
ENDBRANCH   1   9
BRANCH   3  22
HETATM   22  C9  UNL     1     -77.017  39.306 129.883  1.00  0.00     0.173 C 
HETATM   23  C10 UNL     1     -77.673  39.526 131.187  1.00  0.00     0.156 C 
HETATM   24  N3  UNL     1     -78.544  40.672 131.046  1.00  0.00    -0.380 N 
HETATM   25  C15 UNL     1     -79.667  40.455 130.258  1.00  0.00     0.145 C 
HETATM   26  C16 UNL     1     -79.343  39.128 129.498  1.00  0.00     0.188 C 
HETATM   27  O2  UNL     1     -78.124  39.357 128.908  1.00  0.00    -0.378 OA
BRANCH  24  28
HETATM   28  C11 UNL     1     -78.279  41.751 131.830  1.00  0.00     0.255 C 
BRANCH  28  29
HETATM   29  O1  UNL     1     -78.220  41.441 133.233  1.00  0.00    -0.374 OA
ATOM     30  H1  UNL     1     -77.343  41.490 133.596  1.00  0.00     0.212 HD
ENDBRANCH  28  29
BRANCH  28  31
HETATM   31  C12 UNL     1     -76.974  42.503 131.584  1.00  0.00     0.139 C 
HETATM   32  C13 UNL     1     -76.807  42.827 130.132  1.00  0.00     0.056 C 
HETATM   33  C14 UNL     1     -76.839  43.688 132.457  1.00  0.00     0.056 C 
HETATM   34  F1  UNL     1     -75.986  41.563 131.923  1.00  0.00    -0.239 F 
ENDBRANCH  28  31
ENDBRANCH  24  28
ENDBRANCH   3  22
TORSDOF 7
ENDMDL
MODEL 3
REMARK VINA RESULT: -8.922579957      0.818      1.288
REMARK  7 active torsions:
REMARK  status: ('A' for Active; 'I' for Inactive)
REMARK    1  A    between atoms: C2_2  and  N1_3 
REMARK    2  A    between atoms: C5_9  and  N2_10 
REMARK    3  A    between atoms: N2_10  and  C6_12 
REMARK    4  A    between atoms: C8_14  and  C9_15 
REMARK    5  A    between atoms: N3_17  and  C11_18 
REMARK    6  A    between atoms: C11_18  and  O1_19 
REMARK    7  A    between atoms: C11_18  and  C12_21 
ROOT
HETATM    1  C6  UNL     1     -74.813  36.978 129.037  1.00  0.00     0.101 A 
HETATM    2  C7  UNL     1     -75.126  38.211 129.597  1.00  0.00     0.059 A 
HETATM    3  C8  UNL     1     -76.377  38.715 129.746  1.00  0.00    -0.001 A 
HETATM    4  C17 UNL     1     -77.415  37.877 129.279  1.00  0.00     0.058 A 
HETATM    5 CL1  UNL     1     -79.018  38.494 129.418  1.00  0.00    -0.082 Cl
HETATM    6  C18 UNL     1     -77.159  36.654 128.718  1.00  0.00     0.114 A 
HETATM    7  N4  UNL     1     -75.896  36.217 128.600  1.00  0.00    -0.351 N 
ATOM      8  H4  UNL     1     -75.724  35.305 128.178  1.00  0.00     0.166 HD
ENDROOT
BRANCH   1   9
HETATM    9  N2  UNL     1     -73.730  36.399 128.926  1.00  0.00    -0.372 N 
ATOM     10  H2  UNL     1     -73.255  36.745 128.092  1.00  0.00     0.161 HD
BRANCH   9  11
HETATM   11  C5  UNL     1     -72.935  35.452 129.529  1.00  0.00     0.083 C 
HETATM   12  C4  UNL     1     -71.443  35.594 129.294  1.00  0.00     0.027 C 
HETATM   13  C3  UNL     1     -70.802  34.644 130.280  1.00  0.00     0.040 C 
HETATM   14  C2  UNL     1     -70.979  33.254 129.695  1.00  0.00     0.120 C 
HETATM   15  C1  UNL     1     -69.774  33.028 128.802  1.00  0.00     0.046 C 
HETATM   16  C20 UNL     1     -72.198  33.101 128.870  1.00  0.00     0.040 C 
HETATM   17  C19 UNL     1     -73.314  34.045 129.073  1.00  0.00     0.027 C 
BRANCH  14  18
HETATM   18  N1  UNL     1     -70.868  32.295 130.792  1.00  0.00    -0.071 N 
ATOM     19  H13 UNL     1     -71.522  31.516 130.715  1.00  0.00     0.275 HD
ATOM     20  H12 UNL     1     -70.011  31.743 130.762  1.00  0.00     0.275 HD
ATOM     21  H11 UNL     1     -70.975  32.829 131.655  1.00  0.00     0.275 HD
ENDBRANCH  14  18
ENDBRANCH   9  11
ENDBRANCH   1   9
BRANCH   3  22
HETATM   22  C9  UNL     1     -76.739  39.899 130.419  1.00  0.00     0.173 C 
HETATM   23  C10 UNL     1     -76.799  41.259 129.848  1.00  0.00     0.156 C 
HETATM   24  N3  UNL     1     -76.873  42.189 130.953  1.00  0.00    -0.380 N 
HETATM   25  C15 UNL     1     -75.706  42.305 131.695  1.00  0.00     0.145 C 
HETATM   26  C16 UNL     1     -74.861  41.061 131.265  1.00  0.00     0.188 C 
HETATM   27  O2  UNL     1     -75.698  39.991 131.463  1.00  0.00    -0.378 OA
BRANCH  24  28
HETATM   28  C11 UNL     1     -77.984  42.971 131.030  1.00  0.00     0.255 C 
BRANCH  28  29
HETATM   29  O1  UNL     1     -78.486  43.385 129.748  1.00  0.00    -0.374 OA
ATOM     30  H1  UNL     1     -78.768  44.292 129.725  1.00  0.00     0.212 HD
ENDBRANCH  28  29
BRANCH  28  31
HETATM   31  C12 UNL     1     -79.217  42.386 131.714  1.00  0.00     0.139 C 
HETATM   32  C13 UNL     1     -79.904  43.417 132.554  1.00  0.00     0.056 C 
HETATM   33  C14 UNL     1     -80.126  41.726 130.754  1.00  0.00     0.056 C 
HETATM   34  F1  UNL     1     -78.681  41.421 132.584  1.00  0.00    -0.239 F 
ENDBRANCH  28  31
ENDBRANCH  24  28
ENDBRANCH   3  22
TORSDOF 7
ENDMDL
MODEL 4
REMARK VINA RESULT: -8.577870109      3.912      9.500
REMARK  7 active torsions:
REMARK  status: ('A' for Active; 'I' for Inactive)
REMARK    1  A    between atoms: C2_2  and  N1_3 
REMARK    2  A    between atoms: C5_9  and  N2_10 
REMARK    3  A    between atoms: N2_10  and  C6_12 
REMARK    4  A    between atoms: C8_14  and  C9_15 
REMARK    5  A    between atoms: N3_17  and  C11_18 
REMARK    6  A    between atoms: C11_18  and  O1_19 
REMARK    7  A    between atoms: C11_18  and  C12_21 
ROOT
HETATM    1  C6  UNL     1     -77.123  37.699 129.429  1.00  0.00     0.101 A 
HETATM    2  C7  UNL     1     -75.952  36.950 129.411  1.00  0.00     0.059 A 
HETATM    3  C8  UNL     1     -75.712  35.880 128.612  1.00  0.00    -0.001 A 
HETATM    4  C17 UNL     1     -76.773  35.538 127.743  1.00  0.00     0.058 A 
HETATM    5 CL1  UNL     1     -76.523  34.163 126.734  1.00  0.00    -0.082 Cl
HETATM    6  C18 UNL     1     -77.947  36.242 127.723  1.00  0.00     0.114 A 
HETATM    7  N4  UNL     1     -78.117  37.291 128.543  1.00  0.00    -0.351 N 
ATOM      8  H4  UNL     1     -78.999  37.804 128.516  1.00  0.00     0.166 HD
ENDROOT
BRANCH   1   9
HETATM    9  N2  UNL     1     -77.410  38.723 130.053  1.00  0.00    -0.372 N 
ATOM     10  H2  UNL     1     -77.375  38.521 131.052  1.00  0.00     0.161 HD
BRANCH   9  11
HETATM   11  C5  UNL     1     -77.761  40.041 129.877  1.00  0.00     0.083 C 
HETATM   12  C4  UNL     1     -77.046  41.040 130.768  1.00  0.00     0.027 C 
HETATM   13  C3  UNL     1     -77.380  42.392 130.181  1.00  0.00     0.040 C 
HETATM   14  C2  UNL     1     -78.802  42.697 130.619  1.00  0.00     0.120 C 
HETATM   15  C1  UNL     1     -78.679  43.389 131.963  1.00  0.00     0.046 C 
HETATM   16  C20 UNL     1     -79.646  41.493 130.798  1.00  0.00     0.040 C 
HETATM   17  C19 UNL     1     -79.256  40.248 130.109  1.00  0.00     0.027 C 
BRANCH  14  18
HETATM   18  N1  UNL     1     -79.349  43.685 129.692  1.00  0.00    -0.071 N 
ATOM     19  H13 UNL     1     -79.178  43.458 128.713  1.00  0.00     0.275 HD
ATOM     20  H12 UNL     1     -80.368  43.677 129.648  1.00  0.00     0.275 HD
ATOM     21  H11 UNL     1     -78.964  44.588 129.971  1.00  0.00     0.275 HD
ENDBRANCH  14  18
ENDBRANCH   9  11
ENDBRANCH   1   9
BRANCH   3  22
HETATM   22  C9  UNL     1     -74.498  35.178 128.478  1.00  0.00     0.173 C 
HETATM   23  C10 UNL     1     -73.962  34.152 129.394  1.00  0.00     0.156 C 
HETATM   24  N3  UNL     1     -72.567  33.962 129.063  1.00  0.00    -0.380 N 
HETATM   25  C15 UNL     1     -71.739  35.024 129.400  1.00  0.00     0.145 C 
HETATM   26  C16 UNL     1     -72.730  36.204 129.668  1.00  0.00     0.188 C 
HETATM   27  O2  UNL     1     -73.503  36.268 128.534  1.00  0.00    -0.378 OA
BRANCH  24  28
HETATM   28  C11 UNL     1     -72.193  32.723 128.642  1.00  0.00     0.255 C 
BRANCH  28  29
HETATM   29  O1  UNL     1     -71.462  32.733 127.404  1.00  0.00    -0.374 OA
ATOM     30  H1  UNL     1     -71.479  31.901 126.946  1.00  0.00     0.212 HD
ENDBRANCH  28  29
BRANCH  28  31
HETATM   31  C12 UNL     1     -71.301  31.900 129.567  1.00  0.00     0.139 C 
HETATM   32  C13 UNL     1     -69.928  32.491 129.653  1.00  0.00     0.056 C 
HETATM   33  C14 UNL     1     -71.918  31.683 130.892  1.00  0.00     0.056 C 
HETATM   34  F1  UNL     1     -71.189  30.667 128.901  1.00  0.00    -0.239 F 
ENDBRANCH  28  31
ENDBRANCH  24  28
ENDBRANCH   3  22
TORSDOF 7
ENDMDL
MODEL 5
REMARK VINA RESULT: -8.562091673      3.531      9.099
REMARK  7 active torsions:
REMARK  status: ('A' for Active; 'I' for Inactive)
REMARK    1  A    between atoms: C2_2  and  N1_3 
REMARK    2  A    between atoms: C5_9  and  N2_10 
REMARK    3  A    between atoms: N2_10  and  C6_12 
REMARK    4  A    between atoms: C8_14  and  C9_15 
REMARK    5  A    between atoms: N3_17  and  C11_18 
REMARK    6  A    between atoms: C11_18  and  O1_19 
REMARK    7  A    between atoms: C11_18  and  C12_21 
ROOT
HETATM    1  C6  UNL     1     -77.237  37.839 129.362  1.00  0.00     0.101 A 
HETATM    2  C7  UNL     1     -75.981  37.243 129.377  1.00  0.00     0.059 A 
HETATM    3  C8  UNL     1     -75.632  36.123 128.695  1.00  0.00    -0.001 A 
HETATM    4  C17 UNL     1     -76.667  35.553 127.919  1.00  0.00     0.058 A 
HETATM    5 CL1  UNL     1     -76.275  34.109 127.063  1.00  0.00    -0.082 Cl
HETATM    6  C18 UNL     1     -77.921  36.100 127.872  1.00  0.00     0.114 A 
HETATM    7  N4  UNL     1     -78.198  37.209 128.574  1.00  0.00    -0.351 N 
ATOM      8  H4  UNL     1     -79.138  37.603 128.529  1.00  0.00     0.166 HD
ENDROOT
BRANCH   1   9
HETATM    9  N2  UNL     1     -77.633  38.886 129.878  1.00  0.00    -0.372 N 
ATOM     10  H2  UNL     1     -78.625  39.001 129.671  1.00  0.00     0.161 HD
BRANCH   9  11
HETATM   11  C5  UNL     1     -77.210  39.955 130.633  1.00  0.00     0.083 C 
HETATM   12  C4  UNL     1     -78.238  40.544 131.581  1.00  0.00     0.027 C 
HETATM   13  C3  UNL     1     -77.452  41.474 132.477  1.00  0.00     0.040 C 
HETATM   14  C2  UNL     1     -77.185  42.720 131.653  1.00  0.00     0.120 C 
HETATM   15  C1  UNL     1     -78.380  43.626 131.878  1.00  0.00     0.046 C 
HETATM   16  C20 UNL     1     -77.070  42.465 130.199  1.00  0.00     0.040 C 
HETATM   17  C19 UNL     1     -76.734  41.103 129.744  1.00  0.00     0.027 C 
BRANCH  14  18
HETATM   18  N1  UNL     1     -76.032  43.400 132.239  1.00  0.00    -0.071 N 
ATOM     19  H13 UNL     1     -75.966  44.383 131.975  1.00  0.00     0.275 HD
ATOM     20  H12 UNL     1     -76.118  43.546 133.245  1.00  0.00     0.275 HD
ATOM     21  H11 UNL     1     -75.211  42.855 131.978  1.00  0.00     0.275 HD
ENDBRANCH  14  18
ENDBRANCH   9  11
ENDBRANCH   1   9
BRANCH   3  22
HETATM   22  C9  UNL     1     -74.343  35.564 128.586  1.00  0.00     0.173 C 
HETATM   23  C10 UNL     1     -73.733  34.563 129.483  1.00  0.00     0.156 C 
HETATM   24  N3  UNL     1     -72.314  34.541 129.207  1.00  0.00    -0.380 N 
HETATM   25  C15 UNL     1     -71.623  35.672 129.624  1.00  0.00     0.145 C 
HETATM   26  C16 UNL     1     -72.749  36.722 129.894  1.00  0.00     0.188 C 
HETATM   27  O2  UNL     1     -73.478  36.753 128.731  1.00  0.00    -0.378 OA
BRANCH  24  28
HETATM   28  C11 UNL     1     -71.788  33.371 128.753  1.00  0.00     0.255 C 
BRANCH  28  29
HETATM   29  O1  UNL     1     -70.480  33.515 128.174  1.00  0.00    -0.374 OA
ATOM     30  H1  UNL     1     -69.880  34.018 128.711  1.00  0.00     0.212 HD
ENDBRANCH  28  29
BRANCH  28  31
HETATM   31  C12 UNL     1     -71.599  32.241 129.762  1.00  0.00     0.139 C 
HETATM   32  C13 UNL     1     -71.478  30.919 129.069  1.00  0.00     0.056 C 
HETATM   33  C14 UNL     1     -70.485  32.506 130.695  1.00  0.00     0.056 C 
HETATM   34  F1  UNL     1     -72.810  32.234 130.476  1.00  0.00    -0.239 F 
ENDBRANCH  28  31
ENDBRANCH  24  28
ENDBRANCH   3  22
TORSDOF 7
ENDMDL
