MODEL 1
REMARK VINA RESULT: -5.943050875      0.000      0.000
REMARK  7 active torsions:
REMARK  status: ('A' for Active; 'I' for Inactive)
REMARK    1  A    between atoms: O1_2  and  C2_3 
REMARK    2  A    between atoms: C2_3  and  C3_4 
REMARK    3  A    between atoms: C2_3  and  C12_15 
REMARK    4  A    between atoms: C2_3  and  C14_18 
REMARK    5  A    between atoms: C3_4  and  N1_5 
REMARK    6  A    between atoms: N1_5  and  C4_7 
REMARK    7  A    between atoms: C12_15  and  S1_16 
ROOT
HETATM    1  C3  UNL     1       9.232   2.650  26.582  1.00  0.00     0.104 C 
ENDROOT
BRANCH   1   2
HETATM    2  C2  UNL     1       9.724   3.270  25.281  1.00  0.00     0.197 C 
BRANCH   2   3
HETATM    3  O1  UNL     1       8.544   3.805  24.772  1.00  0.00    -0.370 OA
HETATM    4  C1  UNL     1       8.530   4.988  24.164  1.00  0.00     0.203 C 
ENDBRANCH   2   3
BRANCH   2   5
HETATM    5  C12 UNL     1      10.632   4.447  25.487  1.00  0.00     0.126 C 
BRANCH   5   6
HETATM    6  S1  UNL     1      10.875   4.992  27.161  1.00  0.00    -0.170 SA
HETATM    7  C13 UNL     1       9.516   6.113  27.613  1.00  0.00     0.089 C 
ENDBRANCH   5   6
ENDBRANCH   2   5
BRANCH   2   8
HETATM    8  C14 UNL     1      10.290   2.277  24.347  1.00  0.00     0.424 C 
HETATM    9  F1  UNL     1      10.265   0.977  24.808  1.00  0.00    -0.167 F 
HETATM   10  F2  UNL     1       9.770   2.258  23.076  1.00  0.00    -0.167 F 
HETATM   11  F3  UNL     1      11.657   2.607  24.122  1.00  0.00    -0.167 F 
ENDBRANCH   2   8
ENDBRANCH   1   2
BRANCH   1  12
HETATM   12  N1  UNL     1       7.893   2.391  26.756  1.00  0.00    -0.394 N 
ATOM     13  H1  UNL     1       7.323   1.944  26.037  1.00  0.00     0.159 HD
BRANCH  12  14
HETATM   14  C4  UNL     1       7.362   2.789  28.007  1.00  0.00     0.092 C 
HETATM   15  C5  UNL     1       6.966   1.601  28.877  1.00  0.00     0.027 C 
HETATM   16  C6  UNL     1       8.013   0.547  28.964  1.00  0.00     0.016 C 
HETATM   17  C7  UNL     1       6.659   2.128  30.218  1.00  0.00    -0.024 C 
HETATM   18  C8  UNL     1       6.287   3.363  30.415  1.00  0.00    -0.030 C 
HETATM   19  C9  UNL     1       6.128   4.376  29.356  1.00  0.00     0.033 C 
HETATM   20  C10 UNL     1       6.159   3.677  28.005  1.00  0.00     0.008 C 
HETATM   21  C11 UNL     1       6.078   4.693  26.920  1.00  0.00     0.012 C 
ENDBRANCH  12  14
ENDBRANCH   1  12
TORSDOF 7
ENDMDL
MODEL 2
REMARK VINA RESULT: -5.811127237      0.494      1.962
REMARK  7 active torsions:
REMARK  status: ('A' for Active; 'I' for Inactive)
REMARK    1  A    between atoms: O1_2  and  C2_3 
REMARK    2  A    between atoms: C2_3  and  C3_4 
REMARK    3  A    between atoms: C2_3  and  C12_15 
REMARK    4  A    between atoms: C2_3  and  C14_18 
REMARK    5  A    between atoms: C3_4  and  N1_5 
REMARK    6  A    between atoms: N1_5  and  C4_7 
REMARK    7  A    between atoms: C12_15  and  S1_16 
ROOT
HETATM    1  C3  UNL     1       8.995   2.819  26.558  1.00  0.00     0.104 C 
ENDROOT
BRANCH   1   2
HETATM    2  C2  UNL     1       9.625   3.367  25.285  1.00  0.00     0.197 C 
BRANCH   2   3
HETATM    3  O1  UNL     1       8.523   3.949  24.666  1.00  0.00    -0.370 OA
HETATM    4  C1  UNL     1       8.592   5.171  24.144  1.00  0.00     0.203 C 
ENDBRANCH   2   3
BRANCH   2   5
HETATM    5  C12 UNL     1      10.580   4.499  25.533  1.00  0.00     0.126 C 
BRANCH   5   6
HETATM    6  S1  UNL     1      10.855   4.963  27.226  1.00  0.00    -0.170 SA
HETATM    7  C13 UNL     1      10.207   6.644  27.484  1.00  0.00     0.089 C 
ENDBRANCH   5   6
ENDBRANCH   2   5
BRANCH   2   8
HETATM    8  C14 UNL     1      10.208   2.315  24.430  1.00  0.00     0.424 C 
HETATM    9  F1  UNL     1      10.183   1.050  24.980  1.00  0.00    -0.167 F 
HETATM   10  F2  UNL     1       9.704   2.205  23.156  1.00  0.00    -0.167 F 
HETATM   11  F3  UNL     1      11.576   2.636  24.199  1.00  0.00    -0.167 F 
ENDBRANCH   2   8
ENDBRANCH   1   2
BRANCH   1  12
HETATM   12  N1  UNL     1       7.631   2.664  26.638  1.00  0.00    -0.394 N 
ATOM     13  H1  UNL     1       7.057   2.438  25.825  1.00  0.00     0.159 HD
BRANCH  12  14
HETATM   14  C4  UNL     1       7.082   2.842  27.931  1.00  0.00     0.092 C 
HETATM   15  C5  UNL     1       7.192   4.284  28.416  1.00  0.00     0.027 C 
HETATM   16  C6  UNL     1       6.741   5.289  27.417  1.00  0.00     0.016 C 
HETATM   17  C7  UNL     1       6.388   4.390  29.647  1.00  0.00    -0.024 C 
HETATM   18  C8  UNL     1       6.126   3.359  30.402  1.00  0.00    -0.030 C 
HETATM   19  C9  UNL     1       6.583   1.983  30.138  1.00  0.00     0.033 C 
HETATM   20  C10 UNL     1       7.643   2.021  29.047  1.00  0.00     0.008 C 
HETATM   21  C11 UNL     1       8.060   0.631  28.713  1.00  0.00     0.012 C 
ENDBRANCH  12  14
ENDBRANCH   1  12
TORSDOF 7
ENDMDL
MODEL 3
REMARK VINA RESULT: -5.800130418      2.088      2.801
REMARK  7 active torsions:
REMARK  status: ('A' for Active; 'I' for Inactive)
REMARK    1  A    between atoms: O1_2  and  C2_3 
REMARK    2  A    between atoms: C2_3  and  C3_4 
REMARK    3  A    between atoms: C2_3  and  C12_15 
REMARK    4  A    between atoms: C2_3  and  C14_18 
REMARK    5  A    between atoms: C3_4  and  N1_5 
REMARK    6  A    between atoms: N1_5  and  C4_7 
REMARK    7  A    between atoms: C12_15  and  S1_16 
ROOT
HETATM    1  C3  UNL     1       7.624   4.129  28.528  1.00  0.00     0.104 C 
ENDROOT
BRANCH   1   2
HETATM    2  C2  UNL     1       8.366   4.182  27.199  1.00  0.00     0.197 C 
BRANCH   2   3
HETATM    3  O1  UNL     1       7.433   3.601  26.345  1.00  0.00    -0.370 OA
HETATM    4  C1  UNL     1       6.802   4.323  25.423  1.00  0.00     0.203 C 
ENDBRANCH   2   3
BRANCH   2   5
HETATM    5  C12 UNL     1       8.560   5.576  26.680  1.00  0.00     0.126 C 
BRANCH   5   6
HETATM    6  S1  UNL     1       8.398   6.901  27.853  1.00  0.00    -0.170 SA
HETATM    7  C13 UNL     1      10.051   7.332  28.479  1.00  0.00     0.089 C 
ENDBRANCH   5   6
ENDBRANCH   2   5
BRANCH   2   8
HETATM    8  C14 UNL     1       9.620   3.404  27.207  1.00  0.00     0.424 C 
HETATM    9  F1  UNL     1      10.701   4.063  27.757  1.00  0.00    -0.167 F 
HETATM   10  F2  UNL     1       9.573   2.162  27.792  1.00  0.00    -0.167 F 
HETATM   11  F3  UNL     1       9.966   3.103  25.859  1.00  0.00    -0.167 F 
ENDBRANCH   2   8
ENDBRANCH   1   2
BRANCH   1  12
HETATM   12  N1  UNL     1       6.640   3.190  28.729  1.00  0.00    -0.394 N 
ATOM     13  H1  UNL     1       6.119   2.770  27.958  1.00  0.00     0.159 HD
BRANCH  12  14
HETATM   14  C4  UNL     1       6.404   2.849  30.082  1.00  0.00     0.092 C 
HETATM   15  C5  UNL     1       6.295   1.343  30.293  1.00  0.00     0.027 C 
HETATM   16  C6  UNL     1       7.390   0.567  29.649  1.00  0.00     0.016 C 
HETATM   17  C7  UNL     1       6.290   1.106  31.748  1.00  0.00    -0.024 C 
HETATM   18  C8  UNL     1       5.907   2.016  32.601  1.00  0.00    -0.030 C 
HETATM   19  C9  UNL     1       5.442   3.368  32.242  1.00  0.00     0.033 C 
HETATM   20  C10 UNL     1       5.187   3.413  30.743  1.00  0.00     0.008 C 
HETATM   21  C11 UNL     1       4.791   4.794  30.350  1.00  0.00     0.012 C 
ENDBRANCH  12  14
ENDBRANCH   1  12
TORSDOF 7
ENDMDL
MODEL 4
REMARK VINA RESULT: -5.762892950      2.082      2.931
REMARK  7 active torsions:
REMARK  status: ('A' for Active; 'I' for Inactive)
REMARK    1  A    between atoms: O1_2  and  C2_3 
REMARK    2  A    between atoms: C2_3  and  C3_4 
REMARK    3  A    between atoms: C2_3  and  C12_15 
REMARK    4  A    between atoms: C2_3  and  C14_18 
REMARK    5  A    between atoms: C3_4  and  N1_5 
REMARK    6  A    between atoms: N1_5  and  C4_7 
REMARK    7  A    between atoms: C12_15  and  S1_16 
ROOT
HETATM    1  C3  UNL     1       8.973   3.585  27.370  1.00  0.00     0.104 C 
ENDROOT
BRANCH   1   2
HETATM    2  C2  UNL     1       9.582   3.784  25.988  1.00  0.00     0.197 C 
BRANCH   2   3
HETATM    3  O1  UNL     1      10.872   4.189  26.316  1.00  0.00    -0.370 OA
HETATM    4  C1  UNL     1      11.100   4.976  27.364  1.00  0.00     0.203 C 
ENDBRANCH   2   3
BRANCH   2   5
HETATM    5  C12 UNL     1       9.754   2.504  25.223  1.00  0.00     0.126 C 
BRANCH   5   6
HETATM    6  S1  UNL     1      10.975   2.498  23.932  1.00  0.00    -0.170 SA
HETATM    7  C13 UNL     1      10.579   1.164  22.760  1.00  0.00     0.089 C 
ENDBRANCH   5   6
ENDBRANCH   2   5
BRANCH   2   8
HETATM    8  C14 UNL     1       8.893   4.824  25.198  1.00  0.00     0.424 C 
HETATM    9  F1  UNL     1       8.227   5.769  25.952  1.00  0.00    -0.167 F 
HETATM   10  F2  UNL     1       9.655   5.510  24.284  1.00  0.00    -0.167 F 
HETATM   11  F3  UNL     1       7.916   4.189  24.380  1.00  0.00    -0.167 F 
ENDBRANCH   2   8
ENDBRANCH   1   2
BRANCH   1  12
HETATM   12  N1  UNL     1       7.728   3.013  27.496  1.00  0.00    -0.394 N 
ATOM     13  H1  UNL     1       7.233   2.600  26.706  1.00  0.00     0.159 HD
BRANCH  12  14
HETATM   14  C4  UNL     1       7.186   3.041  28.804  1.00  0.00     0.092 C 
HETATM   15  C5  UNL     1       6.798   1.653  29.302  1.00  0.00     0.027 C 
HETATM   16  C6  UNL     1       7.856   0.626  29.100  1.00  0.00     0.016 C 
HETATM   17  C7  UNL     1       6.477   1.780  30.735  1.00  0.00    -0.024 C 
HETATM   18  C8  UNL     1       6.090   2.907  31.267  1.00  0.00    -0.030 C 
HETATM   19  C9  UNL     1       5.927   4.175  30.532  1.00  0.00     0.033 C 
HETATM   20  C10 UNL     1       5.974   3.882  29.040  1.00  0.00     0.008 C 
HETATM   21  C11 UNL     1       5.887   5.162  28.282  1.00  0.00     0.012 C 
ENDBRANCH  12  14
ENDBRANCH   1  12
TORSDOF 7
ENDMDL
MODEL 5
REMARK VINA RESULT: -5.705199952      1.882      2.922
REMARK  7 active torsions:
REMARK  status: ('A' for Active; 'I' for Inactive)
REMARK    1  A    between atoms: O1_2  and  C2_3 
REMARK    2  A    between atoms: C2_3  and  C3_4 
REMARK    3  A    between atoms: C2_3  and  C12_15 
REMARK    4  A    between atoms: C2_3  and  C14_18 
REMARK    5  A    between atoms: C3_4  and  N1_5 
REMARK    6  A    between atoms: N1_5  and  C4_7 
REMARK    7  A    between atoms: C12_15  and  S1_16 
ROOT
HETATM    1  C3  UNL     1       7.811   4.030  28.048  1.00  0.00     0.104 C 
ENDROOT
BRANCH   1   2
HETATM    2  C2  UNL     1       8.413   4.448  26.713  1.00  0.00     0.197 C 
BRANCH   2   3
HETATM    3  O1  UNL     1       7.471   3.945  25.821  1.00  0.00    -0.370 OA
HETATM    4  C1  UNL     1       7.051   4.666  24.785  1.00  0.00     0.203 C 
ENDBRANCH   2   3
BRANCH   2   5
HETATM    5  C12 UNL     1       8.407   5.932  26.496  1.00  0.00     0.126 C 
BRANCH   5   6
HETATM    6  S1  UNL     1       8.369   6.958  27.947  1.00  0.00    -0.170 SA
HETATM    7  C13 UNL     1      10.077   7.237  28.510  1.00  0.00     0.089 C 
ENDBRANCH   5   6
ENDBRANCH   2   5
BRANCH   2   8
HETATM    8  C14 UNL     1       9.738   3.846  26.464  1.00  0.00     0.424 C 
HETATM    9  F1  UNL     1       9.714   2.713  25.677  1.00  0.00    -0.167 F 
HETATM   10  F2  UNL     1      10.703   4.673  25.942  1.00  0.00    -0.167 F 
HETATM   11  F3  UNL     1      10.296   3.464  27.717  1.00  0.00    -0.167 F 
ENDBRANCH   2   8
ENDBRANCH   1   2
BRANCH   1  12
HETATM   12  N1  UNL     1       6.637   3.313  28.077  1.00  0.00    -0.394 N 
ATOM     13  H1  UNL     1       5.903   3.435  27.379  1.00  0.00     0.159 HD
BRANCH  12  14
HETATM   14  C4  UNL     1       6.524   2.393  29.147  1.00  0.00     0.092 C 
HETATM   15  C5  UNL     1       6.458   3.084  30.505  1.00  0.00     0.027 C 
HETATM   16  C6  UNL     1       5.483   4.207  30.559  1.00  0.00     0.016 C 
HETATM   17  C7  UNL     1       6.106   2.055  31.500  1.00  0.00    -0.024 C 
HETATM   18  C8  UNL     1       6.353   0.788  31.311  1.00  0.00    -0.030 C 
HETATM   19  C9  UNL     1       6.997   0.223  30.112  1.00  0.00     0.033 C 
HETATM   20  C10 UNL     1       7.596   1.361  29.299  1.00  0.00     0.008 C 
HETATM   21  C11 UNL     1       8.184   0.816  28.043  1.00  0.00     0.012 C 
ENDBRANCH  12  14
ENDBRANCH   1  12
TORSDOF 7
ENDMDL
