MODEL 1
REMARK VINA RESULT: -9.643280449      0.000      0.000
REMARK  12 active torsions:
REMARK  status: ('A' for Active; 'I' for Inactive)
REMARK    1  A    between atoms: C2_2  and  C3_3 
REMARK       I    between atoms: C3_3  and  N1_5 
REMARK    2  A    between atoms: N1_5  and  C4_7 
REMARK    3  A    between atoms: C7_10  and  C8_11 
REMARK       I    between atoms: C8_11  and  N2_13 
REMARK    4  A    between atoms: C9_15  and  C10_16 
REMARK    5  A    between atoms: C9_15  and  C19_27 
REMARK    6  A    between atoms: C10_16  and  C11_17 
REMARK       I    between atoms: C19_27  and  N4_29 
REMARK    7  A    between atoms: N4_29  and  C20_31 
REMARK    8  A    between atoms: C20_31  and  C30_41 
REMARK    9  A    between atoms: C21_32  and  C22_33 
REMARK   10  A    between atoms: C27_38  and  C28_39 
REMARK   11  A    between atoms: C30_41  and  O4_42 
REMARK   12  A    between atoms: N5_44  and  C31_46 
ROOT
HETATM    1  C8  UNL     1      15.732  64.643  27.308  1.00  0.00     0.255 C 
HETATM    2  O2  UNL     1      16.742  65.325  27.455  1.00  0.00    -0.271 OA
HETATM    3  N2  UNL     1      15.485  64.141  25.959  1.00  0.00    -0.324 N 
ATOM      4  H2  UNL     1      14.641  63.573  25.877  1.00  0.00     0.169 HD
HETATM    5  C9  UNL     1      16.158  64.285  24.805  1.00  0.00     0.085 C 
ENDROOT
BRANCH   5   6
HETATM    6  C10 UNL     1      16.925  63.270  24.006  1.00  0.00     0.104 C 
BRANCH   6   7
HETATM    7  C11 UNL     1      17.855  62.352  24.674  1.00  0.00    -0.025 A 
HETATM    8  C12 UNL     1      18.570  62.704  25.839  1.00  0.00     0.096 A 
HETATM    9  N3  UNL     1      19.311  61.690  26.266  1.00  0.00    -0.365 N 
HETATM   10  C13 UNL     1      19.113  60.643  25.406  1.00  0.00     0.042 A 
ATOM     11  H3  UNL     1      19.918  61.690  27.087  1.00  0.00     0.165 HD
HETATM   12  C14 UNL     1      19.673  59.401  25.360  1.00  0.00     0.030 A 
HETATM   13  C18 UNL     1      18.228  61.050  24.443  1.00  0.00    -0.002 A 
HETATM   14  C15 UNL     1      19.368  58.531  24.351  1.00  0.00     0.002 A 
HETATM   15  C16 UNL     1      18.491  58.924  23.383  1.00  0.00     0.001 A 
HETATM   16  C17 UNL     1      17.908  60.185  23.412  1.00  0.00     0.014 A 
ENDBRANCH   6   7
ENDBRANCH   5   6
BRANCH   5  17
HETATM   17  C19 UNL     1      15.999  65.430  23.851  1.00  0.00     0.269 C 
HETATM   18  O3  UNL     1      16.740  66.453  24.061  1.00  0.00    -0.266 OA
HETATM   19  N4  UNL     1      15.141  65.474  22.735  1.00  0.00    -0.318 N 
ATOM     20  H4  UNL     1      14.439  64.754  22.567  1.00  0.00     0.169 HD
BRANCH  19  21
HETATM   21  C20 UNL     1      15.316  66.625  21.821  1.00  0.00     0.087 C 
HETATM   22  C21 UNL     1      15.619  66.369  20.460  1.00  0.00     0.046 C 
BRANCH  22  23
HETATM   23  C22 UNL     1      15.677  67.578  19.583  1.00  0.00    -0.028 A 
HETATM   24  C23 UNL     1      16.769  68.410  19.762  1.00  0.00     0.012 A 
HETATM   25  C24 UNL     1      16.956  69.554  18.986  1.00  0.00     0.001 A 
HETATM   26  C25 UNL     1      16.038  69.875  18.019  1.00  0.00     0.001 A 
HETATM   27  C26 UNL     1      14.952  69.046  17.853  1.00  0.00     0.008 A 
HETATM   28  C27 UNL     1      14.768  67.889  18.637  1.00  0.00    -0.048 A 
BRANCH  28  29
HETATM   29  C28 UNL     1      13.592  67.078  18.322  1.00  0.00     0.035 C 
HETATM   30  C29 UNL     1      12.625  67.862  17.450  1.00  0.00     0.010 C 
ENDBRANCH  28  29
ENDBRANCH  22  23
BRANCH  21  31
HETATM   31  C30 UNL     1      14.255  67.586  22.208  1.00  0.00     0.169 C 
HETATM   32  N5  UNL     1      12.912  67.661  22.072  1.00  0.00    -0.321 N 
ATOM     33  H5  UNL     1      12.360  66.987  22.604  1.00  0.00     0.169 HD
BRANCH  31  34
HETATM   34  O4  UNL     1      14.779  68.615  22.858  1.00  0.00    -0.344 OA
ATOM     35  H4  UNL     1      14.536  69.431  22.436  1.00  0.00     0.219 HD
ENDBRANCH  31  34
BRANCH  32  36
HETATM   36  C31 UNL     1      12.258  68.495  21.340  1.00  0.00     0.106 A 
HETATM   37  C32 UNL     1      10.981  68.189  20.859  1.00  0.00     0.048 A 
HETATM   38  C33 UNL     1      10.316  69.071  20.030  1.00  0.00     0.005 A 
HETATM   39  C34 UNL     1      10.897  70.268  19.660  1.00  0.00     0.017 A 
HETATM   40  C35 UNL     1      12.145  70.518  20.155  1.00  0.00     0.089 A 
HETATM   41  N6  UNL     1      12.790  69.660  20.964  1.00  0.00    -0.352 N 
ATOM     42  H6  UNL     1      13.719  69.909  21.303  1.00  0.00     0.166 HD
ENDBRANCH  32  36
ENDBRANCH  21  31
ENDBRANCH  19  21
ENDBRANCH   5  17
BRANCH   1  43
HETATM   43  C7  UNL     1      14.764  64.323  28.403  1.00  0.00     0.305 C 
HETATM   44  C6  UNL     1      13.738  63.358  27.942  1.00  0.00     0.132 C 
HETATM   45  C5  UNL     1      13.511  62.109  28.772  1.00  0.00     0.063 C 
HETATM   46  N8  UNL     1      12.461  64.109  28.025  1.00  0.00    -0.319 N 
HETATM   47  C4  UNL     1      12.075  62.154  29.234  1.00  0.00     0.178 C 
HETATM   48  C39 UNL     1      11.484  63.103  28.269  1.00  0.00     0.244 C 
HETATM   49  O5  UNL     1      10.358  63.081  27.728  1.00  0.00    -0.271 OA
HETATM   50  C38 UNL     1      12.878  65.473  27.828  1.00  0.00     0.365 C 
HETATM   51  N7  UNL     1      14.002  65.482  28.795  1.00  0.00    -0.044 N 
HETATM   52  C36 UNL     1      14.700  66.716  28.865  1.00  0.00     0.275 C 
HETATM   53  C37 UNL     1      13.394  65.278  30.104  1.00  0.00     0.275 C 
BRANCH  47  54
HETATM   54  N1  UNL     1      11.282  61.019  29.388  1.00  0.00    -0.348 N 
HETATM   55  C3  UNL     1      10.256  60.803  30.296  1.00  0.00     0.217 C 
HETATM   56  O1  UNL     1       9.908  61.664  31.184  1.00  0.00    -0.274 OA
ATOM     57  H1  UNL     1      11.482  60.248  28.751  1.00  0.00     0.163 HD
BRANCH  55  58
HETATM   58  C2  UNL     1       9.470  59.510  30.286  1.00  0.00     0.098 C 
HETATM   59  C1  UNL     1       8.291  59.657  31.227  1.00  0.00     0.014 C 
ENDBRANCH  55  58
ENDBRANCH  47  54
ENDBRANCH   1  43
TORSDOF 12
ENDMDL
MODEL 2
REMARK VINA RESULT: -9.523073337      2.848     11.541
REMARK  12 active torsions:
REMARK  status: ('A' for Active; 'I' for Inactive)
REMARK    1  A    between atoms: C2_2  and  C3_3 
REMARK       I    between atoms: C3_3  and  N1_5 
REMARK    2  A    between atoms: N1_5  and  C4_7 
REMARK    3  A    between atoms: C7_10  and  C8_11 
REMARK       I    between atoms: C8_11  and  N2_13 
REMARK    4  A    between atoms: C9_15  and  C10_16 
REMARK    5  A    between atoms: C9_15  and  C19_27 
REMARK    6  A    between atoms: C10_16  and  C11_17 
REMARK       I    between atoms: C19_27  and  N4_29 
REMARK    7  A    between atoms: N4_29  and  C20_31 
REMARK    8  A    between atoms: C20_31  and  C30_41 
REMARK    9  A    between atoms: C21_32  and  C22_33 
REMARK   10  A    between atoms: C27_38  and  C28_39 
REMARK   11  A    between atoms: C30_41  and  O4_42 
REMARK   12  A    between atoms: N5_44  and  C31_46 
ROOT
HETATM    1  C8  UNL     1      13.476  67.530  20.497  1.00  0.00     0.255 C 
HETATM    2  O2  UNL     1      13.348  68.508  21.228  1.00  0.00    -0.271 OA
HETATM    3  N2  UNL     1      12.842  66.295  20.955  1.00  0.00    -0.324 N 
ATOM      4  H2  UNL     1      12.964  65.508  20.318  1.00  0.00     0.169 HD
HETATM    5  C9  UNL     1      12.129  66.002  22.054  1.00  0.00     0.085 C 
ENDROOT
BRANCH   5   6
HETATM    6  C10 UNL     1      10.671  65.670  22.194  1.00  0.00     0.104 C 
BRANCH   6   7
HETATM    7  C11 UNL     1       9.710  66.706  22.596  1.00  0.00    -0.025 A 
HETATM    8  C12 UNL     1       8.866  66.568  23.718  1.00  0.00     0.096 A 
HETATM    9  N3  UNL     1       8.122  67.653  23.889  1.00  0.00    -0.365 N 
HETATM   10  C13 UNL     1       8.447  68.536  22.894  1.00  0.00     0.042 A 
ATOM     11  H3  UNL     1       7.434  67.803  24.627  1.00  0.00     0.165 HD
HETATM   12  C14 UNL     1       7.941  69.763  22.582  1.00  0.00     0.030 A 
HETATM   13  C18 UNL     1       9.412  67.956  22.113  1.00  0.00    -0.002 A 
HETATM   14  C15 UNL     1       8.380  70.444  21.483  1.00  0.00     0.002 A 
HETATM   15  C16 UNL     1       9.338  69.878  20.693  1.00  0.00     0.001 A 
HETATM   16  C17 UNL     1       9.868  68.630  20.993  1.00  0.00     0.014 A 
ENDBRANCH   6   7
ENDBRANCH   5   6
BRANCH   5  17
HETATM   17  C19 UNL     1      12.708  65.585  23.372  1.00  0.00     0.269 C 
HETATM   18  O3  UNL     1      12.661  66.450  24.315  1.00  0.00    -0.266 OA
HETATM   19  N4  UNL     1      13.265  64.328  23.678  1.00  0.00    -0.318 N 
ATOM     20  H4  UNL     1      13.444  63.628  22.958  1.00  0.00     0.169 HD
BRANCH  19  21
HETATM   21  C20 UNL     1      13.576  64.080  25.104  1.00  0.00     0.087 C 
HETATM   22  C21 UNL     1      12.510  64.085  26.039  1.00  0.00     0.046 C 
BRANCH  22  23
HETATM   23  C22 UNL     1      12.892  63.725  27.439  1.00  0.00    -0.028 A 
HETATM   24  C23 UNL     1      13.640  64.665  28.128  1.00  0.00     0.012 A 
HETATM   25  C24 UNL     1      14.034  64.463  29.451  1.00  0.00     0.001 A 
HETATM   26  C25 UNL     1      13.679  63.305  30.096  1.00  0.00     0.001 A 
HETATM   27  C26 UNL     1      12.941  62.375  29.401  1.00  0.00     0.008 A 
HETATM   28  C27 UNL     1      12.543  62.583  28.065  1.00  0.00    -0.048 A 
BRANCH  28  29
HETATM   29  C28 UNL     1      11.726  61.529  27.464  1.00  0.00     0.035 C 
HETATM   30  C29 UNL     1      10.783  60.935  28.498  1.00  0.00     0.010 C 
ENDBRANCH  28  29
ENDBRANCH  22  23
BRANCH  21  31
HETATM   31  C30 UNL     1      14.588  62.997  25.093  1.00  0.00     0.169 C 
HETATM   32  N5  UNL     1      15.600  62.601  25.896  1.00  0.00    -0.321 N 
ATOM     33  H5  UNL     1      15.339  62.215  26.804  1.00  0.00     0.169 HD
BRANCH  31  34
HETATM   34  O4  UNL     1      14.433  62.232  24.021  1.00  0.00    -0.344 OA
ATOM     35  H4  UNL     1      14.346  62.769  23.242  1.00  0.00     0.219 HD
ENDBRANCH  31  34
BRANCH  32  36
HETATM   36  C31 UNL     1      16.860  62.662  25.633  1.00  0.00     0.106 A 
HETATM   37  C32 UNL     1      17.417  63.789  25.020  1.00  0.00     0.048 A 
HETATM   38  C33 UNL     1      18.759  63.816  24.694  1.00  0.00     0.005 A 
HETATM   39  C34 UNL     1      19.574  62.736  24.967  1.00  0.00     0.017 A 
HETATM   40  C35 UNL     1      18.981  61.661  25.565  1.00  0.00     0.089 A 
HETATM   41  N6  UNL     1      17.676  61.636  25.884  1.00  0.00    -0.352 N 
ATOM     42  H6  UNL     1      17.296  60.804  26.333  1.00  0.00     0.166 HD
ENDBRANCH  32  36
ENDBRANCH  21  31
ENDBRANCH  19  21
ENDBRANCH   5  17
BRANCH   1  43
HETATM   43  C7  UNL     1      14.238  67.534  19.209  1.00  0.00     0.305 C 
HETATM   44  C6  UNL     1      15.638  67.971  19.419  1.00  0.00     0.132 C 
HETATM   45  C5  UNL     1      16.748  67.086  18.885  1.00  0.00     0.063 C 
HETATM   46  N8  UNL     1      15.751  69.233  18.646  1.00  0.00    -0.319 N 
HETATM   47  C4  UNL     1      17.510  67.912  17.878  1.00  0.00     0.178 C 
HETATM   48  C39 UNL     1      17.121  69.283  18.264  1.00  0.00     0.244 C 
HETATM   49  O5  UNL     1      17.811  70.324  18.284  1.00  0.00    -0.271 OA
HETATM   50  C38 UNL     1      14.406  69.746  18.672  1.00  0.00     0.365 C 
HETATM   51  N7  UNL     1      13.706  68.499  18.280  1.00  0.00    -0.044 N 
HETATM   52  C36 UNL     1      12.293  68.620  18.217  1.00  0.00     0.275 C 
HETATM   53  C37 UNL     1      14.155  68.208  16.924  1.00  0.00     0.275 C 
BRANCH  47  54
HETATM   54  N1  UNL     1      18.885  67.805  17.681  1.00  0.00    -0.348 N 
HETATM   55  C3  UNL     1      19.747  66.821  18.142  1.00  0.00     0.217 C 
HETATM   56  O1  UNL     1      19.366  65.840  18.881  1.00  0.00    -0.274 OA
ATOM     57  H1  UNL     1      19.313  68.547  17.127  1.00  0.00     0.163 HD
BRANCH  55  58
HETATM   58  C2  UNL     1      21.219  66.849  17.789  1.00  0.00     0.098 C 
HETATM   59  C1  UNL     1      21.562  68.231  17.272  1.00  0.00     0.014 C 
ENDBRANCH  55  58
ENDBRANCH  47  54
ENDBRANCH   1  43
TORSDOF 12
ENDMDL
MODEL 3
REMARK VINA RESULT: -9.463642403      1.449      2.324
REMARK  12 active torsions:
REMARK  status: ('A' for Active; 'I' for Inactive)
REMARK    1  A    between atoms: C2_2  and  C3_3 
REMARK       I    between atoms: C3_3  and  N1_5 
REMARK    2  A    between atoms: N1_5  and  C4_7 
REMARK    3  A    between atoms: C7_10  and  C8_11 
REMARK       I    between atoms: C8_11  and  N2_13 
REMARK    4  A    between atoms: C9_15  and  C10_16 
REMARK    5  A    between atoms: C9_15  and  C19_27 
REMARK    6  A    between atoms: C10_16  and  C11_17 
REMARK       I    between atoms: C19_27  and  N4_29 
REMARK    7  A    between atoms: N4_29  and  C20_31 
REMARK    8  A    between atoms: C20_31  and  C30_41 
REMARK    9  A    between atoms: C21_32  and  C22_33 
REMARK   10  A    between atoms: C27_38  and  C28_39 
REMARK   11  A    between atoms: C30_41  and  O4_42 
REMARK   12  A    between atoms: N5_44  and  C31_46 
ROOT
HETATM    1  C8  UNL     1      15.996  64.559  26.242  1.00  0.00     0.255 C 
HETATM    2  O2  UNL     1      16.764  65.516  26.214  1.00  0.00    -0.271 OA
HETATM    3  N2  UNL     1      15.921  63.757  25.024  1.00  0.00    -0.324 N 
ATOM      4  H2  UNL     1      15.278  62.967  25.088  1.00  0.00     0.169 HD
HETATM    5  C9  UNL     1      16.539  63.861  23.836  1.00  0.00     0.085 C 
ENDROOT
BRANCH   5   6
HETATM    6  C10 UNL     1      17.576  62.973  23.210  1.00  0.00     0.104 C 
BRANCH   6   7
HETATM    7  C11 UNL     1      18.426  62.121  24.051  1.00  0.00    -0.025 A 
HETATM    8  C12 UNL     1      19.258  62.640  25.066  1.00  0.00     0.096 A 
HETATM    9  N3  UNL     1      19.893  61.665  25.705  1.00  0.00    -0.365 N 
HETATM   10  C13 UNL     1      19.505  60.480  25.138  1.00  0.00     0.042 A 
ATOM     11  H3  UNL     1      20.550  61.777  26.477  1.00  0.00     0.165 HD
HETATM   12  C14 UNL     1      19.899  59.198  25.380  1.00  0.00     0.030 A 
HETATM   13  C18 UNL     1      18.614  60.763  24.136  1.00  0.00    -0.002 A 
HETATM   14  C15 UNL     1      19.418  58.162  24.630  1.00  0.00     0.002 A 
HETATM   15  C16 UNL     1      18.533  58.429  23.626  1.00  0.00     0.001 A 
HETATM   16  C17 UNL     1      18.117  59.729  23.363  1.00  0.00     0.014 A 
ENDBRANCH   6   7
ENDBRANCH   5   6
BRANCH   5  17
HETATM   17  C19 UNL     1      16.069  64.706  22.691  1.00  0.00     0.269 C 
HETATM   18  O3  UNL     1      16.314  64.261  21.516  1.00  0.00    -0.266 OA
HETATM   19  N4  UNL     1      15.361  65.920  22.786  1.00  0.00    -0.318 N 
ATOM     20  H4  UNL     1      15.229  66.399  23.677  1.00  0.00     0.169 HD
BRANCH  19  21
HETATM   21  C20 UNL     1      14.819  66.461  21.520  1.00  0.00     0.087 C 
HETATM   22  C21 UNL     1      13.415  66.446  21.322  1.00  0.00     0.046 C 
BRANCH  22  23
HETATM   23  C22 UNL     1      12.943  67.104  20.066  1.00  0.00    -0.028 A 
HETATM   24  C23 UNL     1      13.725  66.903  18.941  1.00  0.00     0.012 A 
HETATM   25  C24 UNL     1      13.377  67.438  17.700  1.00  0.00     0.001 A 
HETATM   26  C25 UNL     1      12.233  68.186  17.580  1.00  0.00     0.001 A 
HETATM   27  C26 UNL     1      11.466  68.384  18.704  1.00  0.00     0.008 A 
HETATM   28  C27 UNL     1      11.819  67.840  19.956  1.00  0.00    -0.048 A 
BRANCH  28  29
HETATM   29  C28 UNL     1      10.888  68.096  21.055  1.00  0.00     0.035 C 
HETATM   30  C29 UNL     1       9.969  69.257  20.713  1.00  0.00     0.010 C 
ENDBRANCH  28  29
ENDBRANCH  22  23
BRANCH  21  31
HETATM   31  C30 UNL     1      15.623  67.677  21.248  1.00  0.00     0.169 C 
HETATM   32  N5  UNL     1      15.514  68.997  21.516  1.00  0.00    -0.321 N 
ATOM     33  H5  UNL     1      15.605  69.275  22.493  1.00  0.00     0.169 HD
BRANCH  31  34
HETATM   34  O4  UNL     1      16.726  67.361  20.582  1.00  0.00    -0.344 OA
ATOM     35  H4  UNL     1      17.323  68.100  20.563  1.00  0.00     0.219 HD
ENDBRANCH  31  34
BRANCH  32  36
HETATM   36  C31 UNL     1      15.307  69.941  20.663  1.00  0.00     0.106 A 
HETATM   37  C32 UNL     1      14.053  70.551  20.551  1.00  0.00     0.048 A 
HETATM   38  C33 UNL     1      13.832  71.522  19.594  1.00  0.00     0.005 A 
HETATM   39  C34 UNL     1      14.840  71.909  18.733  1.00  0.00     0.017 A 
HETATM   40  C35 UNL     1      16.043  71.282  18.884  1.00  0.00     0.089 A 
HETATM   41  N6  UNL     1      16.259  70.339  19.816  1.00  0.00    -0.352 N 
ATOM     42  H6  UNL     1      17.183  69.912  19.879  1.00  0.00     0.166 HD
ENDBRANCH  32  36
ENDBRANCH  21  31
ENDBRANCH  19  21
ENDBRANCH   5  17
BRANCH   1  43
HETATM   43  C7  UNL     1      15.147  64.193  27.420  1.00  0.00     0.305 C 
HETATM   44  C6  UNL     1      13.884  63.552  26.987  1.00  0.00     0.132 C 
HETATM   45  C5  UNL     1      13.515  62.217  27.605  1.00  0.00     0.063 C 
HETATM   46  N8  UNL     1      12.822  64.487  27.435  1.00  0.00    -0.319 N 
HETATM   47  C4  UNL     1      12.202  62.422  28.321  1.00  0.00     0.178 C 
HETATM   48  C39 UNL     1      11.697  63.647  27.667  1.00  0.00     0.244 C 
HETATM   49  O5  UNL     1      10.527  63.945  27.345  1.00  0.00    -0.271 OA
HETATM   50  C38 UNL     1      13.489  65.762  27.415  1.00  0.00     0.365 C 
HETATM   51  N7  UNL     1      14.715  65.361  28.146  1.00  0.00    -0.044 N 
HETATM   52  C36 UNL     1      15.664  66.405  28.309  1.00  0.00     0.275 C 
HETATM   53  C37 UNL     1      14.270  64.996  29.486  1.00  0.00     0.275 C 
BRANCH  47  54
HETATM   54  N1  UNL     1      11.215  61.444  28.410  1.00  0.00    -0.348 N 
HETATM   55  C3  UNL     1      10.804  60.736  29.529  1.00  0.00     0.217 C 
HETATM   56  O1  UNL     1      11.337  60.879  30.690  1.00  0.00    -0.274 OA
ATOM     57  H1  UNL     1      10.732  61.219  27.540  1.00  0.00     0.163 HD
BRANCH  55  58
HETATM   58  C2  UNL     1       9.674  59.731  29.441  1.00  0.00     0.098 C 
HETATM   59  C1  UNL     1       8.926  59.733  30.759  1.00  0.00     0.014 C 
ENDBRANCH  55  58
ENDBRANCH  47  54
ENDBRANCH   1  43
TORSDOF 12
ENDMDL
MODEL 4
REMARK VINA RESULT: -9.351356617      1.494      2.850
REMARK  12 active torsions:
REMARK  status: ('A' for Active; 'I' for Inactive)
REMARK    1  A    between atoms: C2_2  and  C3_3 
REMARK       I    between atoms: C3_3  and  N1_5 
REMARK    2  A    between atoms: N1_5  and  C4_7 
REMARK    3  A    between atoms: C7_10  and  C8_11 
REMARK       I    between atoms: C8_11  and  N2_13 
REMARK    4  A    between atoms: C9_15  and  C10_16 
REMARK    5  A    between atoms: C9_15  and  C19_27 
REMARK    6  A    between atoms: C10_16  and  C11_17 
REMARK       I    between atoms: C19_27  and  N4_29 
REMARK    7  A    between atoms: N4_29  and  C20_31 
REMARK    8  A    between atoms: C20_31  and  C30_41 
REMARK    9  A    between atoms: C21_32  and  C22_33 
REMARK   10  A    between atoms: C27_38  and  C28_39 
REMARK   11  A    between atoms: C30_41  and  O4_42 
REMARK   12  A    between atoms: N5_44  and  C31_46 
ROOT
HETATM    1  C8  UNL     1      15.761  64.688  27.616  1.00  0.00     0.255 C 
HETATM    2  O2  UNL     1      16.144  65.849  27.500  1.00  0.00    -0.271 OA
HETATM    3  N2  UNL     1      15.848  63.857  26.417  1.00  0.00    -0.324 N 
ATOM      4  H2  UNL     1      15.528  62.899  26.555  1.00  0.00     0.169 HD
HETATM    5  C9  UNL     1      16.270  64.117  25.169  1.00  0.00     0.085 C 
ENDROOT
BRANCH   5   6
HETATM    6  C10 UNL     1      17.483  63.613  24.440  1.00  0.00     0.104 C 
BRANCH   6   7
HETATM    7  C11 UNL     1      18.225  62.453  24.950  1.00  0.00    -0.025 A 
HETATM    8  C12 UNL     1      18.975  62.493  26.145  1.00  0.00     0.096 A 
HETATM    9  N3  UNL     1      19.517  61.311  26.406  1.00  0.00    -0.365 N 
HETATM   10  C13 UNL     1      19.147  60.458  25.401  1.00  0.00     0.042 A 
ATOM     11  H3  UNL     1      20.103  61.079  27.209  1.00  0.00     0.165 HD
HETATM   12  C14 UNL     1      19.478  59.157  25.161  1.00  0.00     0.030 A 
HETATM   13  C18 UNL     1      18.363  61.156  24.521  1.00  0.00    -0.002 A 
HETATM   14  C15 UNL     1      19.038  58.517  24.037  1.00  0.00     0.002 A 
HETATM   15  C16 UNL     1      18.258  59.200  23.150  1.00  0.00     0.001 A 
HETATM   16  C17 UNL     1      17.908  60.526  23.375  1.00  0.00     0.014 A 
ENDBRANCH   6   7
ENDBRANCH   5   6
BRANCH   5  17
HETATM   17  C19 UNL     1      15.426  64.700  24.077  1.00  0.00     0.269 C 
HETATM   18  O3  UNL     1      14.461  63.973  23.652  1.00  0.00    -0.266 OA
HETATM   19  N4  UNL     1      15.572  65.977  23.500  1.00  0.00    -0.318 N 
ATOM     20  H4  UNL     1      16.379  66.568  23.698  1.00  0.00     0.169 HD
BRANCH  19  21
HETATM   21  C20 UNL     1      14.489  66.411  22.591  1.00  0.00     0.087 C 
HETATM   22  C21 UNL     1      13.673  67.502  22.983  1.00  0.00     0.046 C 
BRANCH  22  23
HETATM   23  C22 UNL     1      12.671  67.944  21.966  1.00  0.00    -0.028 A 
HETATM   24  C23 UNL     1      12.899  69.179  21.382  1.00  0.00     0.012 A 
HETATM   25  C24 UNL     1      12.055  69.692  20.396  1.00  0.00     0.001 A 
HETATM   26  C25 UNL     1      10.965  68.965  19.990  1.00  0.00     0.001 A 
HETATM   27  C26 UNL     1      10.743  67.742  20.580  1.00  0.00     0.008 A 
HETATM   28  C27 UNL     1      11.600  67.225  21.573  1.00  0.00    -0.048 A 
BRANCH  28  29
HETATM   29  C28 UNL     1      11.267  65.895  22.082  1.00  0.00     0.035 C 
HETATM   30  C29 UNL     1       9.927  65.920  22.800  1.00  0.00     0.010 C 
ENDBRANCH  28  29
ENDBRANCH  22  23
BRANCH  21  31
HETATM   31  C30 UNL     1      15.077  66.337  21.231  1.00  0.00     0.169 C 
HETATM   32  N5  UNL     1      15.569  67.219  20.334  1.00  0.00    -0.321 N 
ATOM     33  H5  UNL     1      16.444  67.683  20.580  1.00  0.00     0.169 HD
BRANCH  31  34
HETATM   34  O4  UNL     1      15.131  65.077  20.821  1.00  0.00    -0.344 OA
ATOM     35  H4  UNL     1      15.420  65.037  19.916  1.00  0.00     0.219 HD
ENDBRANCH  31  34
BRANCH  32  36
HETATM   36  C31 UNL     1      15.047  67.534  19.199  1.00  0.00     0.106 A 
HETATM   37  C32 UNL     1      15.564  68.582  18.431  1.00  0.00     0.048 A 
HETATM   38  C33 UNL     1      14.959  68.944  17.243  1.00  0.00     0.005 A 
HETATM   39  C34 UNL     1      13.835  68.280  16.792  1.00  0.00     0.017 A 
HETATM   40  C35 UNL     1      13.370  67.266  17.579  1.00  0.00     0.089 A 
HETATM   41  N6  UNL     1      13.961  66.913  18.733  1.00  0.00    -0.352 N 
ATOM     42  H6  UNL     1      13.565  66.143  19.272  1.00  0.00     0.166 HD
ENDBRANCH  32  36
ENDBRANCH  21  31
ENDBRANCH  19  21
ENDBRANCH   5  17
BRANCH   1  43
HETATM   43  C7  UNL     1      15.213  64.104  28.880  1.00  0.00     0.305 C 
HETATM   44  C6  UNL     1      13.837  63.593  28.678  1.00  0.00     0.132 C 
HETATM   45  C5  UNL     1      13.537  62.167  29.099  1.00  0.00     0.063 C 
HETATM   46  N8  UNL     1      12.995  64.437  29.563  1.00  0.00    -0.319 N 
HETATM   47  C4  UNL     1      12.467  62.247  30.160  1.00  0.00     0.178 C 
HETATM   48  C39 UNL     1      11.906  63.591  29.914  1.00  0.00     0.244 C 
HETATM   49  O5  UNL     1      10.719  63.975  29.975  1.00  0.00    -0.271 OA
HETATM   50  C38 UNL     1      13.730  65.674  29.618  1.00  0.00     0.365 C 
HETATM   51  N7  UNL     1      15.067  65.104  29.908  1.00  0.00    -0.044 N 
HETATM   52  C36 UNL     1      16.101  66.070  30.016  1.00  0.00     0.275 C 
HETATM   53  C37 UNL     1      14.949  64.478  31.220  1.00  0.00     0.275 C 
BRANCH  47  54
HETATM   54  N1  UNL     1      11.464  61.293  30.312  1.00  0.00    -0.348 N 
HETATM   55  C3  UNL     1      10.749  60.631  29.325  1.00  0.00     0.217 C 
HETATM   56  O1  UNL     1      10.911  60.852  28.069  1.00  0.00    -0.274 OA
ATOM     57  H1  UNL     1      11.224  61.050  31.273  1.00  0.00     0.163 HD
BRANCH  55  58
HETATM   58  C2  UNL     1       9.716  59.584  29.684  1.00  0.00     0.098 C 
HETATM   59  C1  UNL     1       8.869  60.115  30.822  1.00  0.00     0.014 C 
ENDBRANCH  55  58
ENDBRANCH  47  54
ENDBRANCH   1  43
TORSDOF 12
ENDMDL
MODEL 5
REMARK VINA RESULT: -9.287533228      1.932      2.724
REMARK  12 active torsions:
REMARK  status: ('A' for Active; 'I' for Inactive)
REMARK    1  A    between atoms: C2_2  and  C3_3 
REMARK       I    between atoms: C3_3  and  N1_5 
REMARK    2  A    between atoms: N1_5  and  C4_7 
REMARK    3  A    between atoms: C7_10  and  C8_11 
REMARK       I    between atoms: C8_11  and  N2_13 
REMARK    4  A    between atoms: C9_15  and  C10_16 
REMARK    5  A    between atoms: C9_15  and  C19_27 
REMARK    6  A    between atoms: C10_16  and  C11_17 
REMARK       I    between atoms: C19_27  and  N4_29 
REMARK    7  A    between atoms: N4_29  and  C20_31 
REMARK    8  A    between atoms: C20_31  and  C30_41 
REMARK    9  A    between atoms: C21_32  and  C22_33 
REMARK   10  A    between atoms: C27_38  and  C28_39 
REMARK   11  A    between atoms: C30_41  and  O4_42 
REMARK   12  A    between atoms: N5_44  and  C31_46 
ROOT
HETATM    1  C8  UNL     1      14.309  63.739  26.450  1.00  0.00     0.255 C 
HETATM    2  O2  UNL     1      15.190  64.436  26.945  1.00  0.00    -0.271 OA
HETATM    3  N2  UNL     1      14.517  63.326  25.064  1.00  0.00    -0.324 N 
ATOM      4  H2  UNL     1      13.768  62.743  24.691  1.00  0.00     0.169 HD
HETATM    5  C9  UNL     1      15.507  63.568  24.189  1.00  0.00     0.085 C 
ENDROOT
BRANCH   5   6
HETATM    6  C10 UNL     1      16.530  62.632  23.614  1.00  0.00     0.104 C 
BRANCH   6   7
HETATM    7  C11 UNL     1      17.511  61.976  24.489  1.00  0.00    -0.025 A 
HETATM    8  C12 UNL     1      17.976  62.562  25.685  1.00  0.00     0.096 A 
HETATM    9  N3  UNL     1      18.824  61.756  26.311  1.00  0.00    -0.365 N 
HETATM   10  C13 UNL     1      18.946  60.621  25.555  1.00  0.00     0.042 A 
ATOM     11  H3  UNL     1      19.298  61.947  27.194  1.00  0.00     0.165 HD
HETATM   12  C14 UNL     1      19.728  59.515  25.716  1.00  0.00     0.030 A 
HETATM   13  C18 UNL     1      18.147  60.760  24.451  1.00  0.00    -0.002 A 
HETATM   14  C15 UNL     1      19.735  58.519  24.782  1.00  0.00     0.002 A 
HETATM   15  C16 UNL     1      18.946  58.645  23.675  1.00  0.00     0.001 A 
HETATM   16  C17 UNL     1      18.142  59.763  23.491  1.00  0.00     0.014 A 
ENDBRANCH   6   7
ENDBRANCH   5   6
BRANCH   5  17
HETATM   17  C19 UNL     1      15.598  64.771  23.302  1.00  0.00     0.269 C 
HETATM   18  O3  UNL     1      16.497  65.633  23.601  1.00  0.00    -0.266 OA
HETATM   19  N4  UNL     1      14.816  65.028  22.159  1.00  0.00    -0.318 N 
ATOM     20  H4  UNL     1      14.007  64.454  21.921  1.00  0.00     0.169 HD
BRANCH  19  21
HETATM   21  C20 UNL     1      15.234  66.176  21.324  1.00  0.00     0.087 C 
HETATM   22  C21 UNL     1      15.507  65.950  19.952  1.00  0.00     0.046 C 
BRANCH  22  23
HETATM   23  C22 UNL     1      15.822  67.177  19.157  1.00  0.00    -0.028 A 
HETATM   24  C23 UNL     1      17.049  67.768  19.407  1.00  0.00     0.012 A 
HETATM   25  C24 UNL     1      17.475  68.899  18.710  1.00  0.00     0.001 A 
HETATM   26  C25 UNL     1      16.663  69.451  17.752  1.00  0.00     0.001 A 
HETATM   27  C26 UNL     1      15.444  68.861  17.515  1.00  0.00     0.008 A 
HETATM   28  C27 UNL     1      15.018  67.716  18.218  1.00  0.00    -0.048 A 
BRANCH  28  29
HETATM   29  C28 UNL     1      13.717  67.169  17.832  1.00  0.00     0.035 C 
HETATM   30  C29 UNL     1      12.920  68.199  17.048  1.00  0.00     0.010 C 
ENDBRANCH  28  29
ENDBRANCH  22  23
BRANCH  21  31
HETATM   31  C30 UNL     1      14.378  67.303  21.766  1.00  0.00     0.169 C 
HETATM   32  N5  UNL     1      13.063  67.608  21.708  1.00  0.00    -0.321 N 
ATOM     33  H5  UNL     1      12.435  67.037  22.274  1.00  0.00     0.169 HD
BRANCH  31  34
HETATM   34  O4  UNL     1      15.108  68.224  22.379  1.00  0.00    -0.344 OA
ATOM     35  H4  UNL     1      15.351  67.928  23.249  1.00  0.00     0.219 HD
ENDBRANCH  31  34
BRANCH  32  36
HETATM   36  C31 UNL     1      12.521  68.545  21.010  1.00  0.00     0.106 A 
HETATM   37  C32 UNL     1      11.212  68.426  20.530  1.00  0.00     0.048 A 
HETATM   38  C33 UNL     1      10.665  69.415  19.737  1.00  0.00     0.005 A 
HETATM   39  C34 UNL     1      11.396  70.537  19.403  1.00  0.00     0.017 A 
HETATM   40  C35 UNL     1      12.668  70.605  19.895  1.00  0.00     0.089 A 
HETATM   41  N6  UNL     1      13.198  69.643  20.669  1.00  0.00    -0.352 N 
ATOM     42  H6  UNL     1      14.154  69.757  21.008  1.00  0.00     0.166 HD
ENDBRANCH  32  36
ENDBRANCH  21  31
ENDBRANCH  19  21
ENDBRANCH   5  17
BRANCH   1  43
HETATM   43  C7  UNL     1      13.065  63.317  27.167  1.00  0.00     0.305 C 
HETATM   44  C6  UNL     1      12.215  64.486  27.493  1.00  0.00     0.132 C 
HETATM   45  C5  UNL     1      10.758  64.446  27.074  1.00  0.00     0.063 C 
HETATM   46  N8  UNL     1      12.185  64.520  28.977  1.00  0.00    -0.319 N 
HETATM   47  C4  UNL     1       9.943  64.542  28.340  1.00  0.00     0.178 C 
HETATM   48  C39 UNL     1      10.928  65.111  29.284  1.00  0.00     0.244 C 
HETATM   49  O5  UNL     1      10.758  65.955  30.189  1.00  0.00    -0.271 OA
HETATM   50  C38 UNL     1      13.445  63.921  29.336  1.00  0.00     0.365 C 
HETATM   51  N7  UNL     1      13.364  62.734  28.451  1.00  0.00    -0.044 N 
HETATM   52  C36 UNL     1      14.494  61.878  28.521  1.00  0.00     0.275 C 
HETATM   53  C37 UNL     1      12.229  61.959  28.939  1.00  0.00     0.275 C 
BRANCH  47  54
HETATM   54  N1  UNL     1       8.719  65.202  28.418  1.00  0.00    -0.348 N 
HETATM   55  C3  UNL     1       8.371  66.435  27.886  1.00  0.00     0.217 C 
HETATM   56  O1  UNL     1       9.195  67.184  27.243  1.00  0.00    -0.274 OA
ATOM     57  H1  UNL     1       7.984  64.716  28.931  1.00  0.00     0.163 HD
BRANCH  55  58
HETATM   58  C2  UNL     1       6.966  66.977  28.036  1.00  0.00     0.098 C 
HETATM   59  C1  UNL     1       6.955  67.974  29.178  1.00  0.00     0.014 C 
ENDBRANCH  55  58
ENDBRANCH  47  54
ENDBRANCH   1  43
TORSDOF 12
ENDMDL
