MODEL 1
REMARK VINA RESULT: -5.428266165      0.000      0.000
REMARK  5 active torsions:
REMARK  status: ('A' for Active; 'I' for Inactive)
REMARK    1  A    between atoms: N1_1  and  C1_4 
REMARK    2  A    between atoms: N4_10  and  N5_11 
REMARK    3  A    between atoms: N5_11  and  N6_13 
REMARK    4  A    between atoms: C3_16  and  N7_17 
REMARK    5  A    between atoms: N7_17  and  O1_19 
ROOT
HETATM    1  C1  UNL     1      17.415   6.647 -13.650  1.00  0.00     0.150 A 
HETATM    2  N2  UNL     1      18.744   6.461 -13.743  1.00  0.00    -0.335 N 
ATOM      3  H2  UNL     1      19.229   6.633 -14.623  1.00  0.00     0.168 HD
HETATM    4  C2  UNL     1      19.427   6.045 -12.654  1.00  0.00     0.201 A 
HETATM    5  N3  UNL     1      18.770   5.820 -11.488  1.00  0.00    -0.272 N 
ATOM      6  H3  UNL     1      19.306   5.507 -10.678  1.00  0.00     0.190 HD
HETATM    7  N4  UNL     1      17.467   5.990 -11.357  1.00  0.00    -0.159 N 
HETATM    8  C3  UNL     1      16.788   6.408 -12.453  1.00  0.00     0.210 A 
ENDROOT
BRANCH   7   9
HETATM    9  N5  UNL     1      16.817   5.752 -10.149  1.00  0.00    -0.226 N 
ATOM     10  H5  UNL     1      16.208   4.939 -10.055  1.00  0.00     0.210 HD
BRANCH   9  11
HETATM   11  N6  UNL     1      16.990   6.614  -9.067  1.00  0.00    -0.329 N 
ATOM     12  H62 UNL     1      17.845   7.167  -9.014  1.00  0.00     0.178 HD
ATOM     13  H61 UNL     1      16.275   6.691  -8.345  1.00  0.00     0.178 HD
ENDBRANCH   9  11
ENDBRANCH   7   9
BRANCH   8  14
HETATM   14  N7  UNL     1      15.390   6.595 -12.328  1.00  0.00    -0.247 N 
ATOM     15  H7  UNL     1      14.969   7.522 -12.386  1.00  0.00     0.196 HD
BRANCH  14  16
HETATM   16  O1  UNL     1      14.689   5.559 -12.141  1.00  0.00    -0.288 OA
ATOM     17  H1  UNL     1      14.329   5.434 -11.271  1.00  0.00     0.244 HD
ENDBRANCH  14  16
ENDBRANCH   8  14
BRANCH   1  18
HETATM   18  N1  UNL     1      16.742   7.043 -14.671  1.00  0.00    -0.382 N 
ATOM     19  H12 UNL     1      16.188   7.898 -14.626  1.00  0.00     0.157 HD
ATOM     20  H11 UNL     1      16.758   6.504 -15.537  1.00  0.00     0.157 HD
ENDBRANCH   1  18
TORSDOF 5
ENDMDL
MODEL 2
REMARK VINA RESULT: -4.842256062      0.957      3.154
REMARK  5 active torsions:
REMARK  status: ('A' for Active; 'I' for Inactive)
REMARK    1  A    between atoms: N1_1  and  C1_4 
REMARK    2  A    between atoms: N4_10  and  N5_11 
REMARK    3  A    between atoms: N5_11  and  N6_13 
REMARK    4  A    between atoms: C3_16  and  N7_17 
REMARK    5  A    between atoms: N7_17  and  O1_19 
ROOT
HETATM    1  C1  UNL     1      17.224   5.965 -10.791  1.00  0.00     0.150 A 
HETATM    2  N2  UNL     1      18.494   5.523 -10.801  1.00  0.00    -0.335 N 
ATOM      3  H2  UNL     1      18.933   5.191  -9.943  1.00  0.00     0.168 HD
HETATM    4  C2  UNL     1      19.180   5.525 -11.966  1.00  0.00     0.201 A 
HETATM    5  N3  UNL     1      18.585   5.969 -13.101  1.00  0.00    -0.272 N 
ATOM      6  H3  UNL     1      19.122   5.962 -13.970  1.00  0.00     0.190 HD
HETATM    7  N4  UNL     1      17.341   6.411 -13.131  1.00  0.00    -0.159 N 
HETATM    8  C3  UNL     1      16.658   6.406 -11.961  1.00  0.00     0.210 A 
ENDROOT
BRANCH   7   9
HETATM    9  N5  UNL     1      16.754   6.862 -14.311  1.00  0.00    -0.226 N 
ATOM     10  H5  UNL     1      15.783   6.625 -14.514  1.00  0.00     0.210 HD
BRANCH   9  11
HETATM   11  N6  UNL     1      17.481   7.634 -15.216  1.00  0.00    -0.329 N 
ATOM     12  H62 UNL     1      18.479   7.453 -15.323  1.00  0.00     0.178 HD
ATOM     13  H61 UNL     1      17.023   8.365 -15.760  1.00  0.00     0.178 HD
ENDBRANCH   9  11
ENDBRANCH   7   9
BRANCH   8  14
HETATM   14  N7  UNL     1      15.324   6.877 -11.977  1.00  0.00    -0.247 N 
ATOM     15  H7  UNL     1      15.098   7.849 -11.768  1.00  0.00     0.196 HD
BRANCH  14  16
HETATM   16  O1  UNL     1      14.423   6.035 -12.263  1.00  0.00    -0.288 OA
ATOM     17  H1  UNL     1      13.523   6.303 -12.122  1.00  0.00     0.244 HD
ENDBRANCH  14  16
ENDBRANCH   8  14
BRANCH   1  18
HETATM   18  N1  UNL     1      16.549   5.973  -9.697  1.00  0.00    -0.382 N 
ATOM     19  H12 UNL     1      15.632   5.530  -9.651  1.00  0.00     0.157 HD
ATOM     20  H11 UNL     1      16.927   6.423  -8.863  1.00  0.00     0.157 HD
ENDBRANCH   1  18
TORSDOF 5
ENDMDL
MODEL 3
REMARK VINA RESULT: -4.786667323      1.771      3.222
REMARK  5 active torsions:
REMARK  status: ('A' for Active; 'I' for Inactive)
REMARK    1  A    between atoms: N1_1  and  C1_4 
REMARK    2  A    between atoms: N4_10  and  N5_11 
REMARK    3  A    between atoms: N5_11  and  N6_13 
REMARK    4  A    between atoms: C3_16  and  N7_17 
REMARK    5  A    between atoms: N7_17  and  O1_19 
ROOT
HETATM    1  C1  UNL     1      16.197   6.283 -11.971  1.00  0.00     0.150 A 
HETATM    2  N2  UNL     1      16.465   6.046 -10.675  1.00  0.00    -0.335 N 
ATOM      3  H2  UNL     1      15.713   6.022  -9.987  1.00  0.00     0.168 HD
HETATM    4  C2  UNL     1      17.746   5.839 -10.297  1.00  0.00     0.201 A 
HETATM    5  N3  UNL     1      18.739   5.874 -11.221  1.00  0.00    -0.272 N 
ATOM      6  H3  UNL     1      19.699   5.715 -10.913  1.00  0.00     0.190 HD
HETATM    7  N4  UNL     1      18.515   6.104 -12.502  1.00  0.00    -0.159 N 
HETATM    8  C3  UNL     1      17.229   6.310 -12.875  1.00  0.00     0.210 A 
ENDROOT
BRANCH   7   9
HETATM    9  N5  UNL     1      19.553   6.135 -13.431  1.00  0.00    -0.226 N 
ATOM     10  H5  UNL     1      19.348   6.333 -14.410  1.00  0.00     0.210 HD
BRANCH   9  11
HETATM   11  N6  UNL     1      20.868   5.897 -13.034  1.00  0.00    -0.329 N 
ATOM     12  H62 UNL     1      21.318   6.562 -12.405  1.00  0.00     0.178 HD
ATOM     13  H61 UNL     1      21.369   5.073 -13.365  1.00  0.00     0.178 HD
ENDBRANCH   9  11
ENDBRANCH   7   9
BRANCH   8  14
HETATM   14  N7  UNL     1      16.974   6.558 -14.245  1.00  0.00    -0.247 N 
ATOM     15  H7  UNL     1      16.354   5.958 -14.790  1.00  0.00     0.196 HD
BRANCH  14  16
HETATM   16  O1  UNL     1      17.551   7.558 -14.763  1.00  0.00    -0.288 OA
ATOM     17  H1  UNL     1      17.457   8.389 -14.311  1.00  0.00     0.244 HD
ENDBRANCH  14  16
ENDBRANCH   8  14
BRANCH   1  18
HETATM   18  N1  UNL     1      14.986   6.482 -12.357  1.00  0.00    -0.382 N 
ATOM     19  H12 UNL     1      14.261   6.721 -11.682  1.00  0.00     0.157 HD
ATOM     20  H11 UNL     1      14.742   6.402 -13.344  1.00  0.00     0.157 HD
ENDBRANCH   1  18
TORSDOF 5
ENDMDL
MODEL 4
REMARK VINA RESULT: -4.778923348      6.553      7.401
REMARK  5 active torsions:
REMARK  status: ('A' for Active; 'I' for Inactive)
REMARK    1  A    between atoms: N1_1  and  C1_4 
REMARK    2  A    between atoms: N4_10  and  N5_11 
REMARK    3  A    between atoms: N5_11  and  N6_13 
REMARK    4  A    between atoms: C3_16  and  N7_17 
REMARK    5  A    between atoms: N7_17  and  O1_19 
ROOT
HETATM    1  C1  UNL     1      23.629   3.637 -15.373  1.00  0.00     0.150 A 
HETATM    2  N2  UNL     1      24.395   3.874 -14.294  1.00  0.00    -0.335 N 
ATOM      3  H2  UNL     1      25.061   3.174 -13.968  1.00  0.00     0.168 HD
HETATM    4  C2  UNL     1      24.269   5.054 -13.646  1.00  0.00     0.201 A 
HETATM    5  N3  UNL     1      23.379   5.977 -14.089  1.00  0.00    -0.272 N 
ATOM      6  H3  UNL     1      23.301   6.861 -13.585  1.00  0.00     0.190 HD
HETATM    7  N4  UNL     1      22.609   5.781 -15.145  1.00  0.00    -0.159 N 
HETATM    8  C3  UNL     1      22.741   4.597 -15.790  1.00  0.00     0.210 A 
ENDROOT
BRANCH   7   9
HETATM    9  N5  UNL     1      21.704   6.745 -15.578  1.00  0.00    -0.226 N 
ATOM     10  H5  UNL     1      20.737   6.712 -15.252  1.00  0.00     0.210 HD
BRANCH   9  11
HETATM   11  N6  UNL     1      22.105   7.755 -16.451  1.00  0.00    -0.329 N 
ATOM     12  H62 UNL     1      22.635   8.543 -16.078  1.00  0.00     0.178 HD
ATOM     13  H61 UNL     1      21.873   7.706 -17.443  1.00  0.00     0.178 HD
ENDBRANCH   9  11
ENDBRANCH   7   9
BRANCH   8  14
HETATM   14  N7  UNL     1      21.923   4.371 -16.922  1.00  0.00    -0.247 N 
ATOM     15  H7  UNL     1      21.070   3.814 -16.863  1.00  0.00     0.196 HD
BRANCH  14  16
HETATM   16  O1  UNL     1      22.298   4.893 -18.012  1.00  0.00    -0.288 OA
ATOM     17  H1  UNL     1      23.041   4.492 -18.448  1.00  0.00     0.244 HD
ENDBRANCH  14  16
ENDBRANCH   8  14
BRANCH   1  18
HETATM   18  N1  UNL     1      23.730   2.523 -16.008  1.00  0.00    -0.382 N 
ATOM     19  H12 UNL     1      23.374   2.435 -16.959  1.00  0.00     0.157 HD
ATOM     20  H11 UNL     1      24.167   1.716 -15.562  1.00  0.00     0.157 HD
ENDBRANCH   1  18
TORSDOF 5
ENDMDL
MODEL 5
REMARK VINA RESULT: -4.699690439      7.905      9.756
REMARK  5 active torsions:
REMARK  status: ('A' for Active; 'I' for Inactive)
REMARK    1  A    between atoms: N1_1  and  C1_4 
REMARK    2  A    between atoms: N4_10  and  N5_11 
REMARK    3  A    between atoms: N5_11  and  N6_13 
REMARK    4  A    between atoms: C3_16  and  N7_17 
REMARK    5  A    between atoms: N7_17  and  O1_19 
ROOT
HETATM    1  C1  UNL     1      23.793   4.001 -15.845  1.00  0.00     0.150 A 
HETATM    2  N2  UNL     1      22.954   4.995 -16.186  1.00  0.00    -0.335 N 
ATOM      3  H2  UNL     1      22.527   5.580 -15.469  1.00  0.00     0.168 HD
HETATM    4  C2  UNL     1      22.685   5.207 -17.493  1.00  0.00     0.201 A 
HETATM    5  N3  UNL     1      23.259   4.421 -18.439  1.00  0.00    -0.272 N 
ATOM      6  H3  UNL     1      23.042   4.599 -19.420  1.00  0.00     0.190 HD
HETATM    7  N4  UNL     1      24.087   3.435 -18.143  1.00  0.00    -0.159 N 
HETATM    8  C3  UNL     1      24.353   3.228 -16.831  1.00  0.00     0.210 A 
ENDROOT
BRANCH   7   9
HETATM    9  N5  UNL     1      24.662   2.643 -19.133  1.00  0.00    -0.226 N 
ATOM     10  H5  UNL     1      25.578   2.890 -19.508  1.00  0.00     0.210 HD
BRANCH   9  11
HETATM   11  N6  UNL     1      23.999   1.517 -19.616  1.00  0.00    -0.329 N 
ATOM     12  H62 UNL     1      23.421   0.975 -18.973  1.00  0.00     0.178 HD
ATOM     13  H61 UNL     1      24.088   1.241 -20.594  1.00  0.00     0.178 HD
ENDBRANCH   9  11
ENDBRANCH   7   9
BRANCH   8  14
HETATM   14  N7  UNL     1      25.239   2.175 -16.499  1.00  0.00    -0.247 N 
ATOM     15  H7  UNL     1      26.171   2.359 -16.128  1.00  0.00     0.196 HD
BRANCH  14  16
HETATM   16  O1  UNL     1      24.819   0.996 -16.682  1.00  0.00    -0.288 OA
ATOM     17  H1  UNL     1      24.217   0.861 -17.404  1.00  0.00     0.244 HD
ENDBRANCH  14  16
ENDBRANCH   8  14
BRANCH   1  18
HETATM   18  N1  UNL     1      24.066   3.779 -14.608  1.00  0.00    -0.382 N 
ATOM     19  H12 UNL     1      24.845   3.173 -14.351  1.00  0.00     0.157 HD
ATOM     20  H11 UNL     1      23.503   4.208 -13.873  1.00  0.00     0.157 HD
ENDBRANCH   1  18
TORSDOF 5
ENDMDL
