MODEL 1
REMARK VINA RESULT: -6.879843581      0.000      0.000
REMARK  12 active torsions:
REMARK  status: ('A' for Active; 'I' for Inactive)
REMARK    1  A    between atoms: C2_5  and  N3_6 
REMARK    2  A    between atoms: N3_6  and  C3_8 
REMARK    3  A    between atoms: C3_8  and  O1_9 
REMARK    4  A    between atoms: C3_8  and  C4_11 
REMARK    5  A    between atoms: C4_11  and  S1_12 
REMARK    6  A    between atoms: S1_12  and  C5_13 
REMARK    7  A    between atoms: C7_21  and  O2_22 
REMARK    8  A    between atoms: N7_27  and  N8_28 
REMARK    9  A    between atoms: C10_31  and  N9_32 
REMARK   10  A    between atoms: C11_35  and  O6_36 
REMARK   11  A    between atoms: C12_38  and  N10_39 
REMARK   12  A    between atoms: N10_39  and  N11_41 
ROOT
HETATM    1  C3  UNL     1       3.835  14.609  49.879  1.00  0.00     0.228 C 
ENDROOT
BRANCH   1   2
HETATM    2  N3  UNL     1       2.733  15.344  49.351  1.00  0.00    -0.346 N 
ATOM      3  H3  UNL     1       2.205  14.935  48.580  1.00  0.00     0.163 HD
BRANCH   2   4
HETATM    4  C2  UNL     1       2.329  16.620  49.843  1.00  0.00     0.154 A 
HETATM    5  N2  UNL     1       3.059  17.718  49.640  1.00  0.00    -0.280 N 
HETATM    6  N1  UNL     1       2.719  18.944  50.081  1.00  0.00    -0.276 N 
ATOM      7  H2  UNL     1       3.930  17.623  49.117  1.00  0.00     0.189 HD
HETATM    8  C1  UNL     1       3.629  20.032  49.773  1.00  0.00     0.179 C 
HETATM    9  C12 UNL     1       1.598  19.167  50.772  1.00  0.00     0.172 A 
HETATM   10  C11 UNL     1       0.810  18.019  50.999  1.00  0.00     0.150 A 
HETATM   11  C10 UNL     1       1.160  16.776  50.549  1.00  0.00     0.184 A 
BRANCH   9  12
HETATM   12  N10 UNL     1       1.207  20.282  51.218  1.00  0.00    -0.288 N 
ATOM     13  H10 UNL     1       1.771  20.691  51.962  1.00  0.00     0.188 HD
BRANCH  12  14
HETATM   14  N11 UNL     1       0.124  20.998  50.826  1.00  0.00    -0.344 N 
ATOM     15 2H11 UNL     1      -0.280  20.716  49.933  1.00  0.00     0.176 HD
ATOM     16 1H11 UNL     1      -0.323  21.774  51.317  1.00  0.00     0.176 HD
ENDBRANCH  12  14
ENDBRANCH   9  12
BRANCH  10  17
HETATM   17  O6  UNL     1      -0.363  18.225  51.718  1.00  0.00    -0.355 OA
ATOM     18  H6  UNL     1      -0.679  17.583  52.343  1.00  0.00     0.218 HD
ENDBRANCH  10  17
BRANCH  11  19
HETATM   19  N9  UNL     1       0.322  15.654  50.811  1.00  0.00    -0.109 N 
HETATM   20  O4  UNL     1      -0.359  15.202  49.871  1.00  0.00    -0.532 OA
HETATM   21  O5  UNL     1       0.226  15.047  52.038  1.00  0.00    -0.532 OA
ENDBRANCH  11  19
ENDBRANCH   2   4
ENDBRANCH   1   2
BRANCH   1  22
HETATM   22  O1  UNL     1       4.854  15.435  50.386  1.00  0.00    -0.376 OA
ATOM     23  H1  UNL     1       5.724  15.082  50.242  1.00  0.00     0.212 HD
ENDBRANCH   1  22
BRANCH   1  24
HETATM   24  C4  UNL     1       3.440  13.648  50.947  1.00  0.00     0.136 C 
BRANCH  24  25
HETATM   25  S1  UNL     1       2.617  12.177  50.287  1.00  0.00    -0.088 SA
BRANCH  25  26
HETATM   26  C5  UNL     1       1.080  11.871  51.145  1.00  0.00     0.170 A 
HETATM   27  N4  UNL     1      -0.094  12.350  50.709  1.00  0.00    -0.319 N 
HETATM   28  C6  UNL     1      -1.254  12.122  51.352  1.00  0.00     0.142 A 
ATOM     29  H4  UNL     1      -0.109  12.909  49.857  1.00  0.00     0.169 HD
HETATM   30  N5  UNL     1      -2.539  12.462  51.154  1.00  0.00    -0.282 N 
HETATM   31  C8  UNL     1      -1.215  11.371  52.492  1.00  0.00     0.131 A 
HETATM   32  N6  UNL     1      -3.326  11.977  52.097  1.00  0.00    -0.278 N 
ATOM     33  H5  UNL     1      -2.867  13.027  50.370  1.00  0.00     0.188 HD
HETATM   34  C7  UNL     1      -2.526  11.298  52.935  1.00  0.00     0.174 A 
ATOM     35  H6  UNL     1      -4.337  12.095  52.174  1.00  0.00     0.189 HD
HETATM   36  C9  UNL     1      -0.003  10.887  52.927  1.00  0.00     0.286 A 
HETATM   37  O3  UNL     1      -0.040  10.196  53.995  1.00  0.00    -0.265 OA
HETATM   38  N7  UNL     1       1.145  11.130  52.266  1.00  0.00    -0.203 N 
BRANCH  34  39
HETATM   39  O2  UNL     1      -2.945  10.616  54.085  1.00  0.00    -0.344 OA
ATOM     40  H2  UNL     1      -2.516   9.858  54.464  1.00  0.00     0.219 HD
ENDBRANCH  34  39
BRANCH  38  41
HETATM   41  N8  UNL     1       2.353  10.607  52.762  1.00  0.00    -0.334 N 
ATOM     42  H82 UNL     1       2.440  10.400  53.757  1.00  0.00     0.177 HD
ATOM     43  H81 UNL     1       3.159  10.421  52.164  1.00  0.00     0.177 HD
ENDBRANCH  38  41
ENDBRANCH  25  26
ENDBRANCH  24  25
ENDBRANCH   1  24
TORSDOF 12
ENDMDL
MODEL 2
REMARK VINA RESULT: -6.854024861      3.414      5.560
REMARK  12 active torsions:
REMARK  status: ('A' for Active; 'I' for Inactive)
REMARK    1  A    between atoms: C2_5  and  N3_6 
REMARK    2  A    between atoms: N3_6  and  C3_8 
REMARK    3  A    between atoms: C3_8  and  O1_9 
REMARK    4  A    between atoms: C3_8  and  C4_11 
REMARK    5  A    between atoms: C4_11  and  S1_12 
REMARK    6  A    between atoms: S1_12  and  C5_13 
REMARK    7  A    between atoms: C7_21  and  O2_22 
REMARK    8  A    between atoms: N7_27  and  N8_28 
REMARK    9  A    between atoms: C10_31  and  N9_32 
REMARK   10  A    between atoms: C11_35  and  O6_36 
REMARK   11  A    between atoms: C12_38  and  N10_39 
REMARK   12  A    between atoms: N10_39  and  N11_41 
ROOT
HETATM    1  C3  UNL     1       4.439  14.137  48.088  1.00  0.00     0.228 C 
ENDROOT
BRANCH   1   2
HETATM    2  N3  UNL     1       4.514  14.349  49.496  1.00  0.00    -0.346 N 
ATOM      3  H3  UNL     1       5.170  13.784  50.035  1.00  0.00     0.163 HD
BRANCH   2   4
HETATM    4  C2  UNL     1       3.721  15.309  50.192  1.00  0.00     0.154 A 
HETATM    5  N2  UNL     1       3.961  16.619  50.104  1.00  0.00    -0.280 N 
HETATM    6  N1  UNL     1       3.241  17.564  50.737  1.00  0.00    -0.276 N 
ATOM      7  H2  UNL     1       4.741  16.924  49.519  1.00  0.00     0.189 HD
HETATM    8  C1  UNL     1       3.639  18.945  50.533  1.00  0.00     0.179 C 
HETATM    9  C12 UNL     1       2.204  17.263  51.521  1.00  0.00     0.172 A 
HETATM   10  C11 UNL     1       1.931  15.882  51.629  1.00  0.00     0.150 A 
HETATM   11  C10 UNL     1       2.666  14.927  50.985  1.00  0.00     0.184 A 
BRANCH   9  12
HETATM   12  N10 UNL     1       1.478  18.085  52.148  1.00  0.00    -0.288 N 
ATOM     13  H10 UNL     1       1.872  18.469  53.006  1.00  0.00     0.188 HD
BRANCH  12  14
HETATM   14  N11 UNL     1       0.236  18.517  51.814  1.00  0.00    -0.344 N 
ATOM     15 2H11 UNL     1      -0.285  17.896  51.195  1.00  0.00     0.176 HD
ATOM     16 1H11 UNL     1      -0.225  19.378  52.109  1.00  0.00     0.176 HD
ENDBRANCH  12  14
ENDBRANCH   9  12
BRANCH  10  17
HETATM   17  O6  UNL     1       0.854  15.541  52.442  1.00  0.00    -0.355 OA
ATOM     18  H6  UNL     1       0.868  15.710  53.377  1.00  0.00     0.218 HD
ENDBRANCH  10  17
BRANCH  11  19
HETATM   19  N9  UNL     1       2.342  13.547  51.134  1.00  0.00    -0.109 N 
HETATM   20  O4  UNL     1       1.198  13.177  50.804  1.00  0.00    -0.532 OA
HETATM   21  O5  UNL     1       3.218  12.609  51.618  1.00  0.00    -0.532 OA
ENDBRANCH  11  19
ENDBRANCH   2   4
ENDBRANCH   1   2
BRANCH   1  22
HETATM   22  O1  UNL     1       5.627  13.614  47.548  1.00  0.00    -0.376 OA
ATOM     23  H1  UNL     1       5.767  13.869  46.643  1.00  0.00     0.212 HD
ENDBRANCH   1  22
BRANCH   1  24
HETATM   24  C4  UNL     1       3.315  13.243  47.690  1.00  0.00     0.136 C 
BRANCH  24  25
HETATM   25  S1  UNL     1       2.174  14.038  46.531  1.00  0.00    -0.088 SA
BRANCH  25  26
HETATM   26  C5  UNL     1       1.642  15.626  47.152  1.00  0.00     0.170 A 
HETATM   27  N4  UNL     1       2.204  16.778  46.758  1.00  0.00    -0.319 N 
HETATM   28  C6  UNL     1       1.807  17.977  47.223  1.00  0.00     0.142 A 
ATOM     29  H4  UNL     1       2.963  16.744  46.077  1.00  0.00     0.169 HD
HETATM   30  N5  UNL     1       2.173  19.252  47.012  1.00  0.00    -0.282 N 
HETATM   31  C8  UNL     1       0.789  18.002  48.134  1.00  0.00     0.131 A 
HETATM   32  N6  UNL     1       1.455  20.095  47.732  1.00  0.00    -0.278 N 
ATOM     33  H5  UNL     1       2.917  19.536  46.373  1.00  0.00     0.188 HD
HETATM   34  C7  UNL     1       0.591  19.341  48.433  1.00  0.00     0.174 A 
ATOM     35  H6  UNL     1       1.538  21.111  47.752  1.00  0.00     0.189 HD
HETATM   36  C9  UNL     1       0.223  16.813  48.530  1.00  0.00     0.286 A 
HETATM   37  O3  UNL     1      -0.719  16.911  49.380  1.00  0.00    -0.265 OA
HETATM   38  N7  UNL     1       0.639  15.626  48.049  1.00  0.00    -0.203 N 
BRANCH  34  39
HETATM   39  O2  UNL     1      -0.367  19.826  49.333  1.00  0.00    -0.344 OA
ATOM     40  H2  UNL     1      -0.649  19.388  50.127  1.00  0.00     0.219 HD
ENDBRANCH  34  39
BRANCH  38  41
HETATM   41  N8  UNL     1       0.019  14.443  48.493  1.00  0.00    -0.334 N 
ATOM     42  H82 UNL     1       0.483  13.547  48.345  1.00  0.00     0.177 HD
ATOM     43  H81 UNL     1      -0.886  14.440  48.964  1.00  0.00     0.177 HD
ENDBRANCH  38  41
ENDBRANCH  25  26
ENDBRANCH  24  25
ENDBRANCH   1  24
TORSDOF 12
ENDMDL
MODEL 3
REMARK VINA RESULT: -6.799049857      2.772      8.297
REMARK  12 active torsions:
REMARK  status: ('A' for Active; 'I' for Inactive)
REMARK    1  A    between atoms: C2_5  and  N3_6 
REMARK    2  A    between atoms: N3_6  and  C3_8 
REMARK    3  A    between atoms: C3_8  and  O1_9 
REMARK    4  A    between atoms: C3_8  and  C4_11 
REMARK    5  A    between atoms: C4_11  and  S1_12 
REMARK    6  A    between atoms: S1_12  and  C5_13 
REMARK    7  A    between atoms: C7_21  and  O2_22 
REMARK    8  A    between atoms: N7_27  and  N8_28 
REMARK    9  A    between atoms: C10_31  and  N9_32 
REMARK   10  A    between atoms: C11_35  and  O6_36 
REMARK   11  A    between atoms: C12_38  and  N10_39 
REMARK   12  A    between atoms: N10_39  and  N11_41 
ROOT
HETATM    1  C3  UNL     1       1.047  12.778  53.285  1.00  0.00     0.228 C 
ENDROOT
BRANCH   1   2
HETATM    2  N3  UNL     1       1.452  11.915  52.225  1.00  0.00    -0.346 N 
ATOM      3  H3  UNL     1       0.926  11.944  51.351  1.00  0.00     0.163 HD
BRANCH   2   4
HETATM    4  C2  UNL     1       2.553  11.013  52.319  1.00  0.00     0.154 A 
HETATM    5  N2  UNL     1       3.817  11.432  52.225  1.00  0.00    -0.280 N 
HETATM    6  N1  UNL     1       4.889  10.622  52.311  1.00  0.00    -0.276 N 
ATOM      7  H2  UNL     1       3.982  12.428  52.079  1.00  0.00     0.189 HD
HETATM    8  C1  UNL     1       6.196  11.242  52.186  1.00  0.00     0.179 C 
HETATM    9  C12 UNL     1       4.775   9.305  52.502  1.00  0.00     0.172 A 
HETATM   10  C11 UNL     1       3.446   8.841  52.604  1.00  0.00     0.150 A 
HETATM   11  C10 UNL     1       2.361   9.667  52.516  1.00  0.00     0.184 A 
BRANCH   9  12
HETATM   12  N10 UNL     1       5.725   8.479  52.595  1.00  0.00    -0.288 N 
ATOM     13  H10 UNL     1       6.242   8.291  51.736  1.00  0.00     0.188 HD
BRANCH  12  14
HETATM   14  N11 UNL     1       6.140   7.813  53.701  1.00  0.00    -0.344 N 
ATOM     15 2H11 UNL     1       6.258   8.390  54.534  1.00  0.00     0.176 HD
ATOM     16 1H11 UNL     1       6.344   6.817  53.790  1.00  0.00     0.176 HD
ENDBRANCH  12  14
ENDBRANCH   9  12
BRANCH  10  17
HETATM   17  O6  UNL     1       3.299   7.471  52.803  1.00  0.00    -0.355 OA
ATOM     18  H6  UNL     1       3.938   6.852  52.470  1.00  0.00     0.218 HD
ENDBRANCH  10  17
BRANCH  11  19
HETATM   19  N9  UNL     1       1.042   9.137  52.626  1.00  0.00    -0.109 N 
HETATM   20  O4  UNL     1       0.621   8.423  51.696  1.00  0.00    -0.532 OA
HETATM   21  O5  UNL     1       0.216   9.372  53.695  1.00  0.00    -0.532 OA
ENDBRANCH  11  19
ENDBRANCH   2   4
ENDBRANCH   1   2
BRANCH   1  22
HETATM   22  O1  UNL     1       1.985  12.838  54.332  1.00  0.00    -0.376 OA
ATOM     23  H1  UNL     1       1.695  13.377  55.059  1.00  0.00     0.212 HD
ENDBRANCH   1  22
BRANCH   1  24
HETATM   24  C4  UNL     1       0.766  14.169  52.833  1.00  0.00     0.136 C 
BRANCH  24  25
HETATM   25  S1  UNL     1       1.915  14.726  51.550  1.00  0.00    -0.088 SA
BRANCH  25  26
HETATM   26  C5  UNL     1       1.722  16.475  51.241  1.00  0.00     0.170 A 
HETATM   27  N4  UNL     1       0.578  17.128  51.492  1.00  0.00    -0.319 N 
HETATM   28  C6  UNL     1       0.428  18.445  51.260  1.00  0.00     0.142 A 
ATOM     29  H4  UNL     1      -0.210  16.606  51.874  1.00  0.00     0.169 HD
HETATM   30  N5  UNL     1      -0.568  19.335  51.412  1.00  0.00    -0.282 N 
HETATM   31  C8  UNL     1       1.494  19.128  50.749  1.00  0.00     0.131 A 
HETATM   32  N6  UNL     1      -0.207  20.546  51.028  1.00  0.00    -0.278 N 
ATOM     33  H5  UNL     1      -1.491  19.102  51.779  1.00  0.00     0.188 HD
HETATM   34  C7  UNL     1       1.066  20.440  50.615  1.00  0.00     0.174 A 
ATOM     35  H6  UNL     1      -0.780  21.390  51.042  1.00  0.00     0.189 HD
HETATM   36  C9  UNL     1       2.661  18.445  50.495  1.00  0.00     0.286 A 
HETATM   37  O3  UNL     1       3.613  19.143  50.020  1.00  0.00    -0.265 OA
HETATM   38  N7  UNL     1       2.786  17.126  50.735  1.00  0.00    -0.203 N 
BRANCH  34  39
HETATM   39  O2  UNL     1       1.851  21.491  50.121  1.00  0.00    -0.344 OA
ATOM     40  H2  UNL     1       1.568  22.137  49.484  1.00  0.00     0.219 HD
ENDBRANCH  34  39
BRANCH  38  41
HETATM   41  N8  UNL     1       4.006  16.484  50.455  1.00  0.00    -0.334 N 
ATOM     42  H82 UNL     1       4.705  16.960  49.886  1.00  0.00     0.177 HD
ATOM     43  H81 UNL     1       4.228  15.550  50.801  1.00  0.00     0.177 HD
ENDBRANCH  38  41
ENDBRANCH  25  26
ENDBRANCH  24  25
ENDBRANCH   1  24
TORSDOF 12
ENDMDL
MODEL 4
REMARK VINA RESULT: -6.758371032      2.889      8.118
REMARK  12 active torsions:
REMARK  status: ('A' for Active; 'I' for Inactive)
REMARK    1  A    between atoms: C2_5  and  N3_6 
REMARK    2  A    between atoms: N3_6  and  C3_8 
REMARK    3  A    between atoms: C3_8  and  O1_9 
REMARK    4  A    between atoms: C3_8  and  C4_11 
REMARK    5  A    between atoms: C4_11  and  S1_12 
REMARK    6  A    between atoms: S1_12  and  C5_13 
REMARK    7  A    between atoms: C7_21  and  O2_22 
REMARK    8  A    between atoms: N7_27  and  N8_28 
REMARK    9  A    between atoms: C10_31  and  N9_32 
REMARK   10  A    between atoms: C11_35  and  O6_36 
REMARK   11  A    between atoms: C12_38  and  N10_39 
REMARK   12  A    between atoms: N10_39  and  N11_41 
ROOT
HETATM    1  C3  UNL     1       1.125  12.182  53.443  1.00  0.00     0.228 C 
ENDROOT
BRANCH   1   2
HETATM    2  N3  UNL     1       1.572  11.376  52.355  1.00  0.00    -0.346 N 
ATOM      3  H3  UNL     1       1.014  11.364  51.501  1.00  0.00     0.163 HD
BRANCH   2   4
HETATM    4  C2  UNL     1       2.758  10.585  52.395  1.00  0.00     0.154 A 
HETATM    5  N2  UNL     1       3.971  11.124  52.261  1.00  0.00    -0.280 N 
HETATM    6  N1  UNL     1       5.119  10.421  52.296  1.00  0.00    -0.276 N 
ATOM      7  H2  UNL     1       4.033  12.134  52.124  1.00  0.00     0.189 HD
HETATM    8  C1  UNL     1       6.354  11.167  52.132  1.00  0.00     0.179 C 
HETATM    9  C12 UNL     1       5.139   9.098  52.472  1.00  0.00     0.172 A 
HETATM   10  C11 UNL     1       3.866   8.506  52.616  1.00  0.00     0.150 A 
HETATM   11  C10 UNL     1       2.704   9.223  52.580  1.00  0.00     0.184 A 
BRANCH   9  12
HETATM   12  N10 UNL     1       6.168   8.367  52.518  1.00  0.00    -0.288 N 
ATOM     13  H10 UNL     1       6.645   8.206  51.631  1.00  0.00     0.188 HD
BRANCH  12  14
HETATM   14  N11 UNL     1       6.713   7.770  53.607  1.00  0.00    -0.344 N 
ATOM     15 2H11 UNL     1       7.268   8.385  54.203  1.00  0.00     0.176 HD
ATOM     16 1H11 UNL     1       6.632   6.793  53.890  1.00  0.00     0.176 HD
ENDBRANCH  12  14
ENDBRANCH   9  12
BRANCH  10  17
HETATM   17  O6  UNL     1       3.860   7.126  52.800  1.00  0.00    -0.355 OA
ATOM     18  H6  UNL     1       4.599   6.590  52.540  1.00  0.00     0.218 HD
ENDBRANCH  10  17
BRANCH  11  19
HETATM   19  N9  UNL     1       1.448   8.568  52.730  1.00  0.00    -0.109 N 
HETATM   20  O4  UNL     1       1.137   8.155  53.864  1.00  0.00    -0.532 OA
HETATM   21  O5  UNL     1       0.567   8.367  51.698  1.00  0.00    -0.532 OA
ENDBRANCH  11  19
ENDBRANCH   2   4
ENDBRANCH   1   2
BRANCH   1  22
HETATM   22  O1  UNL     1       2.152  12.959  54.008  1.00  0.00    -0.376 OA
ATOM     23  H1  UNL     1       1.832  13.600  54.632  1.00  0.00     0.212 HD
ENDBRANCH   1  22
BRANCH   1  24
HETATM   24  C4  UNL     1       0.003  13.091  53.075  1.00  0.00     0.136 C 
BRANCH  24  25
HETATM   25  S1  UNL     1       0.093  13.642  51.353  1.00  0.00    -0.088 SA
BRANCH  25  26
HETATM   26  C5  UNL     1       0.919  15.222  51.235  1.00  0.00     0.170 A 
HETATM   27  N4  UNL     1       0.263  16.387  51.336  1.00  0.00    -0.319 N 
HETATM   28  C6  UNL     1       0.880  17.579  51.247  1.00  0.00     0.142 A 
ATOM     29  H4  UNL     1      -0.746  16.368  51.486  1.00  0.00     0.169 HD
HETATM   30  N5  UNL     1       0.492  18.863  51.310  1.00  0.00    -0.282 N 
HETATM   31  C8  UNL     1       2.231  17.583  51.047  1.00  0.00     0.131 A 
HETATM   32  N6  UNL     1       1.509  19.692  51.161  1.00  0.00    -0.278 N 
ATOM     33  H5  UNL     1      -0.473  19.163  51.456  1.00  0.00     0.188 HD
HETATM   34  C7  UNL     1       2.596  18.920  50.997  1.00  0.00     0.174 A 
ATOM     35  H6  UNL     1       1.476  20.712  51.168  1.00  0.00     0.189 HD
HETATM   36  C9  UNL     1       2.892  16.381  50.945  1.00  0.00     0.286 A 
HETATM   37  O3  UNL     1       4.148  16.460  50.759  1.00  0.00    -0.265 OA
HETATM   38  N7  UNL     1       2.250  15.201  51.037  1.00  0.00    -0.203 N 
BRANCH  34  39
HETATM   39  O2  UNL     1       3.903  19.386  50.805  1.00  0.00    -0.344 OA
ATOM     40  H2  UNL     1       4.696  18.906  51.014  1.00  0.00     0.219 HD
ENDBRANCH  34  39
BRANCH  38  41
HETATM   41  N8  UNL     1       2.982  14.004  50.924  1.00  0.00    -0.334 N 
ATOM     42  H82 UNL     1       3.313  13.537  51.768  1.00  0.00     0.177 HD
ATOM     43  H81 UNL     1       3.199  13.575  50.025  1.00  0.00     0.177 HD
ENDBRANCH  38  41
ENDBRANCH  25  26
ENDBRANCH  24  25
ENDBRANCH   1  24
TORSDOF 12
ENDMDL
MODEL 5
REMARK VINA RESULT: -6.757582743      2.418      7.275
REMARK  12 active torsions:
REMARK  status: ('A' for Active; 'I' for Inactive)
REMARK    1  A    between atoms: C2_5  and  N3_6 
REMARK    2  A    between atoms: N3_6  and  C3_8 
REMARK    3  A    between atoms: C3_8  and  O1_9 
REMARK    4  A    between atoms: C3_8  and  C4_11 
REMARK    5  A    between atoms: C4_11  and  S1_12 
REMARK    6  A    between atoms: S1_12  and  C5_13 
REMARK    7  A    between atoms: C7_21  and  O2_22 
REMARK    8  A    between atoms: N7_27  and  N8_28 
REMARK    9  A    between atoms: C10_31  and  N9_32 
REMARK   10  A    between atoms: C11_35  and  O6_36 
REMARK   11  A    between atoms: C12_38  and  N10_39 
REMARK   12  A    between atoms: N10_39  and  N11_41 
ROOT
HETATM    1  C3  UNL     1       2.463  10.674  51.466  1.00  0.00     0.228 C 
ENDROOT
BRANCH   1   2
HETATM    2  N3  UNL     1       1.382   9.744  51.483  1.00  0.00    -0.346 N 
ATOM      3  H3  UNL     1       1.587   8.762  51.299  1.00  0.00     0.163 HD
BRANCH   2   4
HETATM    4  C2  UNL     1       0.029  10.113  51.743  1.00  0.00     0.154 A 
HETATM    5  N2  UNL     1      -0.885  10.174  50.772  1.00  0.00    -0.280 N 
HETATM    6  N1  UNL     1      -2.173  10.514  50.967  1.00  0.00    -0.276 N 
ATOM      7  H2  UNL     1      -0.588   9.950  49.821  1.00  0.00     0.189 HD
HETATM    8  C1  UNL     1      -3.034  10.532  49.798  1.00  0.00     0.179 C 
HETATM    9  C12 UNL     1      -2.654  10.822  52.173  1.00  0.00     0.172 A 
HETATM   10  C11 UNL     1      -1.705  10.764  53.216  1.00  0.00     0.150 A 
HETATM   11  C10 UNL     1      -0.398  10.419  53.013  1.00  0.00     0.184 A 
BRANCH   9  12
HETATM   12  N10 UNL     1      -3.844  11.148  52.441  1.00  0.00    -0.288 N 
ATOM     13  H10 UNL     1      -4.130  12.083  52.152  1.00  0.00     0.188 HD
BRANCH  12  14
HETATM   14  N11 UNL     1      -4.788  10.401  53.068  1.00  0.00    -0.344 N 
ATOM     15 2H11 UNL     1      -5.053   9.544  52.583  1.00  0.00     0.176 HD
ATOM     16 1H11 UNL     1      -5.253  10.599  53.955  1.00  0.00     0.176 HD
ENDBRANCH  12  14
ENDBRANCH   9  12
BRANCH  10  17
HETATM   17  O6  UNL     1      -2.181  11.081  54.484  1.00  0.00    -0.355 OA
ATOM     18  H6  UNL     1      -1.977  11.913  54.895  1.00  0.00     0.218 HD
ENDBRANCH  10  17
BRANCH  11  19
HETATM   19  N9  UNL     1       0.515  10.379  54.107  1.00  0.00    -0.109 N 
HETATM   20  O4  UNL     1       0.640  11.407  54.800  1.00  0.00    -0.532 OA
HETATM   21  O5  UNL     1       1.258   9.274  54.437  1.00  0.00    -0.532 OA
ENDBRANCH  11  19
ENDBRANCH   2   4
ENDBRANCH   1   2
BRANCH   1  22
HETATM   22  O1  UNL     1       3.471  10.360  52.394  1.00  0.00    -0.376 OA
ATOM     23  H1  UNL     1       3.179   9.760  53.071  1.00  0.00     0.212 HD
ENDBRANCH   1  22
BRANCH   1  24
HETATM   24  C4  UNL     1       3.093  10.814  50.123  1.00  0.00     0.136 C 
BRANCH  24  25
HETATM   25  S1  UNL     1       2.322  12.113  49.126  1.00  0.00    -0.088 SA
BRANCH  25  26
HETATM   26  C5  UNL     1       2.525  13.711  49.899  1.00  0.00     0.170 A 
HETATM   27  N4  UNL     1       1.518  14.347  50.513  1.00  0.00    -0.319 N 
HETATM   28  C6  UNL     1       1.667  15.551  51.095  1.00  0.00     0.142 A 
ATOM     29  H4  UNL     1       0.601  13.901  50.539  1.00  0.00     0.169 HD
HETATM   30  N5  UNL     1       0.862  16.396  51.762  1.00  0.00    -0.282 N 
HETATM   31  C8  UNL     1       2.901  16.133  51.050  1.00  0.00     0.131 A 
HETATM   32  N6  UNL     1       1.504  17.485  52.146  1.00  0.00    -0.278 N 
ATOM     33  H5  UNL     1      -0.125  16.218  51.949  1.00  0.00     0.188 HD
HETATM   34  C7  UNL     1       2.768  17.341  51.716  1.00  0.00     0.174 A 
ATOM     35  H6  UNL     1       1.117  18.274  52.664  1.00  0.00     0.189 HD
HETATM   36  C9  UNL     1       3.926  15.469  50.417  1.00  0.00     0.286 A 
HETATM   37  O3  UNL     1       5.048  16.068  50.412  1.00  0.00    -0.265 OA
HETATM   38  N7  UNL     1       3.751  14.264  49.840  1.00  0.00    -0.203 N 
BRANCH  34  39
HETATM   39  O2  UNL     1       3.802  18.268  51.906  1.00  0.00    -0.344 OA
ATOM     40  H2  UNL     1       4.062  18.939  51.285  1.00  0.00     0.219 HD
ENDBRANCH  34  39
BRANCH  38  41
HETATM   41  N8  UNL     1       4.838  13.635  49.207  1.00  0.00    -0.334 N 
ATOM     42  H82 UNL     1       5.694  13.461  49.734  1.00  0.00     0.177 HD
ATOM     43  H81 UNL     1       4.811  13.339  48.231  1.00  0.00     0.177 HD
ENDBRANCH  38  41
ENDBRANCH  25  26
ENDBRANCH  24  25
ENDBRANCH   1  24
TORSDOF 12
ENDMDL
