MODEL 1
REMARK VINA RESULT: -7.145483067      0.000      0.000
REMARK  12 active torsions:
REMARK  status: ('A' for Active; 'I' for Inactive)
REMARK    1  A    between atoms: O1_2  and  N1_3 
REMARK    2  A    between atoms: N1_3  and  C3_5 
REMARK    3  A    between atoms: C3_5  and  O2_6 
REMARK    4  A    between atoms: C4_8  and  N2_9 
REMARK    5  A    between atoms: C7_19  and  C8_20 
REMARK       I    between atoms: N7_23  and  C9_24 
REMARK    6  A    between atoms: C9_24  and  C10_26 
REMARK    7  A    between atoms: C10_26  and  N8_27 
REMARK    8  A    between atoms: C10_26  and  O4_31 
REMARK    9  A    between atoms: C11_33  and  N9_34 
REMARK   10  A    between atoms: N9_34  and  O5_36 
REMARK   11  A    between atoms: C12_38  and  O6_39 
REMARK   12  A    between atoms: N10_41  and  O7_42 
ROOT
HETATM    1  N2  UNL     1      -0.736  13.085  52.091  1.00  0.00    -0.133 N 
HETATM    2  C5  UNL     1      -0.766  13.620  50.854  1.00  0.00     0.685 A 
HETATM    3  N3  UNL     1       0.130  14.460  50.374  1.00  0.00    -0.234 N 
ATOM      4  H31 UNL     1       0.108  14.865  49.438  1.00  0.00     0.174 HD
ATOM      5  H32 UNL     1       0.954  14.822  50.853  1.00  0.00     0.174 HD
HETATM    6  N4  UNL     1      -1.841  13.147  50.228  1.00  0.00    -0.172 N 
ATOM      7  H4  UNL     1      -2.125  13.376  49.276  1.00  0.00     0.186 HD
HETATM    8  C6  UNL     1      -2.492  12.312  51.065  1.00  0.00     0.170 A 
HETATM    9  N5  UNL     1      -3.550  11.495  51.225  1.00  0.00    -0.321 N 
ATOM     10  H5  UNL     1      -4.256  11.320  50.510  1.00  0.00     0.169 HD
HETATM   11  C7  UNL     1      -3.557  10.931  52.470  1.00  0.00     0.168 A 
HETATM   12  N10 UNL     1      -2.483  11.411  53.081  1.00  0.00    -0.184 N 
HETATM   13  C13 UNL     1      -1.812  12.258  52.248  1.00  0.00     0.202 A 
ENDROOT
BRANCH  11  14
HETATM   14  C8  UNL     1      -4.581   9.979  52.932  1.00  0.00     0.132 A 
HETATM   15  N6  UNL     1      -5.334   9.193  52.159  1.00  0.00    -0.283 N 
HETATM   16  N7  UNL     1      -6.180   8.439  52.840  1.00  0.00    -0.198 N 
ATOM     17  H6  UNL     1      -5.264   9.176  51.142  1.00  0.00     0.188 HD
HETATM   18  C9  UNL     1      -7.093   7.501  52.219  1.00  0.00     0.300 C 
HETATM   19  C11 UNL     1      -5.998   8.722  54.137  1.00  0.00     0.186 A 
HETATM   20  O3  UNL     1      -7.856   6.858  52.946  1.00  0.00    -0.266 OA
HETATM   21  C12 UNL     1      -4.984   9.699  54.216  1.00  0.00     0.146 A 
BRANCH  18  22
HETATM   22  C10 UNL     1      -7.091   7.331  50.745  1.00  0.00     0.411 C 
BRANCH  22  23
HETATM   23  N8  UNL     1      -8.215   6.478  50.352  1.00  0.00    -0.044 N 
ATOM     24  H83 UNL     1      -8.161   5.551  50.773  1.00  0.00     0.278 HD
ATOM     25  H82 UNL     1      -9.094   6.778  50.774  1.00  0.00     0.278 HD
ATOM     26  H81 UNL     1      -8.269   6.438  49.333  1.00  0.00     0.278 HD
ENDBRANCH  22  23
BRANCH  22  27
HETATM   27  O4  UNL     1      -7.258   8.618  50.187  1.00  0.00    -0.363 OA
ATOM     28  H4  UNL     1      -6.558   8.735  49.555  1.00  0.00     0.212 HD
ENDBRANCH  22  27
ENDBRANCH  18  22
BRANCH  19  29
HETATM   29  N9  UNL     1      -6.714   8.131  55.228  1.00  0.00    -0.249 N 
ATOM     30  H9  UNL     1      -7.719   8.282  55.317  1.00  0.00     0.196 HD
BRANCH  29  31
HETATM   31  O5  UNL     1      -6.061   7.373  56.141  1.00  0.00    -0.288 OA
ATOM     32  H5  UNL     1      -5.983   6.435  56.015  1.00  0.00     0.244 HD
ENDBRANCH  29  31
ENDBRANCH  19  29
BRANCH  21  33
HETATM   33  O6  UNL     1      -4.536  10.229  55.388  1.00  0.00    -0.355 OA
ATOM     34  H6  UNL     1      -3.849   9.911  55.961  1.00  0.00     0.218 HD
ENDBRANCH  21  33
ENDBRANCH  11  14
BRANCH  12  35
HETATM   35  O7  UNL     1      -2.023  11.165  54.345  1.00  0.00    -0.279 OA
ATOM     36  H7  UNL     1      -2.013  11.737  55.104  1.00  0.00     0.245 HD
ENDBRANCH  12  35
BRANCH   1  37
HETATM   37  C4  UNL     1       0.243  13.279  53.097  1.00  0.00     0.174 C 
HETATM   38  C3  UNL     1       1.280  12.317  53.330  1.00  0.00     0.178 C 
BRANCH  38  39
HETATM   39  N1  UNL     1       1.550  11.039  52.849  1.00  0.00    -0.240 N 
HETATM   40  C2  UNL     1       1.982  10.689  51.534  1.00  0.00     0.188 C 
BRANCH  39  41
HETATM   41  O1  UNL     1       1.375   9.937  53.690  1.00  0.00    -0.281 OA
HETATM   42  C1  UNL     1       1.741   8.847  52.880  1.00  0.00     0.238 C 
ENDBRANCH  39  41
ENDBRANCH  38  39
BRANCH  38  43
HETATM   43  O2  UNL     1       2.176  12.760  54.206  1.00  0.00    -0.344 OA
ATOM     44  H2  UNL     1       2.258  12.214  54.979  1.00  0.00     0.219 HD
ENDBRANCH  38  43
ENDBRANCH   1  37
TORSDOF 12
ENDMDL
MODEL 2
REMARK VINA RESULT: -6.910256823      5.393      8.026
REMARK  12 active torsions:
REMARK  status: ('A' for Active; 'I' for Inactive)
REMARK    1  A    between atoms: O1_2  and  N1_3 
REMARK    2  A    between atoms: N1_3  and  C3_5 
REMARK    3  A    between atoms: C3_5  and  O2_6 
REMARK    4  A    between atoms: C4_8  and  N2_9 
REMARK    5  A    between atoms: C7_19  and  C8_20 
REMARK       I    between atoms: N7_23  and  C9_24 
REMARK    6  A    between atoms: C9_24  and  C10_26 
REMARK    7  A    between atoms: C10_26  and  N8_27 
REMARK    8  A    between atoms: C10_26  and  O4_31 
REMARK    9  A    between atoms: C11_33  and  N9_34 
REMARK   10  A    between atoms: N9_34  and  O5_36 
REMARK   11  A    between atoms: C12_38  and  O6_39 
REMARK   12  A    between atoms: N10_41  and  O7_42 
ROOT
HETATM    1  N2  UNL     1       2.513  17.221  51.196  1.00  0.00    -0.133 N 
HETATM    2  C5  UNL     1       3.678  17.591  50.627  1.00  0.00     0.685 A 
HETATM    3  N3  UNL     1       4.042  18.837  50.394  1.00  0.00    -0.234 N 
ATOM      4  H31 UNL     1       4.924  19.116  49.962  1.00  0.00     0.174 HD
ATOM      5  H32 UNL     1       3.512  19.683  50.601  1.00  0.00     0.174 HD
HETATM    6  N4  UNL     1       4.371  16.487  50.357  1.00  0.00    -0.172 N 
ATOM      7  H4  UNL     1       5.294  16.454  49.922  1.00  0.00     0.186 HD
HETATM    8  C6  UNL     1       3.649  15.419  50.755  1.00  0.00     0.170 A 
HETATM    9  N5  UNL     1       3.602  14.077  50.850  1.00  0.00    -0.321 N 
ATOM     10  H5  UNL     1       4.343  13.451  50.533  1.00  0.00     0.169 HD
HETATM   11  C7  UNL     1       2.434  13.661  51.423  1.00  0.00     0.168 A 
HETATM   12  N10 UNL     1       1.754  14.768  51.685  1.00  0.00    -0.184 N 
HETATM   13  C13 UNL     1       2.472  15.859  51.288  1.00  0.00     0.202 A 
ENDROOT
BRANCH  11  14
HETATM   14  C8  UNL     1       2.103  12.248  51.675  1.00  0.00     0.132 A 
HETATM   15  N6  UNL     1       2.962  11.285  52.019  1.00  0.00    -0.283 N 
HETATM   16  N7  UNL     1       2.392  10.103  52.177  1.00  0.00    -0.198 N 
ATOM     17  H6  UNL     1       3.960  11.446  52.147  1.00  0.00     0.188 HD
HETATM   18  C9  UNL     1       3.120   8.909  52.557  1.00  0.00     0.300 C 
HETATM   19  C11 UNL     1       1.085  10.263  51.929  1.00  0.00     0.186 A 
HETATM   20  O3  UNL     1       2.494   7.850  52.659  1.00  0.00    -0.266 OA
HETATM   21  C12 UNL     1       0.882  11.621  51.609  1.00  0.00     0.146 A 
BRANCH  18  22
HETATM   22  C10 UNL     1       4.579   8.983  52.816  1.00  0.00     0.411 C 
BRANCH  22  23
HETATM   23  N8  UNL     1       5.019   7.751  53.475  1.00  0.00    -0.044 N 
ATOM     24  H83 UNL     1       5.715   7.247  52.926  1.00  0.00     0.278 HD
ATOM     25  H82 UNL     1       5.592   7.937  54.299  1.00  0.00     0.278 HD
ATOM     26  H81 UNL     1       4.206   7.174  53.692  1.00  0.00     0.278 HD
ENDBRANCH  22  23
BRANCH  22  27
HETATM   27  O4  UNL     1       5.211   9.096  51.558  1.00  0.00    -0.363 OA
ATOM     28  H4  UNL     1       6.117   8.841  51.683  1.00  0.00     0.212 HD
ENDBRANCH  22  27
ENDBRANCH  18  22
BRANCH  19  29
HETATM   29  N9  UNL     1       0.094   9.230  51.981  1.00  0.00    -0.249 N 
ATOM     30  H9  UNL     1      -0.568   9.200  52.757  1.00  0.00     0.196 HD
BRANCH  29  31
HETATM   31  O5  UNL     1       0.031   8.294  51.004  1.00  0.00    -0.288 OA
ATOM     32  H5  UNL     1       0.257   8.521  50.110  1.00  0.00     0.244 HD
ENDBRANCH  29  31
ENDBRANCH  19  29
BRANCH  21  33
HETATM   33  O6  UNL     1      -0.334  12.149  51.296  1.00  0.00    -0.355 OA
ATOM     34  H6  UNL     1      -1.090  12.277  51.856  1.00  0.00     0.218 HD
ENDBRANCH  21  33
ENDBRANCH  11  14
BRANCH  12  35
HETATM   35  O7  UNL     1       0.523  14.914  52.259  1.00  0.00    -0.279 OA
ATOM     36  H7  UNL     1      -0.094  15.632  52.187  1.00  0.00     0.245 HD
ENDBRANCH  12  35
BRANCH   1  37
HETATM   37  C4  UNL     1       1.478  18.062  51.676  1.00  0.00     0.174 C 
HETATM   38  C3  UNL     1       0.210  18.144  51.012  1.00  0.00     0.178 C 
BRANCH  38  39
HETATM   39  N1  UNL     1      -0.298  17.644  49.817  1.00  0.00    -0.240 N 
HETATM   40  C2  UNL     1      -0.538  18.373  48.613  1.00  0.00     0.188 C 
BRANCH  39  41
HETATM   41  O1  UNL     1      -0.652  16.294  49.731  1.00  0.00    -0.281 OA
HETATM   42  C1  UNL     1      -0.015  15.865  48.552  1.00  0.00     0.238 C 
ENDBRANCH  39  41
ENDBRANCH  38  39
BRANCH  38  43
HETATM   43  O2  UNL     1      -0.664  18.865  51.706  1.00  0.00    -0.344 OA
ATOM     44  H2  UNL     1      -0.482  18.896  52.638  1.00  0.00     0.219 HD
ENDBRANCH  38  43
ENDBRANCH   1  37
TORSDOF 12
ENDMDL
MODEL 3
REMARK VINA RESULT: -6.843061172      4.418      9.829
REMARK  12 active torsions:
REMARK  status: ('A' for Active; 'I' for Inactive)
REMARK    1  A    between atoms: O1_2  and  N1_3 
REMARK    2  A    between atoms: N1_3  and  C3_5 
REMARK    3  A    between atoms: C3_5  and  O2_6 
REMARK    4  A    between atoms: C4_8  and  N2_9 
REMARK    5  A    between atoms: C7_19  and  C8_20 
REMARK       I    between atoms: N7_23  and  C9_24 
REMARK    6  A    between atoms: C9_24  and  C10_26 
REMARK    7  A    between atoms: C10_26  and  N8_27 
REMARK    8  A    between atoms: C10_26  and  O4_31 
REMARK    9  A    between atoms: C11_33  and  N9_34 
REMARK   10  A    between atoms: N9_34  and  O5_36 
REMARK   11  A    between atoms: C12_38  and  O6_39 
REMARK   12  A    between atoms: N10_41  and  O7_42 
ROOT
HETATM    1  N2  UNL     1       1.503  11.540  52.659  1.00  0.00    -0.133 N 
HETATM    2  C5  UNL     1       2.221  10.604  52.007  1.00  0.00     0.685 A 
HETATM    3  N3  UNL     1       2.130   9.305  52.213  1.00  0.00    -0.234 N 
ATOM      4  H31 UNL     1       2.674   8.596  51.719  1.00  0.00     0.174 HD
ATOM      5  H32 UNL     1       1.524   8.827  52.879  1.00  0.00     0.174 HD
HETATM    6  N4  UNL     1       3.012  11.227  51.136  1.00  0.00    -0.172 N 
ATOM      7  H4  UNL     1       3.671  10.776  50.501  1.00  0.00     0.186 HD
HETATM    8  C6  UNL     1       2.796  12.555  51.235  1.00  0.00     0.170 A 
HETATM    9  N5  UNL     1       3.131  13.776  50.776  1.00  0.00    -0.321 N 
ATOM     10  H5  UNL     1       3.823  13.948  50.047  1.00  0.00     0.169 HD
HETATM   11  C7  UNL     1       2.423  14.756  51.414  1.00  0.00     0.168 A 
HETATM   12  N10 UNL     1       1.641  14.122  52.277  1.00  0.00    -0.184 N 
HETATM   13  C13 UNL     1       1.847  12.776  52.191  1.00  0.00     0.202 A 
ENDROOT
BRANCH  11  14
HETATM   14  C8  UNL     1       2.559  16.192  51.115  1.00  0.00     0.132 A 
HETATM   15  N6  UNL     1       1.575  17.095  51.120  1.00  0.00    -0.283 N 
HETATM   16  N7  UNL     1       1.979  18.314  50.807  1.00  0.00    -0.198 N 
ATOM     17  H6  UNL     1       0.607  16.866  51.342  1.00  0.00     0.188 HD
HETATM   18  C9  UNL     1       1.094  19.461  50.756  1.00  0.00     0.300 C 
HETATM   19  C11 UNL     1       3.297  18.242  50.577  1.00  0.00     0.186 A 
HETATM   20  O3  UNL     1       1.571  20.553  50.434  1.00  0.00    -0.266 OA
HETATM   21  C12 UNL     1       3.684  16.900  50.769  1.00  0.00     0.146 A 
BRANCH  18  22
HETATM   22  C10 UNL     1      -0.343  19.302  51.088  1.00  0.00     0.411 C 
BRANCH  22  23
HETATM   23  N8  UNL     1      -0.956  20.624  51.243  1.00  0.00    -0.044 N 
ATOM     24  H83 UNL     1      -1.913  20.567  51.589  1.00  0.00     0.278 HD
ATOM     25  H82 UNL     1      -0.552  21.148  52.019  1.00  0.00     0.278 HD
ATOM     26  H81 UNL     1      -0.894  21.131  50.359  1.00  0.00     0.278 HD
ENDBRANCH  22  23
BRANCH  22  27
HETATM   27  O4  UNL     1      -0.941  18.629  50.000  1.00  0.00    -0.363 OA
ATOM     28  H4  UNL     1      -1.879  18.645  50.149  1.00  0.00     0.212 HD
ENDBRANCH  22  27
ENDBRANCH  18  22
BRANCH  19  29
HETATM   29  N9  UNL     1       4.140  19.339  50.204  1.00  0.00    -0.249 N 
ATOM     30  H9  UNL     1       4.884  19.645  50.831  1.00  0.00     0.196 HD
BRANCH  29  31
HETATM   31  O5  UNL     1       3.952  19.971  49.020  1.00  0.00    -0.288 OA
ATOM     32  H5  UNL     1       3.331  20.687  48.954  1.00  0.00     0.244 HD
ENDBRANCH  29  31
ENDBRANCH  19  29
BRANCH  21  33
HETATM   33  O6  UNL     1       4.962  16.454  50.618  1.00  0.00    -0.355 OA
ATOM     34  H6  UNL     1       5.529  16.514  49.858  1.00  0.00     0.218 HD
ENDBRANCH  21  33
ENDBRANCH  11  14
BRANCH  12  35
HETATM   35  O7  UNL     1       0.734  14.635  53.162  1.00  0.00    -0.279 OA
ATOM     36  H7  UNL     1       0.809  15.391  53.732  1.00  0.00     0.245 HD
ENDBRANCH  12  35
BRANCH   1  37
HETATM   37  C4  UNL     1       0.511  11.337  53.652  1.00  0.00     0.174 C 
HETATM   38  C3  UNL     1      -0.886  11.385  53.336  1.00  0.00     0.178 C 
BRANCH  38  39
HETATM   39  N1  UNL     1      -1.618  11.728  52.204  1.00  0.00    -0.240 N 
HETATM   40  C2  UNL     1      -2.509  10.888  51.468  1.00  0.00     0.188 C 
BRANCH  39  41
HETATM   41  O1  UNL     1      -1.494  13.012  51.667  1.00  0.00    -0.281 OA
HETATM   42  C1  UNL     1      -1.292  12.775  50.295  1.00  0.00     0.238 C 
ENDBRANCH  39  41
ENDBRANCH  38  39
BRANCH  38  43
HETATM   43  O2  UNL     1      -1.638  11.020  54.370  1.00  0.00    -0.344 OA
ATOM     44  H2  UNL     1      -1.478  11.526  55.157  1.00  0.00     0.219 HD
ENDBRANCH  38  43
ENDBRANCH   1  37
TORSDOF 12
ENDMDL
MODEL 4
REMARK VINA RESULT: -6.819527080      3.831      9.515
REMARK  12 active torsions:
REMARK  status: ('A' for Active; 'I' for Inactive)
REMARK    1  A    between atoms: O1_2  and  N1_3 
REMARK    2  A    between atoms: N1_3  and  C3_5 
REMARK    3  A    between atoms: C3_5  and  O2_6 
REMARK    4  A    between atoms: C4_8  and  N2_9 
REMARK    5  A    between atoms: C7_19  and  C8_20 
REMARK       I    between atoms: N7_23  and  C9_24 
REMARK    6  A    between atoms: C9_24  and  C10_26 
REMARK    7  A    between atoms: C10_26  and  N8_27 
REMARK    8  A    between atoms: C10_26  and  O4_31 
REMARK    9  A    between atoms: C11_33  and  N9_34 
REMARK   10  A    between atoms: N9_34  and  O5_36 
REMARK   11  A    between atoms: C12_38  and  O6_39 
REMARK   12  A    between atoms: N10_41  and  O7_42 
ROOT
HETATM    1  N2  UNL     1       0.638  10.948  53.332  1.00  0.00    -0.133 N 
HETATM    2  C5  UNL     1       1.248   9.772  53.079  1.00  0.00     0.685 A 
HETATM    3  N3  UNL     1       1.044   8.656  53.751  1.00  0.00    -0.234 N 
ATOM      4  H31 UNL     1       1.506   7.767  53.559  1.00  0.00     0.174 HD
ATOM      5  H32 UNL     1       0.414   8.519  54.541  1.00  0.00     0.174 HD
HETATM    6  N4  UNL     1       2.070   9.951  52.047  1.00  0.00    -0.172 N 
ATOM      7  H4  UNL     1       2.666   9.236  51.630  1.00  0.00     0.186 HD
HETATM    8  C6  UNL     1       1.980  11.236  51.645  1.00  0.00     0.170 A 
HETATM    9  N5  UNL     1       2.413  12.163  50.770  1.00  0.00    -0.321 N 
ATOM     10  H5  UNL     1       3.098  11.986  50.035  1.00  0.00     0.169 HD
HETATM   11  C7  UNL     1       1.817  13.372  50.993  1.00  0.00     0.168 A 
HETATM   12  N10 UNL     1       1.004  13.180  52.023  1.00  0.00    -0.184 N 
HETATM   13  C13 UNL     1       1.082  11.884  52.443  1.00  0.00     0.202 A 
ENDROOT
BRANCH  11  14
HETATM   14  C8  UNL     1       2.077  14.576  50.186  1.00  0.00     0.132 A 
HETATM   15  N6  UNL     1       2.234  15.818  50.649  1.00  0.00    -0.283 N 
HETATM   16  N7  UNL     1       2.451  16.711  49.699  1.00  0.00    -0.198 N 
ATOM     17  H6  UNL     1       2.191  16.055  51.640  1.00  0.00     0.188 HD
HETATM   18  C9  UNL     1       2.659  18.121  49.960  1.00  0.00     0.300 C 
HETATM   19  C11 UNL     1       2.440  16.051  48.533  1.00  0.00     0.186 A 
HETATM   20  O3  UNL     1       2.835  18.874  48.997  1.00  0.00    -0.266 OA
HETATM   21  C12 UNL     1       2.205  14.691  48.822  1.00  0.00     0.146 A 
BRANCH  18  22
HETATM   22  C10 UNL     1       2.661  18.623  51.356  1.00  0.00     0.411 C 
BRANCH  22  23
HETATM   23  N8  UNL     1       1.323  18.469  51.930  1.00  0.00    -0.044 N 
ATOM     24  H83 UNL     1       0.587  18.619  51.240  1.00  0.00     0.278 HD
ATOM     25  H82 UNL     1       1.110  17.498  52.160  1.00  0.00     0.278 HD
ATOM     26  H81 UNL     1       1.227  19.086  52.737  1.00  0.00     0.278 HD
ENDBRANCH  22  23
BRANCH  22  27
HETATM   27  O4  UNL     1       3.578  17.825  52.075  1.00  0.00    -0.363 OA
ATOM     28  H4  UNL     1       3.184  16.965  52.161  1.00  0.00     0.212 HD
ENDBRANCH  22  27
ENDBRANCH  18  22
BRANCH  19  29
HETATM   29  N9  UNL     1       2.632  16.638  47.241  1.00  0.00    -0.249 N 
ATOM     30  H9  UNL     1       2.443  17.630  47.100  1.00  0.00     0.196 HD
BRANCH  29  31
HETATM   31  O5  UNL     1       3.065  15.879  46.205  1.00  0.00    -0.288 OA
ATOM     32  H5  UNL     1       3.281  16.284  45.373  1.00  0.00     0.244 HD
ENDBRANCH  29  31
ENDBRANCH  19  29
BRANCH  21  33
HETATM   33  O6  UNL     1       2.127  13.719  47.871  1.00  0.00    -0.355 OA
ATOM     34  H6  UNL     1       2.763  13.051  47.649  1.00  0.00     0.218 HD
ENDBRANCH  21  33
ENDBRANCH  11  14
BRANCH  12  35
HETATM   35  O7  UNL     1       0.173  14.068  52.648  1.00  0.00    -0.279 OA
ATOM     36  H7  UNL     1       0.358  14.666  53.362  1.00  0.00     0.245 HD
ENDBRANCH  12  35
BRANCH   1  37
HETATM   37  C4  UNL     1      -0.341  11.222  54.321  1.00  0.00     0.174 C 
HETATM   38  C3  UNL     1      -1.727  11.367  53.984  1.00  0.00     0.178 C 
BRANCH  38  39
HETATM   39  N1  UNL     1      -2.438  11.427  52.790  1.00  0.00    -0.240 N 
HETATM   40  C2  UNL     1      -3.383  10.474  52.303  1.00  0.00     0.188 C 
BRANCH  39  41
HETATM   41  O1  UNL     1      -2.232  12.501  51.920  1.00  0.00    -0.281 OA
HETATM   42  C1  UNL     1      -2.158  11.888  50.655  1.00  0.00     0.238 C 
ENDBRANCH  39  41
ENDBRANCH  38  39
BRANCH  38  43
HETATM   43  O2  UNL     1      -2.489  11.467  55.068  1.00  0.00    -0.344 OA
ATOM     44  H2  UNL     1      -2.058  11.188  55.867  1.00  0.00     0.219 HD
ENDBRANCH  38  43
ENDBRANCH   1  37
TORSDOF 12
ENDMDL
MODEL 5
REMARK VINA RESULT: -6.777262271      4.430      9.175
REMARK  12 active torsions:
REMARK  status: ('A' for Active; 'I' for Inactive)
REMARK    1  A    between atoms: O1_2  and  N1_3 
REMARK    2  A    between atoms: N1_3  and  C3_5 
REMARK    3  A    between atoms: C3_5  and  O2_6 
REMARK    4  A    between atoms: C4_8  and  N2_9 
REMARK    5  A    between atoms: C7_19  and  C8_20 
REMARK       I    between atoms: N7_23  and  C9_24 
REMARK    6  A    between atoms: C9_24  and  C10_26 
REMARK    7  A    between atoms: C10_26  and  N8_27 
REMARK    8  A    between atoms: C10_26  and  O4_31 
REMARK    9  A    between atoms: C11_33  and  N9_34 
REMARK   10  A    between atoms: N9_34  and  O5_36 
REMARK   11  A    between atoms: C12_38  and  O6_39 
REMARK   12  A    between atoms: N10_41  and  O7_42 
ROOT
HETATM    1  N2  UNL     1       0.144  11.845  52.478  1.00  0.00    -0.133 N 
HETATM    2  C5  UNL     1       0.928  11.527  53.528  1.00  0.00     0.685 A 
HETATM    3  N3  UNL     1       1.018  10.327  54.066  1.00  0.00    -0.234 N 
ATOM      4  H31 UNL     1       1.611  10.087  54.861  1.00  0.00     0.174 HD
ATOM      5  H32 UNL     1       0.521   9.484  53.778  1.00  0.00     0.174 HD
HETATM    6  N4  UNL     1       1.577  12.628  53.902  1.00  0.00    -0.172 N 
ATOM      7  H4  UNL     1       2.243  12.693  54.673  1.00  0.00     0.186 HD
HETATM    8  C6  UNL     1       1.207  13.641  53.092  1.00  0.00     0.170 A 
HETATM    9  N5  UNL     1       1.361  14.946  52.797  1.00  0.00    -0.321 N 
ATOM     10  H5  UNL     1       1.979  15.581  53.301  1.00  0.00     0.169 HD
HETATM   11  C7  UNL     1       0.582  15.308  51.735  1.00  0.00     0.168 A 
HETATM   12  N10 UNL     1      -0.060  14.206  51.374  1.00  0.00    -0.184 N 
HETATM   13  C13 UNL     1       0.303  13.170  52.184  1.00  0.00     0.202 A 
ENDROOT
BRANCH  11  14
HETATM   14  C8  UNL     1       0.548  16.668  51.170  1.00  0.00     0.132 A 
HETATM   15  N6  UNL     1      -0.048  17.036  50.033  1.00  0.00    -0.283 N 
HETATM   16  N7  UNL     1       0.084  18.322  49.761  1.00  0.00    -0.198 N 
ATOM     17  H6  UNL     1      -0.555  16.386  49.432  1.00  0.00     0.188 HD
HETATM   18  C9  UNL     1      -0.483  18.954  48.587  1.00  0.00     0.300 C 
HETATM   19  C11 UNL     1       0.804  18.860  50.756  1.00  0.00     0.186 A 
HETATM   20  O3  UNL     1      -0.284  20.161  48.418  1.00  0.00    -0.266 OA
HETATM   21  C12 UNL     1       1.107  17.823  51.662  1.00  0.00     0.146 A 
BRANCH  18  22
HETATM   22  C10 UNL     1      -1.283  18.152  47.628  1.00  0.00     0.411 C 
BRANCH  22  23
HETATM   23  N8  UNL     1      -1.877  19.040  46.627  1.00  0.00    -0.044 N 
ATOM     24  H83 UNL     1      -2.175  19.929  47.029  1.00  0.00     0.278 HD
ATOM     25  H82 UNL     1      -1.184  19.403  45.972  1.00  0.00     0.278 HD
ATOM     26  H81 UNL     1      -2.640  18.555  46.154  1.00  0.00     0.278 HD
ENDBRANCH  22  23
BRANCH  22  27
HETATM   27  O4  UNL     1      -0.387  17.261  46.997  1.00  0.00    -0.363 OA
ATOM     28  H4  UNL     1       0.010  17.737  46.277  1.00  0.00     0.212 HD
ENDBRANCH  22  27
ENDBRANCH  18  22
BRANCH  19  29
HETATM   29  N9  UNL     1       1.186  20.236  50.859  1.00  0.00    -0.249 N 
ATOM     30  H9  UNL     1       2.136  20.520  50.619  1.00  0.00     0.196 HD
BRANCH  29  31
HETATM   31  O5  UNL     1       0.290  21.163  51.275  1.00  0.00    -0.288 OA
ATOM     32  H5  UNL     1       0.409  21.603  52.109  1.00  0.00     0.244 HD
ENDBRANCH  29  31
ENDBRANCH  19  29
BRANCH  21  33
HETATM   33  O6  UNL     1       1.833  18.004  52.801  1.00  0.00    -0.355 OA
ATOM     34  H6  UNL     1       2.240  18.797  53.128  1.00  0.00     0.218 HD
ENDBRANCH  21  33
ENDBRANCH  11  14
BRANCH  12  35
HETATM   35  O7  UNL     1      -0.962  14.020  50.364  1.00  0.00    -0.279 OA
ATOM     36  H7  UNL     1      -1.705  13.430  50.322  1.00  0.00     0.245 HD
ENDBRANCH  12  35
BRANCH   1  37
HETATM   37  C4  UNL     1      -0.700  10.984  51.733  1.00  0.00     0.174 C 
HETATM   38  C3  UNL     1      -2.063  10.755  52.116  1.00  0.00     0.178 C 
BRANCH  38  39
HETATM   39  N1  UNL     1      -2.838  11.107  53.216  1.00  0.00    -0.240 N 
HETATM   40  C2  UNL     1      -2.372  11.566  54.485  1.00  0.00     0.188 C 
BRANCH  39  41
HETATM   41  O1  UNL     1      -4.230  11.001  53.139  1.00  0.00    -0.281 OA
HETATM   42  C1  UNL     1      -4.568  10.292  54.307  1.00  0.00     0.238 C 
ENDBRANCH  39  41
ENDBRANCH  38  39
BRANCH  38  43
HETATM   43  O2  UNL     1      -2.717  10.041  51.205  1.00  0.00    -0.344 OA
ATOM     44  H2  UNL     1      -3.568   9.737  51.495  1.00  0.00     0.219 HD
ENDBRANCH  38  43
ENDBRANCH   1  37
TORSDOF 12
ENDMDL
