MODEL 1
REMARK VINA RESULT: -7.692144935      0.000      0.000
REMARK  11 active torsions:
REMARK  status: ('A' for Active; 'I' for Inactive)
REMARK    1  A    between atoms: O1_2  and  C2_3 
REMARK    2  A    between atoms: C2_3  and  O2_4 
REMARK    3  A    between atoms: C2_3  and  C3_6 
REMARK    4  A    between atoms: C3_6  and  C4_7 
REMARK    5  A    between atoms: C4_7  and  N1_8 
REMARK    6  A    between atoms: C5_11  and  C6_12 
REMARK       I    between atoms: C6_12  and  N3_14 
REMARK    7  A    between atoms: N3_14  and  C7_16 
REMARK    8  A    between atoms: C8_17  and  O4_18 
REMARK    9  A    between atoms: N4_20  and  O5_21 
REMARK   10  A    between atoms: N5_23  and  O6_24 
REMARK   11  A    between atoms: C11_31  and  N7_32 
ROOT
HETATM    1  N1  UNL     1      -1.064  11.705  52.205  1.00  0.00    -0.256 N 
HETATM    2  N2  UNL     1      -0.504  12.904  52.347  1.00  0.00    -0.289 N 
ATOM      3  H2  UNL     1      -1.125  13.712  52.374  1.00  0.00     0.187 HD
HETATM    4  C5  UNL     1       0.820  13.134  52.458  1.00  0.00     0.145 A 
HETATM    5  C10 UNL     1       1.651  12.047  52.420  1.00  0.00     0.104 A 
HETATM    6  N6  UNL     1       2.978  12.115  52.527  1.00  0.00    -0.188 N 
ATOM      7  H6  UNL     1       3.406  13.033  52.637  1.00  0.00     0.184 HD
HETATM    8  C11 UNL     1       3.798  11.021  52.498  1.00  0.00     0.679 A 
HETATM    9  N8  UNL     1       3.264   9.806  52.354  1.00  0.00    -0.155 N 
ATOM     10  H8  UNL     1       3.873   8.988  52.332  1.00  0.00     0.187 HD
HETATM   11  C12 UNL     1       1.914   9.644  52.238  1.00  0.00     0.277 A 
HETATM   12  O8  UNL     1       1.421   8.493  52.104  1.00  0.00    -0.266 OA
HETATM   13  C13 UNL     1       1.127  10.767  52.273  1.00  0.00     0.132 A 
HETATM   14  C14 UNL     1      -0.252  10.655  52.169  1.00  0.00     0.280 A 
HETATM   15  O9  UNL     1      -0.764   9.495  52.038  1.00  0.00    -0.265 OA
ENDROOT
BRANCH   4  16
HETATM   16  C6  UNL     1       1.321  14.500  52.623  1.00  0.00     0.276 C 
HETATM   17  O3  UNL     1       1.828  14.927  53.646  1.00  0.00    -0.266 OA
HETATM   18  N3  UNL     1       1.203  15.376  51.519  1.00  0.00    -0.313 N 
ATOM     19  H3  UNL     1       0.773  14.973  50.687  1.00  0.00     0.169 HD
BRANCH  18  20
HETATM   20  C7  UNL     1       1.590  16.712  51.401  1.00  0.00     0.163 A 
HETATM   21  C8  UNL     1       0.920  17.897  51.424  1.00  0.00     0.221 A 
HETATM   22  N4  UNL     1       1.819  18.923  51.242  1.00  0.00    -0.107 N 
HETATM   23  N5  UNL     1       3.008  18.404  51.109  1.00  0.00    -0.091 N 
HETATM   24  C9  UNL     1       2.925  17.077  51.197  1.00  0.00     0.320 A 
HETATM   25  O7  UNL     1       3.886  16.280  51.111  1.00  0.00    -0.262 OA
BRANCH  21  26
HETATM   26  O4  UNL     1      -0.435  18.095  51.599  1.00  0.00    -0.341 OA
ATOM     27  H4  UNL     1      -0.913  18.138  52.419  1.00  0.00     0.219 HD
ENDBRANCH  21  26
BRANCH  22  28
HETATM   28  O5  UNL     1       1.479  20.242  51.212  1.00  0.00    -0.264 OA
ATOM     29  H5  UNL     1       2.088  20.947  51.022  1.00  0.00     0.247 HD
ENDBRANCH  22  28
BRANCH  23  30
HETATM   30  O6  UNL     1       4.181  19.107  50.908  1.00  0.00    -0.263 OA
ATOM     31  H6  UNL     1       5.051  18.733  50.852  1.00  0.00     0.247 HD
ENDBRANCH  23  30
ENDBRANCH  18  20
ENDBRANCH   4  16
BRANCH   1  32
HETATM   32  C4  UNL     1      -2.489  11.641  52.076  1.00  0.00     0.157 C 
BRANCH  32  33
HETATM   33  C3  UNL     1      -3.267  11.612  53.337  1.00  0.00     0.082 C 
BRANCH  33  34
HETATM   34  C2  UNL     1      -3.982  10.338  53.663  1.00  0.00     0.257 C 
BRANCH  34  35
HETATM   35  O1  UNL     1      -5.244  10.442  52.999  1.00  0.00    -0.366 OA
HETATM   36  C1  UNL     1      -6.156   9.693  53.767  1.00  0.00     0.204 C 
ENDBRANCH  34  35
BRANCH  34  37
HETATM   37  O2  UNL     1      -4.312  10.335  55.040  1.00  0.00    -0.371 OA
ATOM     38  H2  UNL     1      -3.758  11.011  55.414  1.00  0.00     0.212 HD
ENDBRANCH  34  37
ENDBRANCH  33  34
ENDBRANCH  32  33
ENDBRANCH   1  32
BRANCH   8  39
HETATM   39  N7  UNL     1       5.092  11.166  52.608  1.00  0.00    -0.234 N 
ATOM     40  H72 UNL     1       5.482  11.831  53.277  1.00  0.00     0.174 HD
ATOM     41  H71 UNL     1       5.722  10.614  52.025  1.00  0.00     0.174 HD
ENDBRANCH   8  39
TORSDOF 11
ENDMDL
MODEL 2
REMARK VINA RESULT: -7.472273189      0.304      1.572
REMARK  11 active torsions:
REMARK  status: ('A' for Active; 'I' for Inactive)
REMARK    1  A    between atoms: O1_2  and  C2_3 
REMARK    2  A    between atoms: C2_3  and  O2_4 
REMARK    3  A    between atoms: C2_3  and  C3_6 
REMARK    4  A    between atoms: C3_6  and  C4_7 
REMARK    5  A    between atoms: C4_7  and  N1_8 
REMARK    6  A    between atoms: C5_11  and  C6_12 
REMARK       I    between atoms: C6_12  and  N3_14 
REMARK    7  A    between atoms: N3_14  and  C7_16 
REMARK    8  A    between atoms: C8_17  and  O4_18 
REMARK    9  A    between atoms: N4_20  and  O5_21 
REMARK   10  A    between atoms: N5_23  and  O6_24 
REMARK   11  A    between atoms: C11_31  and  N7_32 
ROOT
HETATM    1  N1  UNL     1      -0.953  11.707  52.075  1.00  0.00    -0.256 N 
HETATM    2  N2  UNL     1      -0.359  12.893  52.188  1.00  0.00    -0.289 N 
ATOM      3  H2  UNL     1      -0.955  13.721  52.166  1.00  0.00     0.187 HD
HETATM    4  C5  UNL     1       0.968  13.086  52.331  1.00  0.00     0.145 A 
HETATM    5  C10 UNL     1       1.764  11.973  52.360  1.00  0.00     0.104 A 
HETATM    6  N6  UNL     1       3.089  12.003  52.505  1.00  0.00    -0.188 N 
ATOM      7  H6  UNL     1       3.543  12.912  52.593  1.00  0.00     0.184 HD
HETATM    8  C11 UNL     1       3.873  10.884  52.541  1.00  0.00     0.679 A 
HETATM    9  N8  UNL     1       3.304   9.682  52.428  1.00  0.00    -0.155 N 
ATOM     10  H8  UNL     1       3.887   8.845  52.455  1.00  0.00     0.187 HD
HETATM   11  C12 UNL     1       1.954   9.558  52.277  1.00  0.00     0.277 A 
HETATM   12  O8  UNL     1       1.429   8.418  52.171  1.00  0.00    -0.266 OA
HETATM   13  C13 UNL     1       1.203  10.705  52.245  1.00  0.00     0.132 A 
HETATM   14  C14 UNL     1      -0.176  10.632  52.104  1.00  0.00     0.280 A 
HETATM   15  O9  UNL     1      -0.720   9.484  52.000  1.00  0.00    -0.265 OA
ENDROOT
BRANCH   4  16
HETATM   16  C6  UNL     1       1.507  14.441  52.460  1.00  0.00     0.276 C 
HETATM   17  O3  UNL     1       1.914  14.922  53.503  1.00  0.00    -0.266 OA
HETATM   18  N3  UNL     1       1.554  15.238  51.292  1.00  0.00    -0.313 N 
ATOM     19  H3  UNL     1       1.204  14.791  50.446  1.00  0.00     0.169 HD
BRANCH  18  20
HETATM   20  C7  UNL     1       2.011  16.546  51.129  1.00  0.00     0.163 A 
HETATM   21  C8  UNL     1       3.236  17.103  50.919  1.00  0.00     0.221 A 
HETATM   22  N4  UNL     1       3.101  18.470  50.848  1.00  0.00    -0.107 N 
HETATM   23  N5  UNL     1       1.840  18.764  51.007  1.00  0.00    -0.091 N 
HETATM   24  C9  UNL     1       1.142  17.642  51.180  1.00  0.00     0.320 A 
HETATM   25  O7  UNL     1      -0.094  17.574  51.358  1.00  0.00    -0.262 OA
BRANCH  21  26
HETATM   26  O4  UNL     1       4.446  16.451  50.791  1.00  0.00    -0.341 OA
ATOM     27  H4  UNL     1       5.198  16.720  50.277  1.00  0.00     0.219 HD
ENDBRANCH  21  26
BRANCH  22  28
HETATM   28  O5  UNL     1       4.136  19.333  50.645  1.00  0.00    -0.264 OA
ATOM     29  H5  UNL     1       4.812  19.212  49.988  1.00  0.00     0.247 HD
ENDBRANCH  22  28
BRANCH  23  30
HETATM   30  O6  UNL     1       1.298  20.035  50.999  1.00  0.00    -0.263 OA
ATOM     31  H6  UNL     1       0.377  20.246  50.906  1.00  0.00     0.247 HD
ENDBRANCH  23  30
ENDBRANCH  18  20
ENDBRANCH   4  16
BRANCH   1  32
HETATM   32  C4  UNL     1      -2.376  11.683  51.904  1.00  0.00     0.157 C 
BRANCH  32  33
HETATM   33  C3  UNL     1      -3.190  11.671  53.143  1.00  0.00     0.082 C 
BRANCH  33  34
HETATM   34  C2  UNL     1      -3.854  10.379  53.504  1.00  0.00     0.257 C 
BRANCH  34  35
HETATM   35  O1  UNL     1      -5.080  10.375  52.767  1.00  0.00    -0.366 OA
HETATM   36  C1  UNL     1      -5.996   9.628  53.531  1.00  0.00     0.204 C 
ENDBRANCH  34  35
BRANCH  34  37
HETATM   37  O2  UNL     1      -4.262  10.434  54.858  1.00  0.00    -0.371 OA
ATOM     38  H2  UNL     1      -4.346  11.364  55.040  1.00  0.00     0.212 HD
ENDBRANCH  34  37
ENDBRANCH  33  34
ENDBRANCH  32  33
ENDBRANCH   1  32
BRANCH   8  39
HETATM   39  N7  UNL     1       5.168  10.994  52.686  1.00  0.00    -0.234 N 
ATOM     40  H72 UNL     1       5.768  11.140  51.874  1.00  0.00     0.174 HD
ATOM     41  H71 UNL     1       5.586  10.933  53.615  1.00  0.00     0.174 HD
ENDBRANCH   8  39
TORSDOF 11
ENDMDL
MODEL 3
REMARK VINA RESULT: -7.446669513      2.400      7.666
REMARK  11 active torsions:
REMARK  status: ('A' for Active; 'I' for Inactive)
REMARK    1  A    between atoms: O1_2  and  C2_3 
REMARK    2  A    between atoms: C2_3  and  O2_4 
REMARK    3  A    between atoms: C2_3  and  C3_6 
REMARK    4  A    between atoms: C3_6  and  C4_7 
REMARK    5  A    between atoms: C4_7  and  N1_8 
REMARK    6  A    between atoms: C5_11  and  C6_12 
REMARK       I    between atoms: C6_12  and  N3_14 
REMARK    7  A    between atoms: N3_14  and  C7_16 
REMARK    8  A    between atoms: C8_17  and  O4_18 
REMARK    9  A    between atoms: N4_20  and  O5_21 
REMARK   10  A    between atoms: N5_23  and  O6_24 
REMARK   11  A    between atoms: C11_31  and  N7_32 
ROOT
HETATM    1  N1  UNL     1       3.617  14.191  50.438  1.00  0.00    -0.256 N 
HETATM    2  N2  UNL     1       2.357  13.767  50.499  1.00  0.00    -0.289 N 
ATOM      3  H2  UNL     1       2.189  12.771  50.358  1.00  0.00     0.187 HD
HETATM    4  C5  UNL     1       1.284  14.551  50.733  1.00  0.00     0.145 A 
HETATM    5  C10 UNL     1       1.513  15.887  50.921  1.00  0.00     0.104 A 
HETATM    6  N6  UNL     1       0.558  16.783  51.170  1.00  0.00    -0.188 N 
ATOM      7  H6  UNL     1      -0.407  16.457  51.218  1.00  0.00     0.184 HD
HETATM    8  C11 UNL     1       0.800  18.114  51.365  1.00  0.00     0.679 A 
HETATM    9  N8  UNL     1       2.053  18.568  51.307  1.00  0.00    -0.155 N 
ATOM     10  H8  UNL     1       2.236  19.561  51.452  1.00  0.00     0.187 HD
HETATM   11  C12 UNL     1       3.094  17.720  51.057  1.00  0.00     0.277 A 
HETATM   12  O8  UNL     1       4.273  18.160  51.006  1.00  0.00    -0.266 OA
HETATM   13  C13 UNL     1       2.808  16.392  50.868  1.00  0.00     0.132 A 
HETATM   14  C14 UNL     1       3.832  15.488  50.621  1.00  0.00     0.280 A 
HETATM   15  O9  UNL     1       5.030  15.920  50.571  1.00  0.00    -0.265 OA
ENDROOT
BRANCH   4  16
HETATM   16  C6  UNL     1      -0.057  13.968  50.791  1.00  0.00     0.276 C 
HETATM   17  O3  UNL     1      -0.998  14.341  50.112  1.00  0.00    -0.266 OA
HETATM   18  N3  UNL     1      -0.268  12.904  51.699  1.00  0.00    -0.313 N 
ATOM     19  H3  UNL     1       0.549  12.628  52.243  1.00  0.00     0.169 HD
BRANCH  18  20
HETATM   20  C7  UNL     1      -1.429  12.175  51.958  1.00  0.00     0.163 A 
HETATM   21  C8  UNL     1      -2.439  11.695  51.181  1.00  0.00     0.221 A 
HETATM   22  N4  UNL     1      -3.352  11.049  51.982  1.00  0.00    -0.107 N 
HETATM   23  N5  UNL     1      -2.933  11.118  53.215  1.00  0.00    -0.091 N 
HETATM   24  C9  UNL     1      -1.780  11.786  53.255  1.00  0.00     0.320 A 
HETATM   25  O7  UNL     1      -1.114  12.028  54.286  1.00  0.00    -0.262 OA
BRANCH  21  26
HETATM   26  O4  UNL     1      -2.576  11.810  49.812  1.00  0.00    -0.341 OA
ATOM     27  H4  UNL     1      -3.374  11.964  49.321  1.00  0.00     0.219 HD
ENDBRANCH  21  26
BRANCH  22  28
HETATM   28  O5  UNL     1      -4.487  10.452  51.523  1.00  0.00    -0.264 OA
ATOM     29  H5  UNL     1      -4.625   9.512  51.499  1.00  0.00     0.247 HD
ENDBRANCH  22  28
BRANCH  23  30
HETATM   30  O6  UNL     1      -3.573  10.588  54.319  1.00  0.00    -0.263 OA
ATOM     31  H6  UNL     1      -3.171  10.399  55.159  1.00  0.00     0.247 HD
ENDBRANCH  23  30
ENDBRANCH  18  20
ENDBRANCH   4  16
BRANCH   1  32
HETATM   32  C4  UNL     1       4.636  13.225  50.155  1.00  0.00     0.157 C 
BRANCH  32  33
HETATM   33  C3  UNL     1       5.236  12.535  51.322  1.00  0.00     0.082 C 
BRANCH  33  34
HETATM   34  C2  UNL     1       4.464  11.393  51.904  1.00  0.00     0.257 C 
BRANCH  34  35
HETATM   35  O1  UNL     1       3.654  10.908  50.829  1.00  0.00    -0.366 OA
HETATM   36  C1  UNL     1       2.494  10.372  51.420  1.00  0.00     0.204 C 
ENDBRANCH  34  35
BRANCH  34  37
HETATM   37  O2  UNL     1       3.532  11.898  52.841  1.00  0.00    -0.371 OA
ATOM     38  H2  UNL     1       4.063  12.143  53.590  1.00  0.00     0.212 HD
ENDBRANCH  34  37
ENDBRANCH  33  34
ENDBRANCH  32  33
ENDBRANCH   1  32
BRANCH   8  39
HETATM   39  N7  UNL     1      -0.191  18.934  51.605  1.00  0.00    -0.234 N 
ATOM     40  H72 UNL     1      -0.347  19.745  51.007  1.00  0.00     0.174 HD
ATOM     41  H71 UNL     1      -0.814  18.766  52.394  1.00  0.00     0.174 HD
ENDBRANCH   8  39
TORSDOF 11
ENDMDL
MODEL 4
REMARK VINA RESULT: -7.402742747      1.679      2.674
REMARK  11 active torsions:
REMARK  status: ('A' for Active; 'I' for Inactive)
REMARK    1  A    between atoms: O1_2  and  C2_3 
REMARK    2  A    between atoms: C2_3  and  O2_4 
REMARK    3  A    between atoms: C2_3  and  C3_6 
REMARK    4  A    between atoms: C3_6  and  C4_7 
REMARK    5  A    between atoms: C4_7  and  N1_8 
REMARK    6  A    between atoms: C5_11  and  C6_12 
REMARK       I    between atoms: C6_12  and  N3_14 
REMARK    7  A    between atoms: N3_14  and  C7_16 
REMARK    8  A    between atoms: C8_17  and  O4_18 
REMARK    9  A    between atoms: N4_20  and  O5_21 
REMARK   10  A    between atoms: N5_23  and  O6_24 
REMARK   11  A    between atoms: C11_31  and  N7_32 
ROOT
HETATM    1  N1  UNL     1       0.615  10.551  51.085  1.00  0.00    -0.256 N 
HETATM    2  N2  UNL     1       1.134  11.736  50.772  1.00  0.00    -0.289 N 
ATOM      3  H2  UNL     1       0.520  12.415  50.325  1.00  0.00     0.187 HD
HETATM    4  C5  UNL     1       2.410  12.108  51.001  1.00  0.00     0.145 A 
HETATM    5  C10 UNL     1       3.233  11.194  51.601  1.00  0.00     0.104 A 
HETATM    6  N6  UNL     1       4.512  11.420  51.899  1.00  0.00    -0.188 N 
ATOM      7  H6  UNL     1       4.909  12.328  51.660  1.00  0.00     0.184 HD
HETATM    8  C11 UNL     1       5.322  10.501  52.507  1.00  0.00     0.679 A 
HETATM    9  N8  UNL     1       4.828   9.305  52.831  1.00  0.00    -0.155 N 
ATOM     10  H8  UNL     1       5.430   8.617  53.284  1.00  0.00     0.187 HD
HETATM   11  C12 UNL     1       3.528   8.988  52.562  1.00  0.00     0.277 A 
HETATM   12  O8  UNL     1       3.073   7.856  52.873  1.00  0.00    -0.266 OA
HETATM   13  C13 UNL     1       2.749   9.938  51.952  1.00  0.00     0.132 A 
HETATM   14  C14 UNL     1       1.418   9.669  51.667  1.00  0.00     0.280 A 
HETATM   15  O9  UNL     1       0.943   8.528  51.980  1.00  0.00    -0.265 OA
ENDROOT
BRANCH   4  16
HETATM   16  C6  UNL     1       2.867  13.447  50.623  1.00  0.00     0.276 C 
HETATM   17  O3  UNL     1       3.722  13.670  49.784  1.00  0.00    -0.266 OA
HETATM   18  N3  UNL     1       2.272  14.549  51.282  1.00  0.00    -0.313 N 
ATOM     19  H3  UNL     1       1.563  14.311  51.974  1.00  0.00     0.169 HD
BRANCH  18  20
HETATM   20  C7  UNL     1       2.514  15.914  51.123  1.00  0.00     0.163 A 
HETATM   21  C8  UNL     1       3.620  16.652  50.829  1.00  0.00     0.221 A 
HETATM   22  N4  UNL     1       3.279  17.984  50.812  1.00  0.00    -0.107 N 
HETATM   23  N5  UNL     1       2.007  18.082  51.084  1.00  0.00    -0.091 N 
HETATM   24  C9  UNL     1       1.500  16.865  51.279  1.00  0.00     0.320 A 
HETATM   25  O7  UNL     1       0.308  16.608  51.557  1.00  0.00    -0.262 OA
BRANCH  21  26
HETATM   26  O4  UNL     1       4.898  16.191  50.581  1.00  0.00    -0.341 OA
ATOM     27  H4  UNL     1       5.714  16.672  50.664  1.00  0.00     0.219 HD
ENDBRANCH  21  26
BRANCH  22  28
HETATM   28  O5  UNL     1       4.153  18.996  50.551  1.00  0.00    -0.264 OA
ATOM     29  H5  UNL     1       3.932  19.782  50.065  1.00  0.00     0.247 HD
ENDBRANCH  22  28
BRANCH  23  30
HETATM   30  O6  UNL     1       1.283  19.257  51.161  1.00  0.00    -0.263 OA
ATOM     31  H6  UNL     1       1.135  19.769  51.947  1.00  0.00     0.247 HD
ENDBRANCH  23  30
ENDBRANCH  18  20
ENDBRANCH   4  16
BRANCH   1  32
HETATM   32  C4  UNL     1      -0.757  10.311  50.748  1.00  0.00     0.157 C 
BRANCH  32  33
HETATM   33  C3  UNL     1      -1.743  10.456  51.846  1.00  0.00     0.082 C 
BRANCH  33  34
HETATM   34  C2  UNL     1      -2.010  11.844  52.337  1.00  0.00     0.257 C 
BRANCH  34  35
HETATM   35  O1  UNL     1      -3.388  11.843  52.720  1.00  0.00    -0.366 OA
HETATM   36  C1  UNL     1      -3.483  11.003  53.846  1.00  0.00     0.204 C 
ENDBRANCH  34  35
BRANCH  34  37
HETATM   37  O2  UNL     1      -1.954  12.738  51.241  1.00  0.00    -0.371 OA
ATOM     38  H2  UNL     1      -1.307  12.355  50.660  1.00  0.00     0.212 HD
ENDBRANCH  34  37
ENDBRANCH  33  34
ENDBRANCH  32  33
ENDBRANCH   1  32
BRANCH   8  39
HETATM   39  N7  UNL     1       6.569  10.796  52.768  1.00  0.00    -0.234 N 
ATOM     40  H72 UNL     1       7.116  11.355  52.114  1.00  0.00     0.174 HD
ATOM     41  H71 UNL     1       7.004  10.466  53.630  1.00  0.00     0.174 HD
ENDBRANCH   8  39
TORSDOF 11
ENDMDL
MODEL 5
REMARK VINA RESULT: -7.365635498      1.762      2.242
REMARK  11 active torsions:
REMARK  status: ('A' for Active; 'I' for Inactive)
REMARK    1  A    between atoms: O1_2  and  C2_3 
REMARK    2  A    between atoms: C2_3  and  O2_4 
REMARK    3  A    between atoms: C2_3  and  C3_6 
REMARK    4  A    between atoms: C3_6  and  C4_7 
REMARK    5  A    between atoms: C4_7  and  N1_8 
REMARK    6  A    between atoms: C5_11  and  C6_12 
REMARK       I    between atoms: C6_12  and  N3_14 
REMARK    7  A    between atoms: N3_14  and  C7_16 
REMARK    8  A    between atoms: C8_17  and  O4_18 
REMARK    9  A    between atoms: N4_20  and  O5_21 
REMARK   10  A    between atoms: N5_23  and  O6_24 
REMARK   11  A    between atoms: C11_31  and  N7_32 
ROOT
HETATM    1  N1  UNL     1       0.109  10.640  52.100  1.00  0.00    -0.256 N 
HETATM    2  N2  UNL     1       0.363  11.940  52.228  1.00  0.00    -0.289 N 
ATOM      3  H2  UNL     1      -0.435  12.573  52.263  1.00  0.00     0.187 HD
HETATM    4  C5  UNL     1       1.593  12.486  52.314  1.00  0.00     0.145 A 
HETATM    5  C10 UNL     1       2.663  11.632  52.265  1.00  0.00     0.104 A 
HETATM    6  N6  UNL     1       3.935  12.021  52.347  1.00  0.00    -0.188 N 
ATOM      7  H6  UNL     1       4.129  13.017  52.446  1.00  0.00     0.184 HD
HETATM    8  C11 UNL     1       4.995  11.158  52.306  1.00  0.00     0.679 A 
HETATM    9  N8  UNL     1       4.769   9.849  52.176  1.00  0.00    -0.155 N 
ATOM     10  H8  UNL     1       5.559   9.204  52.145  1.00  0.00     0.187 HD
HETATM   11  C12 UNL     1       3.497   9.364  52.086  1.00  0.00     0.277 A 
HETATM   12  O8  UNL     1       3.297   8.126  51.964  1.00  0.00    -0.266 OA
HETATM   13  C13 UNL     1       2.462  10.262  52.131  1.00  0.00     0.132 A 
HETATM   14  C14 UNL     1       1.150   9.818  52.053  1.00  0.00     0.280 A 
HETATM   15  O9  UNL     1       0.934   8.567  51.935  1.00  0.00    -0.265 OA
ENDROOT
BRANCH   4  16
HETATM   16  C6  UNL     1       1.750  13.933  52.465  1.00  0.00     0.276 C 
HETATM   17  O3  UNL     1       1.727  14.519  53.534  1.00  0.00    -0.266 OA
HETATM   18  N3  UNL     1       1.939  14.696  51.289  1.00  0.00    -0.313 N 
ATOM     19  H3  UNL     1       1.951  14.161  50.421  1.00  0.00     0.169 HD
BRANCH  18  20
HETATM   20  C7  UNL     1       2.111  16.073  51.142  1.00  0.00     0.163 A 
HETATM   21  C8  UNL     1       1.269  17.142  51.179  1.00  0.00     0.221 A 
HETATM   22  N4  UNL     1       1.991  18.290  50.952  1.00  0.00    -0.107 N 
HETATM   23  N5  UNL     1       3.240  17.957  50.778  1.00  0.00    -0.091 N 
HETATM   24  C9  UNL     1       3.365  16.635  50.882  1.00  0.00     0.320 A 
HETATM   25  O7  UNL     1       4.433  15.993  50.768  1.00  0.00    -0.262 OA
BRANCH  21  26
HETATM   26  O4  UNL     1      -0.094  17.133  51.404  1.00  0.00    -0.341 OA
ATOM     27  H4  UNL     1      -0.590  17.704  51.980  1.00  0.00     0.219 HD
ENDBRANCH  21  26
BRANCH  22  28
HETATM   28  O5  UNL     1       1.453  19.541  50.921  1.00  0.00    -0.264 OA
ATOM     29  H5  UNL     1       1.668  20.201  50.272  1.00  0.00     0.247 HD
ENDBRANCH  22  28
BRANCH  23  30
HETATM   30  O6  UNL     1       4.283  18.828  50.524  1.00  0.00    -0.263 OA
ATOM     31  H6  UNL     1       4.702  19.396  51.160  1.00  0.00     0.247 HD
ENDBRANCH  23  30
ENDBRANCH  18  20
ENDBRANCH   4  16
BRANCH   1  32
HETATM   32  C4  UNL     1      -1.261  10.231  51.997  1.00  0.00     0.157 C 
BRANCH  32  33
HETATM   33  C3  UNL     1      -1.954  10.553  50.727  1.00  0.00     0.082 C 
BRANCH  33  34
HETATM   34  C2  UNL     1      -2.677  11.861  50.662  1.00  0.00     0.257 C 
BRANCH  34  35
HETATM   35  O1  UNL     1      -1.720  12.788  50.142  1.00  0.00    -0.366 OA
HETATM   36  C1  UNL     1      -1.384  12.325  48.855  1.00  0.00     0.204 C 
ENDBRANCH  34  35
BRANCH  34  37
HETATM   37  O2  UNL     1      -2.922  12.317  51.980  1.00  0.00    -0.371 OA
ATOM     38  H2  UNL     1      -3.798  12.004  52.176  1.00  0.00     0.212 HD
ENDBRANCH  34  37
ENDBRANCH  33  34
ENDBRANCH  32  33
ENDBRANCH   1  32
BRANCH   8  39
HETATM   39  N7  UNL     1       6.217  11.615  52.392  1.00  0.00    -0.234 N 
ATOM     40  H72 UNL     1       6.395  12.548  52.764  1.00  0.00     0.174 HD
ATOM     41  H71 UNL     1       7.002  11.038  52.087  1.00  0.00     0.174 HD
ENDBRANCH   8  39
TORSDOF 11
ENDMDL
