MODEL 1
REMARK VINA RESULT: -7.720280555      0.000      0.000
REMARK  11 active torsions:
REMARK  status: ('A' for Active; 'I' for Inactive)
REMARK    1  A    between atoms: O1_2  and  C2_3 
REMARK    2  A    between atoms: C2_3  and  C3_4 
REMARK    3  A    between atoms: C3_4  and  O2_5 
REMARK    4  A    between atoms: C3_4  and  C4_7 
REMARK    5  A    between atoms: C4_7  and  N1_8 
REMARK    6  A    between atoms: N1_8  and  C5_10 
REMARK    7  A    between atoms: C6_13  and  N3_14 
REMARK    8  A    between atoms: C7_19  and  N5_20 
REMARK    9  A    between atoms: N5_20  and  C8_22 
REMARK   10  A    between atoms: C8_22  and  C9_23 
REMARK   11  A    between atoms: C9_23  and  O3_24 
ROOT
HETATM    1  C5  UNL     1      67.652  52.438  62.917  1.00  0.00     0.707 A 
HETATM    2  N2  UNL     1      67.196  51.183  62.753  1.00  0.00    -0.022 N 
ATOM      3  H2  UNL     1      66.753  50.951  61.864  1.00  0.00     0.203 HD
HETATM    4  C6  UNL     1      67.285  50.220  63.678  1.00  0.00     0.705 A 
HETATM    5  N4  UNL     1      67.879  50.548  64.860  1.00  0.00    -0.022 N 
ATOM      6  H4  UNL     1      67.964  49.841  65.589  1.00  0.00     0.203 HD
HETATM    7  C7  UNL     1      68.355  51.785  65.083  1.00  0.00     0.707 A 
HETATM    8  N6  UNL     1      68.232  52.713  64.103  1.00  0.00    -0.022 N 
ATOM      9  H6  UNL     1      68.591  53.654  64.267  1.00  0.00     0.203 HD
ENDROOT
BRANCH   1  10
HETATM   10  N1  UNL     1      67.544  53.341  61.990  1.00  0.00    -0.223 N 
ATOM     11  H1  UNL     1      68.315  53.971  61.772  1.00  0.00     0.177 HD
BRANCH  10  12
HETATM   12  C4  UNL     1      66.279  53.417  61.277  1.00  0.00     0.172 C 
BRANCH  12  13
HETATM   13  C3  UNL     1      66.452  54.102  59.934  1.00  0.00     0.160 C 
BRANCH  13  14
HETATM   14  C2  UNL     1      67.757  54.812  59.825  1.00  0.00     0.200 C 
BRANCH  14  15
HETATM   15  O1  UNL     1      68.673  54.106  59.072  1.00  0.00    -0.393 OA
HETATM   16  C1  UNL     1      69.971  54.511  59.318  1.00  0.00     0.201 C 
ENDBRANCH  14  15
ENDBRANCH  13  14
BRANCH  13  17
HETATM   17  O2  UNL     1      66.327  53.092  58.971  1.00  0.00    -0.392 OA
ATOM     18  H2  UNL     1      67.116  52.568  58.905  1.00  0.00     0.210 HD
ENDBRANCH  13  17
ENDBRANCH  12  13
ENDBRANCH  10  12
ENDBRANCH   1  10
BRANCH   4  19
HETATM   19  N3  UNL     1      66.839  49.018  63.499  1.00  0.00    -0.234 N 
ATOM     20  H32 UNL     1      66.087  48.667  64.092  1.00  0.00     0.174 HD
ATOM     21  H31 UNL     1      67.201  48.385  62.786  1.00  0.00     0.174 HD
ENDBRANCH   4  19
BRANCH   7  22
HETATM   22  N5  UNL     1      68.909  52.081  66.191  1.00  0.00    -0.223 N 
ATOM     23  H5  UNL     1      69.778  52.612  66.130  1.00  0.00     0.177 HD
BRANCH  22  24
HETATM   24  C8  UNL     1      68.464  51.760  67.503  1.00  0.00     0.164 C 
BRANCH  24  25
HETATM   25  C9  UNL     1      69.632  51.731  68.499  1.00  0.00     0.184 C 
BRANCH  25  26
HETATM   26  O3  UNL     1      69.407  50.821  69.512  1.00  0.00    -0.399 OA
ATOM     27  H3  UNL     1      70.030  50.105  69.480  1.00  0.00     0.209 HD
ENDBRANCH  25  26
ENDBRANCH  24  25
ENDBRANCH  22  24
ENDBRANCH   7  22
TORSDOF 11
ENDMDL
MODEL 2
REMARK VINA RESULT: -7.506377235      1.179      1.204
REMARK  11 active torsions:
REMARK  status: ('A' for Active; 'I' for Inactive)
REMARK    1  A    between atoms: O1_2  and  C2_3 
REMARK    2  A    between atoms: C2_3  and  C3_4 
REMARK    3  A    between atoms: C3_4  and  O2_5 
REMARK    4  A    between atoms: C3_4  and  C4_7 
REMARK    5  A    between atoms: C4_7  and  N1_8 
REMARK    6  A    between atoms: N1_8  and  C5_10 
REMARK    7  A    between atoms: C6_13  and  N3_14 
REMARK    8  A    between atoms: C7_19  and  N5_20 
REMARK    9  A    between atoms: N5_20  and  C8_22 
REMARK   10  A    between atoms: C8_22  and  C9_23 
REMARK   11  A    between atoms: C9_23  and  O3_24 
ROOT
HETATM    1  C5  UNL     1      67.347  52.650  62.775  1.00  0.00     0.707 A 
HETATM    2  N2  UNL     1      67.063  51.380  62.433  1.00  0.00    -0.022 N 
ATOM      3  H2  UNL     1      66.590  51.222  61.543  1.00  0.00     0.203 HD
HETATM    4  C6  UNL     1      67.359  50.311  63.182  1.00  0.00     0.705 A 
HETATM    5  N4  UNL     1      67.990  50.541  64.368  1.00  0.00    -0.022 N 
ATOM      6  H4  UNL     1      68.231  49.751  64.966  1.00  0.00     0.203 HD
HETATM    7  C7  UNL     1      68.301  51.787  64.765  1.00  0.00     0.707 A 
HETATM    8  N6  UNL     1      67.972  52.825  63.958  1.00  0.00    -0.022 N 
ATOM      9  H6  UNL     1      68.205  53.773  64.255  1.00  0.00     0.203 HD
ENDROOT
BRANCH   1  10
HETATM   10  N1  UNL     1      67.041  53.657  62.016  1.00  0.00    -0.223 N 
ATOM     11  H1  UNL     1      67.170  54.618  62.332  1.00  0.00     0.177 HD
BRANCH  10  12
HETATM   12  C4  UNL     1      66.506  53.360  60.697  1.00  0.00     0.172 C 
BRANCH  12  13
HETATM   13  C3  UNL     1      67.439  53.855  59.607  1.00  0.00     0.160 C 
BRANCH  13  14
HETATM   14  C2  UNL     1      68.404  54.874  60.109  1.00  0.00     0.200 C 
BRANCH  14  15
HETATM   15  O1  UNL     1      68.253  56.090  59.475  1.00  0.00    -0.393 OA
HETATM   16  C1  UNL     1      69.414  56.840  59.505  1.00  0.00     0.201 C 
ENDBRANCH  14  15
ENDBRANCH  13  14
BRANCH  13  17
HETATM   17  O2  UNL     1      68.093  52.717  59.117  1.00  0.00    -0.392 OA
ATOM     18  H2  UNL     1      68.280  52.789  58.188  1.00  0.00     0.210 HD
ENDBRANCH  13  17
ENDBRANCH  12  13
ENDBRANCH  10  12
ENDBRANCH   1  10
BRANCH   4  19
HETATM   19  N3  UNL     1      67.077  49.098  62.833  1.00  0.00    -0.234 N 
ATOM     20  H32 UNL     1      67.818  48.486  62.492  1.00  0.00     0.174 HD
ATOM     21  H31 UNL     1      66.137  48.704  62.880  1.00  0.00     0.174 HD
ENDBRANCH   4  19
BRANCH   7  22
HETATM   22  N5  UNL     1      68.891  51.990  65.876  1.00  0.00    -0.223 N 
ATOM     23  H5  UNL     1      69.825  52.394  65.819  1.00  0.00     0.177 HD
BRANCH  22  24
HETATM   24  C8  UNL     1      68.404  51.721  67.184  1.00  0.00     0.164 C 
BRANCH  24  25
HETATM   25  C9  UNL     1      69.471  52.013  68.249  1.00  0.00     0.184 C 
BRANCH  25  26
HETATM   26  O3  UNL     1      70.331  53.012  67.840  1.00  0.00    -0.399 OA
ATOM     27  H3  UNL     1      70.439  53.674  68.513  1.00  0.00     0.209 HD
ENDBRANCH  25  26
ENDBRANCH  24  25
ENDBRANCH  22  24
ENDBRANCH   7  22
TORSDOF 11
ENDMDL
MODEL 3
REMARK VINA RESULT: -7.244765890      1.418      6.778
REMARK  11 active torsions:
REMARK  status: ('A' for Active; 'I' for Inactive)
REMARK    1  A    between atoms: O1_2  and  C2_3 
REMARK    2  A    between atoms: C2_3  and  C3_4 
REMARK    3  A    between atoms: C3_4  and  O2_5 
REMARK    4  A    between atoms: C3_4  and  C4_7 
REMARK    5  A    between atoms: C4_7  and  N1_8 
REMARK    6  A    between atoms: N1_8  and  C5_10 
REMARK    7  A    between atoms: C6_13  and  N3_14 
REMARK    8  A    between atoms: C7_19  and  N5_20 
REMARK    9  A    between atoms: N5_20  and  C8_22 
REMARK   10  A    between atoms: C8_22  and  C9_23 
REMARK   11  A    between atoms: C9_23  and  O3_24 
ROOT
HETATM    1  C5  UNL     1      68.426  51.798  64.979  1.00  0.00     0.707 A 
HETATM    2  N2  UNL     1      67.941  50.548  64.881  1.00  0.00    -0.022 N 
ATOM      3  H2  UNL     1      68.119  49.907  65.654  1.00  0.00     0.203 HD
HETATM    4  C6  UNL     1      67.241  50.088  63.837  1.00  0.00     0.705 A 
HETATM    5  N4  UNL     1      67.014  50.958  62.812  1.00  0.00    -0.022 N 
ATOM      6  H4  UNL     1      66.484  50.644  61.999  1.00  0.00     0.203 HD
HETATM    7  C7  UNL     1      67.473  52.221  62.852  1.00  0.00     0.707 A 
HETATM    8  N6  UNL     1      68.175  52.620  63.940  1.00  0.00    -0.022 N 
ATOM      9  H6  UNL     1      68.526  53.578  63.975  1.00  0.00     0.203 HD
ENDROOT
BRANCH   1  10
HETATM   10  N1  UNL     1      69.101  52.200  66.012  1.00  0.00    -0.223 N 
ATOM     11  H1  UNL     1      69.980  52.707  65.908  1.00  0.00     0.177 HD
BRANCH  10  12
HETATM   12  C4  UNL     1      68.553  51.899  67.325  1.00  0.00     0.172 C 
BRANCH  12  13
HETATM   13  C3  UNL     1      69.655  51.549  68.309  1.00  0.00     0.160 C 
BRANCH  13  14
HETATM   14  C2  UNL     1      70.466  52.739  68.695  1.00  0.00     0.200 C 
BRANCH  14  15
HETATM   15  O1  UNL     1      70.829  53.498  67.602  1.00  0.00    -0.393 OA
HETATM   16  C1  UNL     1      72.167  53.845  67.631  1.00  0.00     0.201 C 
ENDBRANCH  14  15
ENDBRANCH  13  14
BRANCH  13  17
HETATM   17  O2  UNL     1      69.013  50.976  69.414  1.00  0.00    -0.392 OA
ATOM     18  H2  UNL     1      69.611  50.458  69.940  1.00  0.00     0.210 HD
ENDBRANCH  13  17
ENDBRANCH  12  13
ENDBRANCH  10  12
ENDBRANCH   1  10
BRANCH   4  19
HETATM   19  N3  UNL     1      66.783  48.881  63.763  1.00  0.00    -0.234 N 
ATOM     20  H32 UNL     1      66.118  48.550  64.462  1.00  0.00     0.174 HD
ATOM     21  H31 UNL     1      67.050  48.222  63.030  1.00  0.00     0.174 HD
ENDBRANCH   4  19
BRANCH   7  22
HETATM   22  N5  UNL     1      67.254  53.025  61.889  1.00  0.00    -0.223 N 
ATOM     23  H5  UNL     1      68.079  53.389  61.412  1.00  0.00     0.177 HD
BRANCH  22  24
HETATM   24  C8  UNL     1      65.999  53.478  61.397  1.00  0.00     0.164 C 
BRANCH  24  25
HETATM   25  C9  UNL     1      66.085  53.866  59.915  1.00  0.00     0.184 C 
BRANCH  25  26
HETATM   26  O3  UNL     1      65.064  53.294  59.183  1.00  0.00    -0.399 OA
ATOM     27  H3  UNL     1      64.322  53.077  59.735  1.00  0.00     0.209 HD
ENDBRANCH  25  26
ENDBRANCH  24  25
ENDBRANCH  22  24
ENDBRANCH   7  22
TORSDOF 11
ENDMDL
MODEL 4
REMARK VINA RESULT: -6.986011547      3.044      6.688
REMARK  11 active torsions:
REMARK  status: ('A' for Active; 'I' for Inactive)
REMARK    1  A    between atoms: O1_2  and  C2_3 
REMARK    2  A    between atoms: C2_3  and  C3_4 
REMARK    3  A    between atoms: C3_4  and  O2_5 
REMARK    4  A    between atoms: C3_4  and  C4_7 
REMARK    5  A    between atoms: C4_7  and  N1_8 
REMARK    6  A    between atoms: N1_8  and  C5_10 
REMARK    7  A    between atoms: C6_13  and  N3_14 
REMARK    8  A    between atoms: C7_19  and  N5_20 
REMARK    9  A    between atoms: N5_20  and  C8_22 
REMARK   10  A    between atoms: C8_22  and  C9_23 
REMARK   11  A    between atoms: C9_23  and  O3_24 
ROOT
HETATM    1  C5  UNL     1      66.725  53.303  61.425  1.00  0.00     0.707 A 
HETATM    2  N2  UNL     1      65.858  54.226  60.973  1.00  0.00    -0.022 N 
ATOM      3  H2  UNL     1      64.923  54.239  61.379  1.00  0.00     0.203 HD
HETATM    4  C6  UNL     1      66.141  55.130  60.026  1.00  0.00     0.705 A 
HETATM    5  N4  UNL     1      67.396  55.097  59.495  1.00  0.00    -0.022 N 
ATOM      6  H4  UNL     1      67.648  55.769  58.770  1.00  0.00     0.203 HD
HETATM    7  C7  UNL     1      68.307  54.198  59.905  1.00  0.00     0.707 A 
HETATM    8  N6  UNL     1      67.953  53.312  60.868  1.00  0.00    -0.022 N 
ATOM      9  H6  UNL     1      68.641  52.627  61.183  1.00  0.00     0.203 HD
ENDROOT
BRANCH   1  10
HETATM   10  N1  UNL     1      66.406  52.446  62.346  1.00  0.00    -0.223 N 
ATOM     11  H1  UNL     1      65.628  51.799  62.222  1.00  0.00     0.177 HD
BRANCH  10  12
HETATM   12  C4  UNL     1      67.203  52.446  63.563  1.00  0.00     0.172 C 
BRANCH  12  13
HETATM   13  C3  UNL     1      67.907  51.114  63.753  1.00  0.00     0.160 C 
BRANCH  13  14
HETATM   14  C2  UNL     1      68.037  50.356  62.476  1.00  0.00     0.200 C 
BRANCH  14  15
HETATM   15  O1  UNL     1      67.111  49.338  62.378  1.00  0.00    -0.393 OA
HETATM   16  C1  UNL     1      66.909  48.702  63.589  1.00  0.00     0.201 C 
ENDBRANCH  14  15
ENDBRANCH  13  14
BRANCH  13  17
HETATM   17  O2  UNL     1      69.157  51.419  64.306  1.00  0.00    -0.392 OA
ATOM     18  H2  UNL     1      69.151  52.258  64.752  1.00  0.00     0.210 HD
ENDBRANCH  13  17
ENDBRANCH  12  13
ENDBRANCH  10  12
ENDBRANCH   1  10
BRANCH   4  19
HETATM   19  N3  UNL     1      65.292  56.010  59.606  1.00  0.00    -0.234 N 
ATOM     20  H32 UNL     1      64.307  55.921  59.857  1.00  0.00     0.174 HD
ATOM     21  H31 UNL     1      65.551  56.808  59.025  1.00  0.00     0.174 HD
ENDBRANCH   4  19
BRANCH   7  22
HETATM   22  N5  UNL     1      69.476  54.178  59.402  1.00  0.00    -0.223 N 
ATOM     23  H5  UNL     1      69.648  53.461  58.696  1.00  0.00     0.177 HD
BRANCH  22  24
HETATM   24  C8  UNL     1      70.572  55.032  59.704  1.00  0.00     0.164 C 
BRANCH  24  25
HETATM   25  C9  UNL     1      70.174  56.511  59.597  1.00  0.00     0.184 C 
BRANCH  25  26
HETATM   26  O3  UNL     1      69.707  56.817  58.335  1.00  0.00    -0.399 OA
ATOM     27  H3  UNL     1      69.253  56.080  57.944  1.00  0.00     0.209 HD
ENDBRANCH  25  26
ENDBRANCH  24  25
ENDBRANCH  22  24
ENDBRANCH   7  22
TORSDOF 11
ENDMDL
MODEL 5
REMARK VINA RESULT: -6.962637756      2.406      6.769
REMARK  11 active torsions:
REMARK  status: ('A' for Active; 'I' for Inactive)
REMARK    1  A    between atoms: O1_2  and  C2_3 
REMARK    2  A    between atoms: C2_3  and  C3_4 
REMARK    3  A    between atoms: C3_4  and  O2_5 
REMARK    4  A    between atoms: C3_4  and  C4_7 
REMARK    5  A    between atoms: C4_7  and  N1_8 
REMARK    6  A    between atoms: N1_8  and  C5_10 
REMARK    7  A    between atoms: C6_13  and  N3_14 
REMARK    8  A    between atoms: C7_19  and  N5_20 
REMARK    9  A    between atoms: N5_20  and  C8_22 
REMARK   10  A    between atoms: C8_22  and  C9_23 
REMARK   11  A    between atoms: C9_23  and  O3_24 
ROOT
HETATM    1  C5  UNL     1      66.965  53.019  61.717  1.00  0.00     0.707 A 
HETATM    2  N2  UNL     1      65.890  53.531  61.091  1.00  0.00    -0.022 N 
ATOM      3  H2  UNL     1      64.977  53.387  61.522  1.00  0.00     0.203 HD
HETATM    4  C6  UNL     1      65.939  54.215  59.942  1.00  0.00     0.705 A 
HETATM    5  N4  UNL     1      67.167  54.397  59.381  1.00  0.00    -0.022 N 
ATOM      6  H4  UNL     1      67.245  54.913  58.504  1.00  0.00     0.203 HD
HETATM    7  C7  UNL     1      68.279  53.910  59.958  1.00  0.00     0.707 A 
HETATM    8  N6  UNL     1      68.158  53.226  61.122  1.00  0.00    -0.022 N 
ATOM      9  H6  UNL     1      68.999  52.854  61.565  1.00  0.00     0.203 HD
ENDROOT
BRANCH   1  10
HETATM   10  N1  UNL     1      66.870  52.361  62.832  1.00  0.00    -0.223 N 
ATOM     11  H1  UNL     1      66.646  52.833  63.708  1.00  0.00     0.177 HD
BRANCH  10  12
HETATM   12  C4  UNL     1      67.095  50.926  62.781  1.00  0.00     0.172 C 
BRANCH  12  13
HETATM   13  C3  UNL     1      67.989  50.473  63.921  1.00  0.00     0.160 C 
BRANCH  13  14
HETATM   14  C2  UNL     1      68.257  51.567  64.897  1.00  0.00     0.200 C 
BRANCH  14  15
HETATM   15  O1  UNL     1      67.834  51.244  66.170  1.00  0.00    -0.393 OA
HETATM   16  C1  UNL     1      68.627  51.823  67.143  1.00  0.00     0.201 C 
ENDBRANCH  14  15
ENDBRANCH  13  14
BRANCH  13  17
HETATM   17  O2  UNL     1      67.327  49.393  64.520  1.00  0.00    -0.392 OA
ATOM     18  H2  UNL     1      66.734  49.678  65.204  1.00  0.00     0.210 HD
ENDBRANCH  13  17
ENDBRANCH  12  13
ENDBRANCH  10  12
ENDBRANCH   1  10
BRANCH   4  19
HETATM   19  N3  UNL     1      64.892  54.699  59.357  1.00  0.00    -0.234 N 
ATOM     20  H32 UNL     1      64.976  55.542  58.788  1.00  0.00     0.174 HD
ATOM     21  H31 UNL     1      63.964  54.281  59.429  1.00  0.00     0.174 HD
ENDBRANCH   4  19
BRANCH   7  22
HETATM   22  N5  UNL     1      69.422  54.086  59.425  1.00  0.00    -0.223 N 
ATOM     23  H5  UNL     1      69.666  53.448  58.667  1.00  0.00     0.177 HD
BRANCH  22  24
HETATM   24  C8  UNL     1      70.400  55.064  59.758  1.00  0.00     0.164 C 
BRANCH  24  25
HETATM   25  C9  UNL     1      69.835  56.485  59.629  1.00  0.00     0.184 C 
BRANCH  25  26
HETATM   26  O3  UNL     1      69.702  56.857  58.306  1.00  0.00    -0.399 OA
ATOM     27  H3  UNL     1      68.794  56.827  58.027  1.00  0.00     0.209 HD
ENDBRANCH  25  26
ENDBRANCH  24  25
ENDBRANCH  22  24
ENDBRANCH   7  22
TORSDOF 11
ENDMDL
