MODEL 1
REMARK VINA RESULT: -7.389571341      0.000      0.000
REMARK  6 active torsions:
REMARK  status: ('A' for Active; 'I' for Inactive)
REMARK    1  A    between atoms: O1_2  and  C2_3 
REMARK    2  A    between atoms: C6_9  and  C7_10 
REMARK       I    between atoms: C7_10  and  N2_12 
REMARK    3  A    between atoms: N2_12  and  C8_14 
REMARK    4  A    between atoms: C8_14  and  C9_15 
REMARK    5  A    between atoms: C8_14  and  C10_18 
REMARK    6  A    between atoms: C9_15  and  O3_16 
ROOT
HETATM    1  C2  UNL     1      44.578  13.527  -0.049  1.00  0.00     0.158 A 
HETATM    2  N1  UNL     1      44.237  12.865  -1.200  1.00  0.00    -0.338 N 
ATOM      3  H1  UNL     1      43.613  13.316  -1.868  1.00  0.00     0.168 HD
HETATM    4  C3  UNL     1      44.699  11.655  -1.461  1.00  0.00     0.041 A 
HETATM    5  C4  UNL     1      45.542  11.077  -0.533  1.00  0.00    -0.006 A 
HETATM    6  C5  UNL     1      45.904  11.712   0.628  1.00  0.00     0.033 A 
HETATM    7  C6  UNL     1      45.407  13.008   0.906  1.00  0.00     0.083 A 
HETATM    8  C13 UNL     1      46.057   9.725  -0.829  1.00  0.00     0.048 C 
HETATM    9  C14 UNL     1      46.471   9.022   0.458  1.00  0.00     0.043 C 
HETATM   10  C15 UNL     1      47.314   9.883  -1.661  1.00  0.00     0.043 C 
HETATM   11  N3  UNL     1      45.160   8.872  -1.515  1.00  0.00    -0.399 N 
ATOM     12  H3  UNL     1      45.125   7.875  -1.305  1.00  0.00     0.155 HD
HETATM   13  C16 UNL     1      44.315   9.431  -2.495  1.00  0.00     0.041 C 
HETATM   14  C17 UNL     1      42.883   9.047  -2.155  1.00  0.00     0.039 C 
HETATM   15  C18 UNL     1      44.619   8.785  -3.833  1.00  0.00     0.039 C 
HETATM   16  C19 UNL     1      44.366  10.909  -2.670  1.00  0.00     0.159 C 
HETATM   17 CL1  UNL     1      42.762  11.501  -3.233  1.00  0.00    -0.116 Cl
ENDROOT
BRANCH   7  18
HETATM   18  C7  UNL     1      45.817  13.634   2.142  1.00  0.00     0.256 C 
HETATM   19  O2  UNL     1      46.441  12.923   3.024  1.00  0.00    -0.267 OA
HETATM   20  N2  UNL     1      45.617  14.953   2.516  1.00  0.00    -0.350 N 
ATOM     21  H2  UNL     1      45.131  15.578   1.872  1.00  0.00     0.163 HD
BRANCH  20  22
HETATM   22  C8  UNL     1      46.083  15.490   3.813  1.00  0.00     0.112 C 
BRANCH  22  23
HETATM   23  C9  UNL     1      44.908  16.082   4.527  1.00  0.00     0.189 C 
BRANCH  23  24
HETATM   24  O3  UNL     1      44.434  17.268   3.995  1.00  0.00    -0.399 OA
ATOM     25  H3  UNL     1      43.900  17.789   4.582  1.00  0.00     0.209 HD
ENDBRANCH  23  24
ENDBRANCH  22  23
BRANCH  22  26
HETATM   26  C10 UNL     1      47.185  16.440   3.490  1.00  0.00     0.010 A 
HETATM   27  C11 UNL     1      48.587  16.118   4.037  1.00  0.00     0.007 A 
HETATM   28  C12 UNL     1      47.825  17.264   4.548  1.00  0.00     0.007 A 
ENDBRANCH  22  26
ENDBRANCH  20  22
ENDBRANCH   7  18
BRANCH   1  29
HETATM   29  O1  UNL     1      44.052  14.805   0.163  1.00  0.00    -0.340 OA
HETATM   30  C1  UNL     1      43.890  15.757  -0.861  1.00  0.00     0.211 C 
ENDBRANCH   1  29
TORSDOF 6
ENDMDL
MODEL 2
REMARK VINA RESULT: -7.019199647      1.222      1.318
REMARK  6 active torsions:
REMARK  status: ('A' for Active; 'I' for Inactive)
REMARK    1  A    between atoms: O1_2  and  C2_3 
REMARK    2  A    between atoms: C6_9  and  C7_10 
REMARK       I    between atoms: C7_10  and  N2_12 
REMARK    3  A    between atoms: N2_12  and  C8_14 
REMARK    4  A    between atoms: C8_14  and  C9_15 
REMARK    5  A    between atoms: C8_14  and  C10_18 
REMARK    6  A    between atoms: C9_15  and  O3_16 
ROOT
HETATM    1  C2  UNL     1      44.379  14.168  -0.845  1.00  0.00     0.158 A 
HETATM    2  N1  UNL     1      44.006  13.631  -2.049  1.00  0.00    -0.338 N 
ATOM      3  H1  UNL     1      43.681  14.249  -2.792  1.00  0.00     0.168 HD
HETATM    4  C3  UNL     1      44.059  12.330  -2.268  1.00  0.00     0.041 A 
HETATM    5  C4  UNL     1      44.506  11.524  -1.240  1.00  0.00    -0.006 A 
HETATM    6  C5  UNL     1      44.887  12.029  -0.023  1.00  0.00     0.033 A 
HETATM    7  C6  UNL     1      44.829  13.424   0.210  1.00  0.00     0.083 A 
HETATM    8  C13 UNL     1      44.564  10.069  -1.490  1.00  0.00     0.048 C 
HETATM    9  C14 UNL     1      44.517   9.304  -0.173  1.00  0.00     0.043 C 
HETATM   10  C15 UNL     1      45.908   9.764  -2.122  1.00  0.00     0.043 C 
HETATM   11  N3  UNL     1      43.541   9.557  -2.323  1.00  0.00    -0.399 N 
ATOM     12  H3  UNL     1      43.136   8.638  -2.145  1.00  0.00     0.155 HD
HETATM   13  C16 UNL     1      43.094  10.343  -3.403  1.00  0.00     0.041 C 
HETATM   14  C17 UNL     1      41.583  10.483  -3.289  1.00  0.00     0.039 C 
HETATM   15  C18 UNL     1      43.353   9.595  -4.697  1.00  0.00     0.039 C 
HETATM   16  C19 UNL     1      43.674  11.709  -3.532  1.00  0.00     0.159 C 
HETATM   17 CL1  UNL     1      42.472  12.798  -4.313  1.00  0.00    -0.116 Cl
ENDROOT
BRANCH   7  18
HETATM   18  C7  UNL     1      45.241  13.906   1.508  1.00  0.00     0.256 C 
HETATM   19  O2  UNL     1      45.738  13.065   2.356  1.00  0.00    -0.267 OA
HETATM   20  N2  UNL     1      45.167  15.208   1.977  1.00  0.00    -0.350 N 
ATOM     21  H2  UNL     1      44.785  15.929   1.365  1.00  0.00     0.163 HD
BRANCH  20  22
HETATM   22  C8  UNL     1      45.621  15.590   3.332  1.00  0.00     0.112 C 
BRANCH  22  23
HETATM   23  C9  UNL     1      44.582  16.476   3.945  1.00  0.00     0.189 C 
BRANCH  23  24
HETATM   24  O3  UNL     1      44.274  17.612   3.216  1.00  0.00    -0.399 OA
ATOM     25  H3  UNL     1      43.432  18.003   3.416  1.00  0.00     0.209 HD
ENDBRANCH  23  24
ENDBRANCH  22  23
BRANCH  22  26
HETATM   26  C10 UNL     1      46.966  16.206   3.153  1.00  0.00     0.010 A 
HETATM   27  C11 UNL     1      48.144  15.583   3.924  1.00  0.00     0.007 A 
HETATM   28  C12 UNL     1      47.642  16.918   4.268  1.00  0.00     0.007 A 
ENDBRANCH  22  26
ENDBRANCH  20  22
ENDBRANCH   7  18
BRANCH   1  29
HETATM   29  O1  UNL     1      44.297  15.554  -0.681  1.00  0.00    -0.340 OA
HETATM   30  C1  UNL     1      44.285  16.463  -1.757  1.00  0.00     0.211 C 
ENDBRANCH   1  29
TORSDOF 6
ENDMDL
MODEL 3
REMARK VINA RESULT: -6.542204061      1.567      1.739
REMARK  6 active torsions:
REMARK  status: ('A' for Active; 'I' for Inactive)
REMARK    1  A    between atoms: O1_2  and  C2_3 
REMARK    2  A    between atoms: C6_9  and  C7_10 
REMARK       I    between atoms: C7_10  and  N2_12 
REMARK    3  A    between atoms: N2_12  and  C8_14 
REMARK    4  A    between atoms: C8_14  and  C9_15 
REMARK    5  A    between atoms: C8_14  and  C10_18 
REMARK    6  A    between atoms: C9_15  and  O3_16 
ROOT
HETATM    1  C2  UNL     1      44.578  13.560  -1.604  1.00  0.00     0.158 A 
HETATM    2  N1  UNL     1      44.571  12.852  -2.777  1.00  0.00    -0.338 N 
ATOM      3  H1  UNL     1      44.493  13.354  -3.662  1.00  0.00     0.168 HD
HETATM    4  C3  UNL     1      44.662  11.535  -2.787  1.00  0.00     0.041 A 
HETATM    5  C4  UNL     1      44.766  10.890  -1.571  1.00  0.00    -0.006 A 
HETATM    6  C5  UNL     1      44.776  11.568  -0.378  1.00  0.00     0.033 A 
HETATM    7  C6  UNL     1      44.678  12.980  -0.370  1.00  0.00     0.083 A 
HETATM    8  C13 UNL     1      44.868   9.417  -1.586  1.00  0.00     0.048 C 
HETATM    9  C14 UNL     1      44.416   8.841  -0.250  1.00  0.00     0.043 C 
HETATM   10  C15 UNL     1      46.333   9.059  -1.740  1.00  0.00     0.043 C 
HETATM   11  N3  UNL     1      44.131   8.769  -2.606  1.00  0.00    -0.399 N 
ATOM     12  H3  UNL     1      43.674   7.875  -2.431  1.00  0.00     0.155 HD
HETATM   13  C16 UNL     1      44.041   9.388  -3.869  1.00  0.00     0.041 C 
HETATM   14  C17 UNL     1      42.568   9.506  -4.231  1.00  0.00     0.039 C 
HETATM   15  C18 UNL     1      44.660   8.474  -4.910  1.00  0.00     0.039 C 
HETATM   16  C19 UNL     1      44.659  10.735  -4.009  1.00  0.00     0.159 C 
HETATM   17 CL1  UNL     1      43.765  11.677  -5.256  1.00  0.00    -0.116 Cl
ENDROOT
BRANCH   7  18
HETATM   18  C7  UNL     1      44.693  13.647   0.912  1.00  0.00     0.256 C 
HETATM   19  O2  UNL     1      44.373  12.974   1.969  1.00  0.00    -0.267 OA
HETATM   20  N2  UNL     1      45.020  14.971   1.159  1.00  0.00    -0.350 N 
ATOM     21  H2  UNL     1      45.283  15.567   0.374  1.00  0.00     0.163 HD
BRANCH  20  22
HETATM   22  C8  UNL     1      45.002  15.551   2.520  1.00  0.00     0.112 C 
BRANCH  22  23
HETATM   23  C9  UNL     1      44.250  16.844   2.471  1.00  0.00     0.189 C 
BRANCH  23  24
HETATM   24  O3  UNL     1      43.263  16.913   1.503  1.00  0.00    -0.399 OA
ATOM     25  H3  UNL     1      43.142  16.121   0.994  1.00  0.00     0.209 HD
ENDBRANCH  23  24
ENDBRANCH  22  23
BRANCH  22  26
HETATM   26  C10 UNL     1      46.429  15.652   2.939  1.00  0.00     0.010 A 
HETATM   27  C11 UNL     1      46.924  14.680   4.024  1.00  0.00     0.007 A 
HETATM   28  C12 UNL     1      46.800  16.115   4.302  1.00  0.00     0.007 A 
ENDBRANCH  22  26
ENDBRANCH  20  22
ENDBRANCH   7  18
BRANCH   1  29
HETATM   29  O1  UNL     1      44.477  14.953  -1.667  1.00  0.00    -0.340 OA
HETATM   30  C1  UNL     1      43.273  15.632  -1.936  1.00  0.00     0.211 C 
ENDBRANCH   1  29
TORSDOF 6
ENDMDL
MODEL 4
REMARK VINA RESULT: -6.509937912      1.703      2.002
REMARK  6 active torsions:
REMARK  status: ('A' for Active; 'I' for Inactive)
REMARK    1  A    between atoms: O1_2  and  C2_3 
REMARK    2  A    between atoms: C6_9  and  C7_10 
REMARK       I    between atoms: C7_10  and  N2_12 
REMARK    3  A    between atoms: N2_12  and  C8_14 
REMARK    4  A    between atoms: C8_14  and  C9_15 
REMARK    5  A    between atoms: C8_14  and  C10_18 
REMARK    6  A    between atoms: C9_15  and  O3_16 
ROOT
HETATM    1  C2  UNL     1      44.213  15.060  -0.717  1.00  0.00     0.158 A 
HETATM    2  N1  UNL     1      44.135  14.408  -1.920  1.00  0.00    -0.338 N 
ATOM      3  H1  UNL     1      43.912  14.939  -2.761  1.00  0.00     0.168 HD
HETATM    4  C3  UNL     1      44.342  13.107  -2.012  1.00  0.00     0.041 A 
HETATM    5  C4  UNL     1      44.642  12.421  -0.852  1.00  0.00    -0.006 A 
HETATM    6  C5  UNL     1      44.728  13.043   0.368  1.00  0.00     0.033 A 
HETATM    7  C6  UNL     1      44.505  14.437   0.465  1.00  0.00     0.083 A 
HETATM    8  C13 UNL     1      44.874  10.966  -0.961  1.00  0.00     0.048 C 
HETATM    9  C14 UNL     1      44.631  10.290   0.383  1.00  0.00     0.043 C 
HETATM   10  C15 UNL     1      46.337  10.757  -1.294  1.00  0.00     0.043 C 
HETATM   11  N3  UNL     1      44.085  10.298  -1.928  1.00  0.00    -0.399 N 
ATOM     12  H3  UNL     1      43.734   9.358  -1.753  1.00  0.00     0.155 HD
HETATM   13  C16 UNL     1      43.796  10.961  -3.137  1.00  0.00     0.041 C 
HETATM   14  C17 UNL     1      42.287  10.955  -3.327  1.00  0.00     0.039 C 
HETATM   15  C18 UNL     1      44.371  10.158  -4.288  1.00  0.00     0.039 C 
HETATM   16  C19 UNL     1      44.271  12.367  -3.268  1.00  0.00     0.159 C 
HETATM   17 CL1  UNL     1      43.159  13.274  -4.356  1.00  0.00    -0.116 Cl
ENDROOT
BRANCH   7  18
HETATM   18  C7  UNL     1      44.608  15.044   1.772  1.00  0.00     0.256 C 
HETATM   19  O2  UNL     1      43.552  15.103   2.517  1.00  0.00    -0.267 OA
HETATM   20  N2  UNL     1      45.741  15.593   2.350  1.00  0.00    -0.350 N 
ATOM     21  H2  UNL     1      46.614  15.585   1.823  1.00  0.00     0.163 HD
BRANCH  20  22
HETATM   22  C8  UNL     1      45.732  16.191   3.703  1.00  0.00     0.112 C 
BRANCH  22  23
HETATM   23  C9  UNL     1      46.190  17.612   3.594  1.00  0.00     0.189 C 
BRANCH  23  24
HETATM   24  O3  UNL     1      47.102  18.011   4.555  1.00  0.00    -0.399 OA
ATOM     25  H3  UNL     1      47.924  18.345   4.217  1.00  0.00     0.209 HD
ENDBRANCH  23  24
ENDBRANCH  22  23
BRANCH  22  26
HETATM   26  C10 UNL     1      46.581  15.304   4.547  1.00  0.00     0.010 A 
HETATM   27  C11 UNL     1      47.852  14.716   3.908  1.00  0.00     0.007 A 
HETATM   28  C12 UNL     1      46.714  13.855   4.249  1.00  0.00     0.007 A 
ENDBRANCH  22  26
ENDBRANCH  20  22
ENDBRANCH   7  18
BRANCH   1  29
HETATM   29  O1  UNL     1      43.981  16.438  -0.691  1.00  0.00    -0.340 OA
HETATM   30  C1  UNL     1      44.599  17.345  -1.574  1.00  0.00     0.211 C 
ENDBRANCH   1  29
TORSDOF 6
ENDMDL
MODEL 5
REMARK VINA RESULT: -6.253709402      1.827      3.272
REMARK  6 active torsions:
REMARK  status: ('A' for Active; 'I' for Inactive)
REMARK    1  A    between atoms: O1_2  and  C2_3 
REMARK    2  A    between atoms: C6_9  and  C7_10 
REMARK       I    between atoms: C7_10  and  N2_12 
REMARK    3  A    between atoms: N2_12  and  C8_14 
REMARK    4  A    between atoms: C8_14  and  C9_15 
REMARK    5  A    between atoms: C8_14  and  C10_18 
REMARK    6  A    between atoms: C9_15  and  O3_16 
ROOT
HETATM    1  C2  UNL     1      45.029  12.114   0.898  1.00  0.00     0.158 A 
HETATM    2  N1  UNL     1      45.017  11.216  -0.137  1.00  0.00    -0.338 N 
ATOM      3  H1  UNL     1      45.204  10.232   0.054  1.00  0.00     0.168 HD
HETATM    4  C3  UNL     1      44.767  11.598  -1.377  1.00  0.00     0.041 A 
HETATM    5  C4  UNL     1      44.518  12.938  -1.597  1.00  0.00    -0.006 A 
HETATM    6  C5  UNL     1      44.522  13.863  -0.584  1.00  0.00     0.033 A 
HETATM    7  C6  UNL     1      44.790  13.451   0.744  1.00  0.00     0.083 A 
HETATM    8  C13 UNL     1      44.238  13.360  -2.985  1.00  0.00     0.048 C 
HETATM    9  C14 UNL     1      44.541  14.843  -3.157  1.00  0.00     0.043 C 
HETATM   10  C15 UNL     1      42.752  13.189  -3.228  1.00  0.00     0.043 C 
HETATM   11  N3  UNL     1      44.949  12.656  -3.986  1.00  0.00    -0.399 N 
ATOM     12  H3  UNL     1      45.283  13.135  -4.821  1.00  0.00     0.155 HD
HETATM   13  C16 UNL     1      45.184  11.279  -3.804  1.00  0.00     0.041 C 
HETATM   14  C17 UNL     1      46.678  11.034  -3.949  1.00  0.00     0.039 C 
HETATM   15  C18 UNL     1      44.519  10.513  -4.931  1.00  0.00     0.039 C 
HETATM   16  C19 UNL     1      44.743  10.682  -2.513  1.00  0.00     0.159 C 
HETATM   17 CL1  UNL     1      45.813   9.295  -2.098  1.00  0.00    -0.116 Cl
ENDROOT
BRANCH   7  18
HETATM   18  C7  UNL     1      44.783  14.463   1.775  1.00  0.00     0.256 C 
HETATM   19  O2  UNL     1      43.667  15.046   2.070  1.00  0.00    -0.267 OA
HETATM   20  N2  UNL     1      45.867  14.906   2.516  1.00  0.00    -0.350 N 
ATOM     21  H2  UNL     1      46.783  14.494   2.341  1.00  0.00     0.163 HD
BRANCH  20  22
HETATM   22  C8  UNL     1      45.744  15.955   3.553  1.00  0.00     0.112 C 
BRANCH  22  23
HETATM   23  C9  UNL     1      45.586  17.277   2.870  1.00  0.00     0.189 C 
BRANCH  23  24
HETATM   24  O3  UNL     1      44.282  17.725   2.751  1.00  0.00    -0.399 OA
ATOM     25  H3  UNL     1      43.773  17.699   3.552  1.00  0.00     0.209 HD
ENDBRANCH  23  24
ENDBRANCH  22  23
BRANCH  22  26
HETATM   26  C10 UNL     1      46.951  15.817   4.417  1.00  0.00     0.010 A 
HETATM   27  C11 UNL     1      47.661  17.108   4.860  1.00  0.00     0.007 A 
HETATM   28  C12 UNL     1      48.301  16.184   3.917  1.00  0.00     0.007 A 
ENDBRANCH  22  26
ENDBRANCH  20  22
ENDBRANCH   7  18
BRANCH   1  29
HETATM   29  O1  UNL     1      45.301  11.641   2.185  1.00  0.00    -0.340 OA
HETATM   30  C1  UNL     1      46.588  11.267   2.618  1.00  0.00     0.211 C 
ENDBRANCH   1  29
TORSDOF 6
ENDMDL
