MODEL 1
REMARK VINA RESULT: -7.636721071      0.000      0.000
REMARK  6 active torsions:
REMARK  status: ('A' for Active; 'I' for Inactive)
REMARK    1  A    between atoms: C2_2  and  C5_7 
REMARK    2  A    between atoms: C3_3  and  C4_4 
REMARK    3  A    between atoms: C5_7  and  C6_8 
REMARK    4  A    between atoms: C6_8  and  C7_9 
REMARK    5  A    between atoms: C15_19  and  C16_20 
REMARK    6  A    between atoms: C18_23  and  O5_24 
ROOT
HETATM    1  C7  UNL     1      46.460  12.184   1.241  1.00  0.00     0.015 C 
HETATM    2  C8  UNL     1      46.763  10.848   1.813  1.00  0.00     0.010 C 
HETATM    3  C9  UNL     1      46.724   9.707   0.866  1.00  0.00     0.034 C 
HETATM    4  C10 UNL     1      45.703   9.824  -0.219  1.00  0.00     0.144 C 
HETATM    5  O3  UNL     1      45.844   8.807  -1.165  1.00  0.00    -0.315 OA
HETATM    6  C11 UNL     1      44.930   8.761  -2.209  1.00  0.00     0.263 C 
HETATM    7  O4  UNL     1      44.694   7.681  -2.790  1.00  0.00    -0.265 OA
HETATM    8  C12 UNL     1      44.224   9.988  -2.650  1.00  0.00     0.082 C 
HETATM    9  C13 UNL     1      42.740   9.703  -2.917  1.00  0.00     0.020 C 
HETATM   10  C14 UNL     1      44.277  11.101  -1.656  1.00  0.00     0.030 C 
HETATM   11  C15 UNL     1      45.612  11.140  -0.890  1.00  0.00     0.030 C 
HETATM   12  C18 UNL     1      45.431  12.202   0.161  1.00  0.00     0.134 C 
ENDROOT
BRANCH   1  13
HETATM   13  C6  UNL     1      45.918  13.059   2.384  1.00  0.00     0.011 C 
BRANCH  13  14
HETATM   14  C5  UNL     1      47.137  13.459   3.198  1.00  0.00     0.034 C 
BRANCH  14  15
HETATM   15  C2  UNL     1      46.953  14.792   3.832  1.00  0.00    -0.077 C 
HETATM   16  C1  UNL     1      45.830  14.949   4.779  1.00  0.00     0.043 C 
HETATM   17  C3  UNL     1      47.745  15.799   3.574  1.00  0.00     0.086 C 
BRANCH  17  18
HETATM   18  C4  UNL     1      47.607  17.105   4.161  1.00  0.00     0.198 C 
HETATM   19  O1  UNL     1      48.506  17.535   4.962  1.00  0.00    -0.644 OA
HETATM   20  O2  UNL     1      46.560  17.983   3.942  1.00  0.00    -0.644 OA
ENDBRANCH  17  18
ENDBRANCH  14  15
ENDBRANCH  13  14
ENDBRANCH   1  13
BRANCH  12  21
HETATM   21  O5  UNL     1      44.189  11.929   0.779  1.00  0.00    -0.394 OA
ATOM     22  H5  UNL     1      43.703  12.745   0.787  1.00  0.00     0.210 HD
ENDBRANCH  12  21
BRANCH  11  23
HETATM   23  C16 UNL     1      46.673  11.447  -1.878  1.00  0.00     0.091 C 
HETATM   24  C17 UNL     1      46.504  12.826  -2.466  1.00  0.00     0.028 C 
HETATM   25 CL1  UNL     1      48.318  11.355  -1.239  1.00  0.00    -0.124 Cl
ENDBRANCH  11  23
TORSDOF 6
ENDMDL
MODEL 2
REMARK VINA RESULT: -7.483955024      1.128      1.435
REMARK  6 active torsions:
REMARK  status: ('A' for Active; 'I' for Inactive)
REMARK    1  A    between atoms: C2_2  and  C5_7 
REMARK    2  A    between atoms: C3_3  and  C4_4 
REMARK    3  A    between atoms: C5_7  and  C6_8 
REMARK    4  A    between atoms: C6_8  and  C7_9 
REMARK    5  A    between atoms: C15_19  and  C16_20 
REMARK    6  A    between atoms: C18_23  and  O5_24 
ROOT
HETATM    1  C7  UNL     1      46.523  11.939   1.402  1.00  0.00     0.015 C 
HETATM    2  C8  UNL     1      46.886  10.580   1.875  1.00  0.00     0.010 C 
HETATM    3  C9  UNL     1      46.852   9.501   0.857  1.00  0.00     0.034 C 
HETATM    4  C10 UNL     1      45.793   9.655  -0.186  1.00  0.00     0.144 C 
HETATM    5  O3  UNL     1      45.934   8.706  -1.201  1.00  0.00    -0.315 OA
HETATM    6  C11 UNL     1      44.989   8.698  -2.217  1.00  0.00     0.263 C 
HETATM    7  O4  UNL     1      44.768   7.650  -2.861  1.00  0.00    -0.265 OA
HETATM    8  C12 UNL     1      44.231   9.927  -2.555  1.00  0.00     0.082 C 
HETATM    9  C13 UNL     1      42.749   9.611  -2.795  1.00  0.00     0.020 C 
HETATM   10  C14 UNL     1      44.281  10.974  -1.492  1.00  0.00     0.030 C 
HETATM   11  C15 UNL     1      45.639  11.008  -0.766  1.00  0.00     0.030 C 
HETATM   12  C18 UNL     1      45.459  11.993   0.358  1.00  0.00     0.134 C 
ENDROOT
BRANCH   1  13
HETATM   13  C6  UNL     1      45.992  12.719   2.616  1.00  0.00     0.011 C 
BRANCH  13  14
HETATM   14  C5  UNL     1      47.078  13.726   2.955  1.00  0.00     0.034 C 
BRANCH  14  15
HETATM   15  C2  UNL     1      46.510  15.080   3.190  1.00  0.00    -0.077 C 
HETATM   16  C1  UNL     1      47.458  16.202   3.345  1.00  0.00     0.043 C 
HETATM   17  C3  UNL     1      45.222  15.291   3.258  1.00  0.00     0.086 C 
BRANCH  17  18
HETATM   18  C4  UNL     1      44.626  16.580   3.482  1.00  0.00     0.198 C 
HETATM   19  O1  UNL     1      44.346  16.947   4.674  1.00  0.00    -0.644 OA
HETATM   20  O2  UNL     1      44.310  17.506   2.503  1.00  0.00    -0.644 OA
ENDBRANCH  17  18
ENDBRANCH  14  15
ENDBRANCH  13  14
ENDBRANCH   1  13
BRANCH  12  21
HETATM   21  O5  UNL     1      44.247  11.639   0.994  1.00  0.00    -0.394 OA
ATOM     22  H5  UNL     1      43.594  11.556   0.309  1.00  0.00     0.210 HD
ENDBRANCH  12  21
BRANCH  11  23
HETATM   23  C16 UNL     1      46.657  11.414  -1.764  1.00  0.00     0.091 C 
HETATM   24  C17 UNL     1      46.419  12.817  -2.263  1.00  0.00     0.028 C 
HETATM   25 CL1  UNL     1      48.323  11.348  -1.179  1.00  0.00    -0.124 Cl
ENDBRANCH  11  23
TORSDOF 6
ENDMDL
MODEL 3
REMARK VINA RESULT: -7.457164459      1.191      1.409
REMARK  6 active torsions:
REMARK  status: ('A' for Active; 'I' for Inactive)
REMARK    1  A    between atoms: C2_2  and  C5_7 
REMARK    2  A    between atoms: C3_3  and  C4_4 
REMARK    3  A    between atoms: C5_7  and  C6_8 
REMARK    4  A    between atoms: C6_8  and  C7_9 
REMARK    5  A    between atoms: C15_19  and  C16_20 
REMARK    6  A    between atoms: C18_23  and  O5_24 
ROOT
HETATM    1  C7  UNL     1      45.784  12.730   0.827  1.00  0.00     0.015 C 
HETATM    2  C8  UNL     1      46.990  11.976   1.250  1.00  0.00     0.010 C 
HETATM    3  C9  UNL     1      47.439  10.894   0.340  1.00  0.00     0.034 C 
HETATM    4  C10 UNL     1      46.340  10.175  -0.373  1.00  0.00     0.144 C 
HETATM    5  O3  UNL     1      46.843   9.298  -1.336  1.00  0.00    -0.315 OA
HETATM    6  C11 UNL     1      45.935   8.525  -2.046  1.00  0.00     0.263 C 
HETATM    7  O4  UNL     1      46.293   7.438  -2.546  1.00  0.00    -0.265 OA
HETATM    8  C12 UNL     1      44.533   8.975  -2.223  1.00  0.00     0.082 C 
HETATM    9  C13 UNL     1      43.553   7.812  -2.023  1.00  0.00     0.020 C 
HETATM   10  C14 UNL     1      44.125  10.051  -1.272  1.00  0.00     0.030 C 
HETATM   11  C15 UNL     1      45.277  11.024  -0.957  1.00  0.00     0.030 C 
HETATM   12  C18 UNL     1      44.742  11.930   0.119  1.00  0.00     0.134 C 
ENDROOT
BRANCH   1  13
HETATM   13  C6  UNL     1      45.124  13.290   2.098  1.00  0.00     0.011 C 
BRANCH  13  14
HETATM   14  C5  UNL     1      45.398  14.785   2.070  1.00  0.00     0.034 C 
BRANCH  14  15
HETATM   15  C2  UNL     1      46.299  15.193   3.180  1.00  0.00    -0.077 C 
HETATM   16  C1  UNL     1      46.536  14.216   4.263  1.00  0.00     0.043 C 
HETATM   17  C3  UNL     1      46.870  16.368   3.215  1.00  0.00     0.086 C 
BRANCH  17  18
HETATM   18  C4  UNL     1      47.747  16.807   4.267  1.00  0.00     0.198 C 
HETATM   19  O1  UNL     1      47.252  17.285   5.344  1.00  0.00    -0.644 OA
HETATM   20  O2  UNL     1      49.131  16.766   4.236  1.00  0.00    -0.644 OA
ENDBRANCH  17  18
ENDBRANCH  14  15
ENDBRANCH  13  14
ENDBRANCH   1  13
BRANCH  12  21
HETATM   21  O5  UNL     1      44.155  11.081   1.086  1.00  0.00    -0.394 OA
ATOM     22  H5  UNL     1      44.081  10.223   0.686  1.00  0.00     0.210 HD
ENDBRANCH  12  21
BRANCH  11  23
HETATM   23  C16 UNL     1      45.615  11.723  -2.219  1.00  0.00     0.091 C 
HETATM   24  C17 UNL     1      44.699  12.895  -2.468  1.00  0.00     0.028 C 
HETATM   25 CL1  UNL     1      47.271  12.335  -2.296  1.00  0.00    -0.124 Cl
ENDBRANCH  11  23
TORSDOF 6
ENDMDL
MODEL 4
REMARK VINA RESULT: -7.380178379      0.973      1.242
REMARK  6 active torsions:
REMARK  status: ('A' for Active; 'I' for Inactive)
REMARK    1  A    between atoms: C2_2  and  C5_7 
REMARK    2  A    between atoms: C3_3  and  C4_4 
REMARK    3  A    between atoms: C5_7  and  C6_8 
REMARK    4  A    between atoms: C6_8  and  C7_9 
REMARK    5  A    between atoms: C15_19  and  C16_20 
REMARK    6  A    between atoms: C18_23  and  O5_24 
ROOT
HETATM    1  C7  UNL     1      46.701  11.529   1.397  1.00  0.00     0.015 C 
HETATM    2  C8  UNL     1      47.132  10.142   1.708  1.00  0.00     0.010 C 
HETATM    3  C9  UNL     1      47.063   9.169   0.590  1.00  0.00     0.034 C 
HETATM    4  C10 UNL     1      45.936   9.388  -0.366  1.00  0.00     0.144 C 
HETATM    5  O3  UNL     1      46.038   8.550  -1.478  1.00  0.00    -0.315 OA
HETATM    6  C11 UNL     1      45.031   8.610  -2.430  1.00  0.00     0.263 C 
HETATM    7  O4  UNL     1      44.798   7.624  -3.162  1.00  0.00    -0.265 OA
HETATM    8  C12 UNL     1      44.218   9.839  -2.596  1.00  0.00     0.082 C 
HETATM    9  C13 UNL     1      42.733   9.498  -2.776  1.00  0.00     0.020 C 
HETATM   10  C14 UNL     1      44.307  10.777  -1.438  1.00  0.00     0.030 C 
HETATM   11  C15 UNL     1      45.707  10.786  -0.796  1.00  0.00     0.030 C 
HETATM   12  C18 UNL     1      45.572  11.649   0.430  1.00  0.00     0.134 C 
ENDROOT
BRANCH   1  13
HETATM   13  C6  UNL     1      46.227  12.166   2.713  1.00  0.00     0.011 C 
BRANCH  13  14
HETATM   14  C5  UNL     1      47.060  13.427   2.874  1.00  0.00     0.034 C 
BRANCH  14  15
HETATM   15  C2  UNL     1      46.200  14.629   3.036  1.00  0.00    -0.077 C 
HETATM   16  C1  UNL     1      45.186  14.890   1.994  1.00  0.00     0.043 C 
HETATM   17  C3  UNL     1      46.321  15.437   4.056  1.00  0.00     0.086 C 
BRANCH  17  18
HETATM   18  C4  UNL     1      45.513  16.611   4.256  1.00  0.00     0.198 C 
HETATM   19  O1  UNL     1      45.972  17.757   3.924  1.00  0.00    -0.644 OA
HETATM   20  O2  UNL     1      44.237  16.632   4.792  1.00  0.00    -0.644 OA
ENDBRANCH  17  18
ENDBRANCH  14  15
ENDBRANCH  13  14
ENDBRANCH   1  13
BRANCH  12  21
HETATM   21  O5  UNL     1      44.413  11.192   1.100  1.00  0.00    -0.394 OA
ATOM     22  H5  UNL     1      43.752  11.046   0.433  1.00  0.00     0.210 HD
ENDBRANCH  12  21
BRANCH  11  23
HETATM   23  C16 UNL     1      46.647  11.323  -1.808  1.00  0.00     0.091 C 
HETATM   24  C17 UNL     1      46.330  12.755  -2.158  1.00  0.00     0.028 C 
HETATM   25 CL1  UNL     1      48.347  11.271  -1.328  1.00  0.00    -0.124 Cl
ENDBRANCH  11  23
TORSDOF 6
ENDMDL
MODEL 5
REMARK VINA RESULT: -7.272836578      1.372      1.547
REMARK  6 active torsions:
REMARK  status: ('A' for Active; 'I' for Inactive)
REMARK    1  A    between atoms: C2_2  and  C5_7 
REMARK    2  A    between atoms: C3_3  and  C4_4 
REMARK    3  A    between atoms: C5_7  and  C6_8 
REMARK    4  A    between atoms: C6_8  and  C7_9 
REMARK    5  A    between atoms: C15_19  and  C16_20 
REMARK    6  A    between atoms: C18_23  and  O5_24 
ROOT
HETATM    1  C7  UNL     1      45.740  12.518   0.851  1.00  0.00     0.015 C 
HETATM    2  C8  UNL     1      44.943  11.384   1.382  1.00  0.00     0.010 C 
HETATM    3  C9  UNL     1      44.520  10.361   0.395  1.00  0.00     0.034 C 
HETATM    4  C10 UNL     1      44.219  10.891  -0.970  1.00  0.00     0.144 C 
HETATM    5  O3  UNL     1      44.001   9.857  -1.883  1.00  0.00    -0.315 OA
HETATM    6  C11 UNL     1      43.662  10.201  -3.183  1.00  0.00     0.263 C 
HETATM    7  O4  UNL     1      43.016   9.404  -3.897  1.00  0.00    -0.265 OA
HETATM    8  C12 UNL     1      44.062  11.514  -3.747  1.00  0.00     0.082 C 
HETATM    9  C13 UNL     1      42.914  12.141  -4.549  1.00  0.00     0.020 C 
HETATM   10  C14 UNL     1      44.462  12.513  -2.713  1.00  0.00     0.030 C 
HETATM   11  C15 UNL     1      45.188  11.865  -1.519  1.00  0.00     0.030 C 
HETATM   12  C18 UNL     1      45.371  12.975  -0.520  1.00  0.00     0.134 C 
ENDROOT
BRANCH   1  13
HETATM   13  C6  UNL     1      45.519  13.714   1.792  1.00  0.00     0.011 C 
BRANCH  13  14
HETATM   14  C5  UNL     1      46.607  13.603   2.847  1.00  0.00     0.034 C 
BRANCH  14  15
HETATM   15  C2  UNL     1      46.698  14.841   3.665  1.00  0.00    -0.077 C 
HETATM   16  C1  UNL     1      45.816  14.947   4.845  1.00  0.00     0.043 C 
HETATM   17  C3  UNL     1      47.523  15.811   3.368  1.00  0.00     0.086 C 
BRANCH  17  18
HETATM   18  C4  UNL     1      47.646  17.026   4.129  1.00  0.00     0.198 C 
HETATM   19  O1  UNL     1      48.674  17.206   4.866  1.00  0.00    -0.644 OA
HETATM   20  O2  UNL     1      46.732  18.064   4.147  1.00  0.00    -0.644 OA
ENDBRANCH  17  18
ENDBRANCH  14  15
ENDBRANCH  13  14
ENDBRANCH   1  13
BRANCH  12  21
HETATM   21  O5  UNL     1      44.112  13.610  -0.411  1.00  0.00    -0.394 OA
ATOM     22  H5  UNL     1      44.224  14.495  -0.739  1.00  0.00     0.210 HD
ENDBRANCH  12  21
BRANCH  11  23
HETATM   23  C16 UNL     1      46.460  11.305  -2.036  1.00  0.00     0.091 C 
HETATM   24  C17 UNL     1      47.404  12.391  -2.486  1.00  0.00     0.028 C 
HETATM   25 CL1  UNL     1      47.340  10.300  -0.878  1.00  0.00    -0.124 Cl
ENDBRANCH  11  23
TORSDOF 6
ENDMDL
