MODEL 1
REMARK VINA RESULT: -6.534316342      0.000      0.000
REMARK  3 active torsions:
REMARK  status: ('A' for Active; 'I' for Inactive)
REMARK    1  A    between atoms: O1_2  and  N1_3 
REMARK    2  A    between atoms: N1_3  and  C2_4 
REMARK    3  A    between atoms: C8_12  and  O4_13 
ROOT
HETATM    1  C2  UNL     1      -4.885   0.250  13.856  1.00  0.00     0.387 C 
HETATM    2  O2  UNL     1      -3.912   1.203  13.686  1.00  0.00    -0.343 OA
HETATM    3  C3  UNL     1      -4.338   2.388  13.158  1.00  0.00     0.205 C 
HETATM    4  C4  UNL     1      -4.838   2.308  11.754  1.00  0.00     0.155 C 
HETATM    5  O3  UNL     1      -5.826   1.348  11.579  1.00  0.00    -0.375 OA
HETATM    6  C5  UNL     1      -4.922   0.567  10.923  1.00  0.00     0.160 C 
HETATM    7  C6  UNL     1      -4.312  -0.527  11.741  1.00  0.00     0.158 C 
HETATM    8  C7  UNL     1      -2.836  -0.263  11.761  1.00  0.00     0.067 C 
HETATM    9  C8  UNL     1      -2.614   1.144  11.289  1.00  0.00     0.130 C 
HETATM   10  C9  UNL     1      -3.914   1.668  10.787  1.00  0.00     0.077 C 
HETATM   11  O5  UNL     1      -4.885  -0.757  12.945  1.00  0.00    -0.338 OA
ENDROOT
BRANCH   1  12
HETATM   12  N1  UNL     1      -4.647  -0.358  15.178  1.00  0.00    -0.041 NA
BRANCH  12  13
HETATM   13  O1  UNL     1      -5.770  -0.382  15.918  1.00  0.00    -0.287 OA
HETATM   14  C1  UNL     1      -6.303   0.899  16.076  1.00  0.00     0.231 C 
ENDBRANCH  12  13
ENDBRANCH   1  12
BRANCH   9  15
HETATM   15  O4  UNL     1      -1.700   1.203  10.209  1.00  0.00    -0.395 OA
ATOM     16  H4  UNL     1      -0.798   1.170  10.505  1.00  0.00     0.210 HD
ENDBRANCH   9  15
TORSDOF 3
ENDMDL
MODEL 2
REMARK VINA RESULT: -6.466198206      2.150      3.808
REMARK  3 active torsions:
REMARK  status: ('A' for Active; 'I' for Inactive)
REMARK    1  A    between atoms: O1_2  and  N1_3 
REMARK    2  A    between atoms: N1_3  and  C2_4 
REMARK    3  A    between atoms: C8_12  and  O4_13 
ROOT
HETATM    1  C2  UNL     1      -4.677   1.048  14.759  1.00  0.00     0.387 C 
HETATM    2  O2  UNL     1      -5.717   1.418  13.942  1.00  0.00    -0.343 OA
HETATM    3  C3  UNL     1      -5.383   1.656  12.639  1.00  0.00     0.205 C 
HETATM    4  C4  UNL     1      -4.486   2.829  12.425  1.00  0.00     0.155 C 
HETATM    5  O3  UNL     1      -3.328   2.781  13.191  1.00  0.00    -0.375 OA
HETATM    6  C5  UNL     1      -3.837   3.767  13.983  1.00  0.00     0.160 C 
HETATM    7  C6  UNL     1      -4.446   3.304  15.269  1.00  0.00     0.158 C 
HETATM    8  C7  UNL     1      -5.884   3.727  15.227  1.00  0.00     0.067 C 
HETATM    9  C8  UNL     1      -6.215   4.096  13.811  1.00  0.00     0.130 C 
HETATM   10  C9  UNL     1      -4.946   4.101  13.032  1.00  0.00     0.077 C 
HETATM   11  O5  UNL     1      -4.221   2.012  15.599  1.00  0.00    -0.338 OA
ENDROOT
BRANCH   1  12
HETATM   12  N1  UNL     1      -5.178  -0.059  15.595  1.00  0.00    -0.041 NA
BRANCH  12  13
HETATM   13  O1  UNL     1      -6.456   0.143  15.962  1.00  0.00    -0.287 OA
HETATM   14  C1  UNL     1      -6.553   0.456  17.320  1.00  0.00     0.231 C 
ENDBRANCH  12  13
ENDBRANCH   1  12
BRANCH   9  15
HETATM   15  O4  UNL     1      -6.763   5.397  13.716  1.00  0.00    -0.395 OA
ATOM     16  H4  UNL     1      -7.621   5.392  13.308  1.00  0.00     0.210 HD
ENDBRANCH   9  15
TORSDOF 3
ENDMDL
MODEL 3
REMARK VINA RESULT: -6.290926260      2.433      4.134
REMARK  3 active torsions:
REMARK  status: ('A' for Active; 'I' for Inactive)
REMARK    1  A    between atoms: O1_2  and  N1_3 
REMARK    2  A    between atoms: N1_3  and  C2_4 
REMARK    3  A    between atoms: C8_12  and  O4_13 
ROOT
HETATM    1  C2  UNL     1      -2.688   2.669  11.244  1.00  0.00     0.387 C 
HETATM    2  O2  UNL     1      -2.346   1.540  11.947  1.00  0.00    -0.343 OA
HETATM    3  C3  UNL     1      -2.403   0.371  11.243  1.00  0.00     0.205 C 
HETATM    4  C4  UNL     1      -3.770  -0.031  10.802  1.00  0.00     0.155 C 
HETATM    5  O3  UNL     1      -4.431   0.962  10.091  1.00  0.00    -0.375 OA
HETATM    6  C5  UNL     1      -5.231   1.175  11.174  1.00  0.00     0.160 C 
HETATM    7  C6  UNL     1      -4.853   2.344  12.028  1.00  0.00     0.158 C 
HETATM    8  C7  UNL     1      -4.553   1.788  13.388  1.00  0.00     0.067 C 
HETATM    9  C8  UNL     1      -4.393   0.303  13.255  1.00  0.00     0.130 C 
HETATM   10  C9  UNL     1      -4.795  -0.077  11.872  1.00  0.00     0.077 C 
HETATM   11  O5  UNL     1      -3.919   3.176  11.513  1.00  0.00    -0.338 OA
ENDROOT
BRANCH   1  12
HETATM   12  N1  UNL     1      -1.701   3.702  11.608  1.00  0.00    -0.041 NA
BRANCH  12  13
HETATM   13  O1  UNL     1      -1.549   3.786  12.942  1.00  0.00    -0.287 OA
HETATM   14  C1  UNL     1      -1.595   5.113  13.378  1.00  0.00     0.231 C 
ENDBRANCH  12  13
ENDBRANCH   1  12
BRANCH   9  15
HETATM   15  O4  UNL     1      -5.242  -0.404  14.140  1.00  0.00    -0.395 OA
ATOM     16  H4  UNL     1      -5.382  -1.300  13.859  1.00  0.00     0.210 HD
ENDBRANCH   9  15
TORSDOF 3
ENDMDL
MODEL 4
REMARK VINA RESULT: -6.180314808      1.487      2.795
REMARK  3 active torsions:
REMARK  status: ('A' for Active; 'I' for Inactive)
REMARK    1  A    between atoms: O1_2  and  N1_3 
REMARK    2  A    between atoms: N1_3  and  C2_4 
REMARK    3  A    between atoms: C8_12  and  O4_13 
ROOT
HETATM    1  C2  UNL     1      -4.664   0.845  13.735  1.00  0.00     0.387 C 
HETATM    2  O2  UNL     1      -5.350   0.838  12.546  1.00  0.00    -0.343 OA
HETATM    3  C3  UNL     1      -4.688   0.280  11.490  1.00  0.00     0.205 C 
HETATM    4  C4  UNL     1      -3.467   1.018  11.053  1.00  0.00     0.155 C 
HETATM    5  O3  UNL     1      -2.567   1.247  12.086  1.00  0.00    -0.375 OA
HETATM    6  C5  UNL     1      -2.928   2.562  12.080  1.00  0.00     0.160 C 
HETATM    7  C6  UNL     1      -3.907   2.960  13.138  1.00  0.00     0.158 C 
HETATM    8  C7  UNL     1      -5.118   3.473  12.417  1.00  0.00     0.067 C 
HETATM    9  C8  UNL     1      -5.014   3.047  10.982  1.00  0.00     0.130 C 
HETATM   10  C9  UNL     1      -3.661   2.461  10.776  1.00  0.00     0.077 C 
HETATM   11  O5  UNL     1      -4.142   2.043  14.104  1.00  0.00    -0.338 OA
ENDROOT
BRANCH   1  12
HETATM   12  N1  UNL     1      -5.631   0.451  14.777  1.00  0.00    -0.041 NA
BRANCH  12  13
HETATM   13  O1  UNL     1      -6.537   1.420  14.996  1.00  0.00    -0.287 OA
HETATM   14  C1  UNL     1      -7.263   1.184  16.166  1.00  0.00     0.231 C 
ENDBRANCH  12  13
ENDBRANCH   1  12
BRANCH   9  15
HETATM   15  O4  UNL     1      -5.130   4.143  10.094  1.00  0.00    -0.395 OA
ATOM     16  H4  UNL     1      -4.476   4.113   9.405  1.00  0.00     0.210 HD
ENDBRANCH   9  15
TORSDOF 3
ENDMDL
MODEL 5
REMARK VINA RESULT: -6.028196966      1.451      1.765
REMARK  3 active torsions:
REMARK  status: ('A' for Active; 'I' for Inactive)
REMARK    1  A    between atoms: O1_2  and  N1_3 
REMARK    2  A    between atoms: N1_3  and  C2_4 
REMARK    3  A    between atoms: C8_12  and  O4_13 
ROOT
HETATM    1  C2  UNL     1      -5.111   2.274  13.883  1.00  0.00     0.387 C 
HETATM    2  O2  UNL     1      -3.762   2.495  13.755  1.00  0.00    -0.343 OA
HETATM    3  C3  UNL     1      -3.411   3.740  13.319  1.00  0.00     0.205 C 
HETATM    4  C4  UNL     1      -3.835   4.061  11.925  1.00  0.00     0.155 C 
HETATM    5  O3  UNL     1      -5.193   3.868  11.708  1.00  0.00    -0.375 OA
HETATM    6  C5  UNL     1      -4.897   2.754  10.980  1.00  0.00     0.160 C 
HETATM    7  C6  UNL     1      -5.052   1.456  11.708  1.00  0.00     0.158 C 
HETATM    8  C7  UNL     1      -3.697   0.813  11.711  1.00  0.00     0.067 C 
HETATM    9  C8  UNL     1      -2.691   1.858  11.330  1.00  0.00     0.130 C 
HETATM   10  C9  UNL     1      -3.435   3.072  10.895  1.00  0.00     0.077 C 
HETATM   11  O5  UNL     1      -5.676   1.519  12.907  1.00  0.00    -0.338 OA
ENDROOT
BRANCH   1  12
HETATM   12  N1  UNL     1      -5.297   1.551  15.155  1.00  0.00    -0.041 NA
BRANCH  12  13
HETATM   13  O1  UNL     1      -6.424   0.817  15.143  1.00  0.00    -0.287 OA
HETATM   14  C1  UNL     1      -7.230   1.101  16.248  1.00  0.00     0.231 C 
ENDBRANCH  12  13
ENDBRANCH   1  12
BRANCH   9  15
HETATM   15  O4  UNL     1      -1.891   1.450  10.236  1.00  0.00    -0.395 OA
ATOM     16  H4  UNL     1      -2.023   2.002   9.474  1.00  0.00     0.210 HD
ENDBRANCH   9  15
TORSDOF 3
ENDMDL
