MODEL 1
REMARK VINA RESULT: -6.737010588      0.000      0.000
REMARK  4 active torsions:
REMARK  status: ('A' for Active; 'I' for Inactive)
REMARK    1  A    between atoms: O1_2  and  C2_3 
REMARK    2  A    between atoms: C2_3  and  O2_4 
REMARK    3  A    between atoms: C2_3  and  N1_6 
REMARK    4  A    between atoms: N1_6  and  C3_8 
ROOT
HETATM    1  C3  UNL     1      62.488  83.209  14.624  1.00  0.00     0.092 C 
HETATM    2  C4  UNL     1      63.005  83.757  13.279  1.00  0.00     0.011 C 
HETATM    3  C5  UNL     1      61.950  83.244  12.348  1.00  0.00     0.007 C 
HETATM    4  C6  UNL     1      60.675  83.078  13.191  1.00  0.00     0.010 C 
HETATM    5  C7  UNL     1      61.086  83.763  14.479  1.00  0.00     0.042 C 
HETATM    6  C8  UNL     1      61.368  85.203  14.135  1.00  0.00     0.176 C 
HETATM    7  F1  UNL     1      61.269  86.051  15.206  1.00  0.00    -0.249 F 
HETATM    8  C9  UNL     1      62.752  85.226  13.497  1.00  0.00     0.044 C 
ENDROOT
BRANCH   1   9
HETATM    9  N1  UNL     1      63.249  83.836  15.646  1.00  0.00    -0.370 N 
ATOM     10  H1  UNL     1      63.367  84.848  15.691  1.00  0.00     0.158 HD
BRANCH   9  11
HETATM   11  C2  UNL     1      63.838  82.955  16.606  1.00  0.00     0.363 C 
BRANCH  11  12
HETATM   12  O1  UNL     1      63.137  83.093  17.795  1.00  0.00    -0.349 OA
HETATM   13  C1  UNL     1      62.386  81.979  18.122  1.00  0.00     0.206 C 
ENDBRANCH  11  12
BRANCH  11  14
HETATM   14  O2  UNL     1      65.184  83.303  16.874  1.00  0.00    -0.355 OA
ATOM     15  H2  UNL     1      65.271  84.232  16.696  1.00  0.00     0.214 HD
ENDBRANCH  11  14
ENDBRANCH   9  11
ENDBRANCH   1   9
TORSDOF 4
ENDMDL
MODEL 2
REMARK VINA RESULT: -6.547930720      1.362      2.055
REMARK  4 active torsions:
REMARK  status: ('A' for Active; 'I' for Inactive)
REMARK    1  A    between atoms: O1_2  and  C2_3 
REMARK    2  A    between atoms: C2_3  and  O2_4 
REMARK    3  A    between atoms: C2_3  and  N1_6 
REMARK    4  A    between atoms: N1_6  and  C3_8 
ROOT
HETATM    1  C3  UNL     1      62.400  83.920  15.361  1.00  0.00     0.092 C 
HETATM    2  C4  UNL     1      61.469  83.627  14.168  1.00  0.00     0.011 C 
HETATM    3  C5  UNL     1      60.709  84.916  14.089  1.00  0.00     0.007 C 
HETATM    4  C6  UNL     1      61.626  85.995  14.687  1.00  0.00     0.010 C 
HETATM    5  C7  UNL     1      62.929  85.231  14.817  1.00  0.00     0.042 C 
HETATM    6  C8  UNL     1      63.339  84.831  13.423  1.00  0.00     0.176 C 
HETATM    7  F1  UNL     1      64.681  84.584  13.298  1.00  0.00    -0.249 F 
HETATM    8  C9  UNL     1      62.486  83.623  13.056  1.00  0.00     0.044 C 
ENDROOT
BRANCH   1   9
HETATM    9  N1  UNL     1      63.368  82.881  15.394  1.00  0.00    -0.370 N 
ATOM     10  H1  UNL     1      63.638  82.364  14.558  1.00  0.00     0.158 HD
BRANCH   9  11
HETATM   11  C2  UNL     1      63.938  82.609  16.677  1.00  0.00     0.363 C 
BRANCH  11  12
HETATM   12  O1  UNL     1      63.040  83.042  17.642  1.00  0.00    -0.349 OA
HETATM   13  C1  UNL     1      62.393  82.007  18.293  1.00  0.00     0.206 C 
ENDBRANCH  11  12
BRANCH  11  14
HETATM   14  O2  UNL     1      65.140  83.330  16.875  1.00  0.00    -0.355 OA
ATOM     15  H2  UNL     1      65.852  82.703  16.831  1.00  0.00     0.214 HD
ENDBRANCH  11  14
ENDBRANCH   9  11
ENDBRANCH   1   9
TORSDOF 4
ENDMDL
MODEL 3
REMARK VINA RESULT: -6.371493117      1.336      1.685
REMARK  4 active torsions:
REMARK  status: ('A' for Active; 'I' for Inactive)
REMARK    1  A    between atoms: O1_2  and  C2_3 
REMARK    2  A    between atoms: C2_3  and  O2_4 
REMARK    3  A    between atoms: C2_3  and  N1_6 
REMARK    4  A    between atoms: N1_6  and  C3_8 
ROOT
HETATM    1  C3  UNL     1      62.887  83.797  14.173  1.00  0.00     0.092 C 
HETATM    2  C4  UNL     1      62.021  85.021  13.815  1.00  0.00     0.011 C 
HETATM    3  C5  UNL     1      61.687  84.713  12.387  1.00  0.00     0.007 C 
HETATM    4  C6  UNL     1      61.758  83.184  12.248  1.00  0.00     0.010 C 
HETATM    5  C7  UNL     1      61.885  82.764  13.699  1.00  0.00     0.042 C 
HETATM    6  C8  UNL     1      60.630  83.224  14.395  1.00  0.00     0.176 C 
HETATM    7  F1  UNL     1      60.354  82.525  15.541  1.00  0.00    -0.249 F 
HETATM    8  C9  UNL     1      60.804  84.716  14.649  1.00  0.00     0.044 C 
ENDROOT
BRANCH   1   9
HETATM    9  N1  UNL     1      63.065  83.817  15.582  1.00  0.00    -0.370 N 
ATOM     10  H1  UNL     1      62.542  84.449  16.187  1.00  0.00     0.158 HD
BRANCH   9  11
HETATM   11  C2  UNL     1      64.027  82.891  16.096  1.00  0.00     0.363 C 
BRANCH  11  12
HETATM   12  O1  UNL     1      63.335  81.852  16.701  1.00  0.00    -0.349 OA
HETATM   13  C1  UNL     1      62.646  82.240  17.836  1.00  0.00     0.206 C 
ENDBRANCH  11  12
BRANCH  11  14
HETATM   14  O2  UNL     1      64.839  83.484  17.091  1.00  0.00    -0.355 OA
ATOM     15  H2  UNL     1      65.024  84.372  16.807  1.00  0.00     0.214 HD
ENDBRANCH  11  14
ENDBRANCH   9  11
ENDBRANCH   1   9
TORSDOF 4
ENDMDL
MODEL 4
REMARK VINA RESULT: -6.032450499      1.230      1.875
REMARK  4 active torsions:
REMARK  status: ('A' for Active; 'I' for Inactive)
REMARK    1  A    between atoms: O1_2  and  C2_3 
REMARK    2  A    between atoms: C2_3  and  O2_4 
REMARK    3  A    between atoms: C2_3  and  N1_6 
REMARK    4  A    between atoms: N1_6  and  C3_8 
ROOT
HETATM    1  C3  UNL     1      61.671  83.406  14.677  1.00  0.00     0.092 C 
HETATM    2  C4  UNL     1      61.982  83.151  13.189  1.00  0.00     0.011 C 
HETATM    3  C5  UNL     1      60.872  83.920  12.540  1.00  0.00     0.007 C 
HETATM    4  C6  UNL     1      60.474  85.024  13.534  1.00  0.00     0.010 C 
HETATM    5  C7  UNL     1      61.590  84.913  14.554  1.00  0.00     0.042 C 
HETATM    6  C8  UNL     1      62.874  85.224  13.829  1.00  0.00     0.176 C 
HETATM    7  F1  UNL     1      63.880  85.647  14.657  1.00  0.00    -0.249 F 
HETATM    8  C9  UNL     1      63.244  83.963  13.057  1.00  0.00     0.044 C 
ENDROOT
BRANCH   1   9
HETATM    9  N1  UNL     1      62.795  82.952  15.417  1.00  0.00    -0.370 N 
ATOM     10  H1  UNL     1      63.589  82.492  14.972  1.00  0.00     0.158 HD
BRANCH   9  11
HETATM   11  C2  UNL     1      62.740  83.183  16.827  1.00  0.00     0.363 C 
BRANCH  11  12
HETATM   12  O1  UNL     1      63.975  83.674  17.226  1.00  0.00    -0.349 OA
HETATM   13  C1  UNL     1      65.007  83.320  16.376  1.00  0.00     0.206 C 
ENDBRANCH  11  12
BRANCH  11  14
HETATM   14  O2  UNL     1      62.521  81.981  17.543  1.00  0.00    -0.355 OA
ATOM     15  H2  UNL     1      61.622  81.999  17.848  1.00  0.00     0.214 HD
ENDBRANCH  11  14
ENDBRANCH   9  11
ENDBRANCH   1   9
TORSDOF 4
ENDMDL
MODEL 5
REMARK VINA RESULT: -5.954437408      3.111      4.424
REMARK  4 active torsions:
REMARK  status: ('A' for Active; 'I' for Inactive)
REMARK    1  A    between atoms: O1_2  and  C2_3 
REMARK    2  A    between atoms: C2_3  and  O2_4 
REMARK    3  A    between atoms: C2_3  and  N1_6 
REMARK    4  A    between atoms: N1_6  and  C3_8 
ROOT
HETATM    1  C3  UNL     1      62.289  84.136  15.033  1.00  0.00     0.092 C 
HETATM    2  C4  UNL     1      62.767  85.334  15.878  1.00  0.00     0.011 C 
HETATM    3  C5  UNL     1      63.398  84.621  17.035  1.00  0.00     0.007 C 
HETATM    4  C6  UNL     1      63.837  83.246  16.506  1.00  0.00     0.010 C 
HETATM    5  C7  UNL     1      63.626  83.426  15.015  1.00  0.00     0.042 C 
HETATM    6  C8  UNL     1      64.548  84.535  14.577  1.00  0.00     0.176 C 
HETATM    7  F1  UNL     1      64.850  84.498  13.241  1.00  0.00    -0.249 F 
HETATM    8  C9  UNL     1      63.874  85.838  14.988  1.00  0.00     0.044 C 
ENDROOT
BRANCH   1   9
HETATM    9  N1  UNL     1      61.898  84.652  13.769  1.00  0.00    -0.370 N 
ATOM     10  H1  UNL     1      62.566  85.075  13.124  1.00  0.00     0.158 HD
BRANCH   9  11
HETATM   11  C2  UNL     1      60.506  84.540  13.460  1.00  0.00     0.363 C 
BRANCH  11  12
HETATM   12  O1  UNL     1      60.373  83.624  12.427  1.00  0.00    -0.349 OA
HETATM   13  C1  UNL     1      61.575  83.295  11.827  1.00  0.00     0.206 C 
ENDBRANCH  11  12
BRANCH  11  14
HETATM   14  O2  UNL     1      59.976  85.768  12.997  1.00  0.00    -0.355 OA
ATOM     15  H2  UNL     1      60.100  85.787  12.055  1.00  0.00     0.214 HD
ENDBRANCH  11  14
ENDBRANCH   9  11
ENDBRANCH   1   9
TORSDOF 4
ENDMDL
