MODEL 1
REMARK VINA RESULT: -7.106350228      0.000      0.000
REMARK  9 active torsions:
REMARK  status: ('A' for Active; 'I' for Inactive)
REMARK    1  A    between atoms: C2_2  and  C3_3 
REMARK    2  A    between atoms: C3_3  and  N1_4 
REMARK    3  A    between atoms: N1_4  and  C4_5 
REMARK    4  A    between atoms: N1_4  and  C6_8 
REMARK    5  A    between atoms: C4_5  and  C5_6 
REMARK    6  A    between atoms: C6_8  and  C7_9 
REMARK    7  A    between atoms: C7_9  and  N2_10 
REMARK    8  A    between atoms: N3_13  and  S1_14 
REMARK    9  A    between atoms: S1_14  and  C10_17 
ROOT
HETATM    1  N2  UNL     1      28.381  19.340  14.268  1.00  0.00     0.095 N 
HETATM    2  C8  UNL     1      28.711  19.355  12.882  1.00  0.00     0.288 C 
HETATM    3  C9  UNL     1      27.852  18.642  11.930  1.00  0.00     0.138 C 
HETATM    4  N3  UNL     1      27.671  17.292  12.356  1.00  0.00    -0.204 NA
HETATM    5  C12 UNL     1      27.304  17.139  13.727  1.00  0.00     0.138 C 
HETATM    6  C13 UNL     1      27.618  18.196  14.685  1.00  0.00     0.288 C 
ENDROOT
BRANCH   1   7
HETATM    7  C7  UNL     1      27.611  20.575  14.623  1.00  0.00     0.317 C 
BRANCH   7   8
HETATM    8  C6  UNL     1      28.336  21.701  14.001  1.00  0.00     0.093 C 
BRANCH   8   9
HETATM    9  N1  UNL     1      29.441  22.259  14.626  1.00  0.00    -0.362 N 
BRANCH   9  10
HETATM   10  C3  UNL     1      30.113  21.710  15.704  1.00  0.00     0.089 C 
BRANCH  10  11
HETATM   11  C2  UNL     1      31.419  22.364  15.952  1.00  0.00     0.007 C 
HETATM   12  C1  UNL     1      31.809  22.904  17.082  1.00  0.00     0.012 C 
ENDBRANCH  10  11
ENDBRANCH   9  10
BRANCH   9  13
HETATM   13  C4  UNL     1      29.954  23.479  14.058  1.00  0.00     0.196 C 
BRANCH  13  14
HETATM   14  C5  UNL     1      29.066  24.589  14.572  1.00  0.00     0.251 C 
HETATM   15  O1  UNL     1      28.504  25.382  13.838  1.00  0.00    -0.305 OA
ENDBRANCH  13  14
ENDBRANCH   9  13
ENDBRANCH   8   9
ENDBRANCH   7   8
ENDBRANCH   1   7
BRANCH   4  16
HETATM   16  S1  UNL     1      28.964  16.231  11.929  1.00  0.00     0.233 S 
HETATM   17  O2  UNL     1      30.269  16.949  11.737  1.00  0.00    -0.207 OA
HETATM   18  O3  UNL     1      29.153  15.326  13.148  1.00  0.00    -0.207 OA
BRANCH  16  19
HETATM   19  C10 UNL     1      28.566  15.262  10.553  1.00  0.00     0.115 C 
HETATM   20  C11 UNL     1      28.897  13.979  10.523  1.00  0.00     0.024 C 
ENDBRANCH  16  19
ENDBRANCH   4  16
TORSDOF 9
ENDMDL
MODEL 2
REMARK VINA RESULT: -7.076782938      2.555      7.107
REMARK  9 active torsions:
REMARK  status: ('A' for Active; 'I' for Inactive)
REMARK    1  A    between atoms: C2_2  and  C3_3 
REMARK    2  A    between atoms: C3_3  and  N1_4 
REMARK    3  A    between atoms: N1_4  and  C4_5 
REMARK    4  A    between atoms: N1_4  and  C6_8 
REMARK    5  A    between atoms: C4_5  and  C5_6 
REMARK    6  A    between atoms: C6_8  and  C7_9 
REMARK    7  A    between atoms: C7_9  and  N2_10 
REMARK    8  A    between atoms: N3_13  and  S1_14 
REMARK    9  A    between atoms: S1_14  and  C10_17 
ROOT
HETATM    1  N2  UNL     1      29.750  20.522  12.283  1.00  0.00     0.095 N 
HETATM    2  C8  UNL     1      29.748  20.304  13.691  1.00  0.00     0.288 C 
HETATM    3  C9  UNL     1      28.895  21.137  14.548  1.00  0.00     0.138 C 
HETATM    4  N3  UNL     1      29.146  22.518  14.285  1.00  0.00    -0.204 NA
HETATM    5  C12 UNL     1      29.143  22.877  12.904  1.00  0.00     0.138 C 
HETATM    6  C13 UNL     1      29.399  21.858  11.889  1.00  0.00     0.288 C 
ENDROOT
BRANCH   1   7
HETATM    7  C7  UNL     1      28.804  19.570  11.617  1.00  0.00     0.317 C 
BRANCH   7   8
HETATM    8  C6  UNL     1      29.288  18.215  11.950  1.00  0.00     0.093 C 
BRANCH   8   9
HETATM    9  N1  UNL     1      28.424  17.270  12.483  1.00  0.00    -0.362 N 
BRANCH   9  10
HETATM   10  C3  UNL     1      28.649  15.905  12.508  1.00  0.00     0.089 C 
BRANCH  10  11
HETATM   11  C2  UNL     1      29.201  15.397  11.230  1.00  0.00     0.007 C 
HETATM   12  C1  UNL     1      29.373  14.137  10.910  1.00  0.00     0.012 C 
ENDBRANCH  10  11
ENDBRANCH   9  10
BRANCH   9  13
HETATM   13  C4  UNL     1      27.229  17.771  13.110  1.00  0.00     0.196 C 
BRANCH  13  14
HETATM   14  C5  UNL     1      27.105  17.040  14.426  1.00  0.00     0.251 C 
HETATM   15  O1  UNL     1      27.441  17.528  15.491  1.00  0.00    -0.305 OA
ENDBRANCH  13  14
ENDBRANCH   9  13
ENDBRANCH   8   9
ENDBRANCH   7   8
ENDBRANCH   1   7
BRANCH   4  16
HETATM   16  S1  UNL     1      30.527  23.158  15.100  1.00  0.00     0.233 S 
HETATM   17  O2  UNL     1      31.732  23.264  14.209  1.00  0.00    -0.207 OA
HETATM   18  O3  UNL     1      30.140  24.593  15.463  1.00  0.00    -0.207 OA
BRANCH  16  19
HETATM   19  C10 UNL     1      30.882  22.277  16.544  1.00  0.00     0.115 C 
HETATM   20  C11 UNL     1      31.854  22.681  17.349  1.00  0.00     0.024 C 
ENDBRANCH  16  19
ENDBRANCH   4  16
TORSDOF 9
ENDMDL
MODEL 3
REMARK VINA RESULT: -7.067551457      1.707      2.491
REMARK  9 active torsions:
REMARK  status: ('A' for Active; 'I' for Inactive)
REMARK    1  A    between atoms: C2_2  and  C3_3 
REMARK    2  A    between atoms: C3_3  and  N1_4 
REMARK    3  A    between atoms: N1_4  and  C4_5 
REMARK    4  A    between atoms: N1_4  and  C6_8 
REMARK    5  A    between atoms: C4_5  and  C5_6 
REMARK    6  A    between atoms: C6_8  and  C7_9 
REMARK    7  A    between atoms: C7_9  and  N2_10 
REMARK    8  A    between atoms: N3_13  and  S1_14 
REMARK    9  A    between atoms: S1_14  and  C10_17 
ROOT
HETATM    1  N2  UNL     1      28.550  19.419  14.134  1.00  0.00     0.095 N 
HETATM    2  C8  UNL     1      28.915  19.377  12.758  1.00  0.00     0.288 C 
HETATM    3  C9  UNL     1      28.042  18.684  11.803  1.00  0.00     0.138 C 
HETATM    4  N3  UNL     1      27.778  17.357  12.261  1.00  0.00    -0.204 NA
HETATM    5  C12 UNL     1      27.371  17.263  13.625  1.00  0.00     0.138 C 
HETATM    6  C13 UNL     1      27.717  18.330  14.562  1.00  0.00     0.288 C 
ENDROOT
BRANCH   1   7
HETATM    7  C7  UNL     1      27.839  20.703  14.435  1.00  0.00     0.317 C 
BRANCH   7   8
HETATM    8  C6  UNL     1      28.175  21.624  13.332  1.00  0.00     0.093 C 
BRANCH   8   9
HETATM    9  N1  UNL     1      29.189  22.559  13.478  1.00  0.00    -0.362 N 
BRANCH   9  10
HETATM   10  C3  UNL     1      29.871  23.168  12.439  1.00  0.00     0.089 C 
BRANCH  10  11
HETATM   11  C2  UNL     1      29.697  22.456  11.151  1.00  0.00     0.007 C 
HETATM   12  C1  UNL     1      30.536  22.469  10.143  1.00  0.00     0.012 C 
ENDBRANCH  10  11
ENDBRANCH   9  10
BRANCH   9  13
HETATM   13  C4  UNL     1      29.506  22.960  14.823  1.00  0.00     0.196 C 
BRANCH  13  14
HETATM   14  C5  UNL     1      30.994  22.753  14.987  1.00  0.00     0.251 C 
HETATM   15  O1  UNL     1      31.494  21.660  15.181  1.00  0.00    -0.305 OA
ENDBRANCH  13  14
ENDBRANCH   9  13
ENDBRANCH   8   9
ENDBRANCH   7   8
ENDBRANCH   1   7
BRANCH   4  16
HETATM   16  S1  UNL     1      29.022  16.217  11.896  1.00  0.00     0.233 S 
HETATM   17  O2  UNL     1      30.365  16.862  11.702  1.00  0.00    -0.207 OA
HETATM   18  O3  UNL     1      29.145  15.351  13.152  1.00  0.00    -0.207 OA
BRANCH  16  19
HETATM   19  C10 UNL     1      28.599  15.218  10.550  1.00  0.00     0.115 C 
HETATM   20  C11 UNL     1      28.914  13.932  10.550  1.00  0.00     0.024 C 
ENDBRANCH  16  19
ENDBRANCH   4  16
TORSDOF 9
ENDMDL
MODEL 4
REMARK VINA RESULT: -7.066395782      3.190      6.064
REMARK  9 active torsions:
REMARK  status: ('A' for Active; 'I' for Inactive)
REMARK    1  A    between atoms: C2_2  and  C3_3 
REMARK    2  A    between atoms: C3_3  and  N1_4 
REMARK    3  A    between atoms: N1_4  and  C4_5 
REMARK    4  A    between atoms: N1_4  and  C6_8 
REMARK    5  A    between atoms: C4_5  and  C5_6 
REMARK    6  A    between atoms: C6_8  and  C7_9 
REMARK    7  A    between atoms: C7_9  and  N2_10 
REMARK    8  A    between atoms: N3_13  and  S1_14 
REMARK    9  A    between atoms: S1_14  and  C10_17 
ROOT
HETATM    1  N2  UNL     1      29.555  19.311  12.793  1.00  0.00     0.095 N 
HETATM    2  C8  UNL     1      29.677  19.960  14.055  1.00  0.00     0.288 C 
HETATM    3  C9  UNL     1      28.661  20.937  14.463  1.00  0.00     0.138 C 
HETATM    4  N3  UNL     1      28.496  21.921  13.441  1.00  0.00    -0.204 NA
HETATM    5  C12 UNL     1      28.331  21.397  12.124  1.00  0.00     0.138 C 
HETATM    6  C13 UNL     1      28.822  20.057  11.809  1.00  0.00     0.288 C 
ENDROOT
BRANCH   1   7
HETATM    7  C7  UNL     1      28.892  17.979  12.965  1.00  0.00     0.317 C 
BRANCH   7   8
HETATM    8  C6  UNL     1      27.439  18.237  12.914  1.00  0.00     0.093 C 
BRANCH   8   9
HETATM    9  N1  UNL     1      26.618  17.855  13.965  1.00  0.00    -0.362 N 
BRANCH   9  10
HETATM   10  C3  UNL     1      27.005  17.073  15.039  1.00  0.00     0.089 C 
BRANCH  10  11
HETATM   11  C2  UNL     1      26.809  17.756  16.339  1.00  0.00     0.007 C 
HETATM   12  C1  UNL     1      27.690  18.508  16.955  1.00  0.00     0.012 C 
ENDBRANCH  10  11
ENDBRANCH   9  10
BRANCH   9  13
HETATM   13  C4  UNL     1      25.275  18.373  13.952  1.00  0.00     0.196 C 
BRANCH  13  14
HETATM   14  C5  UNL     1      25.336  19.688  13.212  1.00  0.00     0.251 C 
HETATM   15  O1  UNL     1      25.164  20.765  13.756  1.00  0.00    -0.305 OA
ENDBRANCH  13  14
ENDBRANCH   9  13
ENDBRANCH   8   9
ENDBRANCH   7   8
ENDBRANCH   1   7
BRANCH   4  16
HETATM   16  S1  UNL     1      29.671  23.185  13.473  1.00  0.00     0.233 S 
HETATM   17  O2  UNL     1      30.696  23.056  12.382  1.00  0.00    -0.207 OA
HETATM   18  O3  UNL     1      28.885  24.462  13.169  1.00  0.00    -0.207 OA
BRANCH  16  19
HETATM   19  C10 UNL     1      30.415  23.326  15.027  1.00  0.00     0.115 C 
HETATM   20  C11 UNL     1      31.723  23.159  15.157  1.00  0.00     0.024 C 
ENDBRANCH  16  19
ENDBRANCH   4  16
TORSDOF 9
ENDMDL
MODEL 5
REMARK VINA RESULT: -6.996704357      3.001      6.473
REMARK  9 active torsions:
REMARK  status: ('A' for Active; 'I' for Inactive)
REMARK    1  A    between atoms: C2_2  and  C3_3 
REMARK    2  A    between atoms: C3_3  and  N1_4 
REMARK    3  A    between atoms: N1_4  and  C4_5 
REMARK    4  A    between atoms: N1_4  and  C6_8 
REMARK    5  A    between atoms: C4_5  and  C5_6 
REMARK    6  A    between atoms: C6_8  and  C7_9 
REMARK    7  A    between atoms: C7_9  and  N2_10 
REMARK    8  A    between atoms: N3_13  and  S1_14 
REMARK    9  A    between atoms: S1_14  and  C10_17 
ROOT
HETATM    1  N2  UNL     1      29.724  19.240  12.707  1.00  0.00     0.095 N 
HETATM    2  C8  UNL     1      29.911  19.864  13.974  1.00  0.00     0.288 C 
HETATM    3  C9  UNL     1      28.896  20.799  14.473  1.00  0.00     0.138 C 
HETATM    4  N3  UNL     1      28.634  21.801  13.489  1.00  0.00    -0.204 NA
HETATM    5  C12 UNL     1      28.398  21.302  12.173  1.00  0.00     0.138 C 
HETATM    6  C13 UNL     1      28.905  19.986  11.792  1.00  0.00     0.288 C 
ENDROOT
BRANCH   1   7
HETATM    7  C7  UNL     1      29.113  17.885  12.889  1.00  0.00     0.317 C 
BRANCH   7   8
HETATM    8  C6  UNL     1      27.660  18.062  12.691  1.00  0.00     0.093 C 
BRANCH   8   9
HETATM    9  N1  UNL     1      26.769  17.783  13.716  1.00  0.00    -0.362 N 
BRANCH   9  10
HETATM   10  C3  UNL     1      25.427  18.122  13.724  1.00  0.00     0.089 C 
BRANCH  10  11
HETATM   11  C2  UNL     1      25.176  19.458  13.134  1.00  0.00     0.007 C 
HETATM   12  C1  UNL     1      25.273  20.608  13.758  1.00  0.00     0.012 C 
ENDBRANCH  10  11
ENDBRANCH   9  10
BRANCH   9  13
HETATM   13  C4  UNL     1      27.284  17.027  14.828  1.00  0.00     0.196 C 
BRANCH  13  14
HETATM   14  C5  UNL     1      26.928  17.810  16.071  1.00  0.00     0.251 C 
HETATM   15  O1  UNL     1      26.542  17.283  17.099  1.00  0.00    -0.305 OA
ENDBRANCH  13  14
ENDBRANCH   9  13
ENDBRANCH   8   9
ENDBRANCH   7   8
ENDBRANCH   1   7
BRANCH   4  16
HETATM   16  S1  UNL     1      29.772  23.099  13.475  1.00  0.00     0.233 S 
HETATM   17  O2  UNL     1      30.786  22.974  12.374  1.00  0.00    -0.207 OA
HETATM   18  O3  UNL     1      28.945  24.345  13.150  1.00  0.00    -0.207 OA
BRANCH  16  19
HETATM   19  C10 UNL     1      30.531  23.300  15.015  1.00  0.00     0.115 C 
HETATM   20  C11 UNL     1      31.839  23.131  15.141  1.00  0.00     0.024 C 
ENDBRANCH  16  19
ENDBRANCH   4  16
TORSDOF 9
ENDMDL
