MODEL 1
REMARK VINA RESULT: -7.319922843      0.000      0.000
REMARK  4 active torsions:
REMARK  status: ('A' for Active; 'I' for Inactive)
REMARK    1  A    between atoms: N1_1  and  C1_4 
REMARK    2  A    between atoms: C2_7  and  N3_8 
REMARK    3  A    between atoms: N3_8  and  N4_10 
REMARK    4  A    between atoms: N4_10  and  N5_12 
ROOT
HETATM    1  C1  UNL     1      -9.846  -2.597 126.574  1.00  0.00     0.147 A 
HETATM    2  N2  UNL     1     -10.406  -3.098 127.689  1.00  0.00    -0.173 N 
ATOM      3  H2  UNL     1      -9.894  -3.767 128.264  1.00  0.00     0.186 HD
HETATM    4  C2  UNL     1     -11.648  -2.712 128.041  1.00  0.00     0.701 A 
HETATM    5  N6  UNL     1     -12.316  -1.833 127.278  1.00  0.00    -0.171 N 
ATOM      6  H6  UNL     1     -13.255  -1.552 127.559  1.00  0.00     0.186 HD
HETATM    7  C3  UNL     1     -11.793  -1.308 126.158  1.00  0.00     0.169 A 
HETATM    8  N7  UNL     1     -12.193  -0.439 125.215  1.00  0.00    -0.268 N 
ATOM      9  H7  UNL     1     -13.100   0.028 125.210  1.00  0.00     0.190 HD
HETATM   10  N8  UNL     1     -11.260  -0.266 124.295  1.00  0.00    -0.240 N 
ATOM     11  H8  UNL     1     -11.315   0.340 123.476  1.00  0.00     0.208 HD
HETATM   12  N9  UNL     1     -10.247  -1.030 124.644  1.00  0.00    -0.279 N 
ATOM     13  H9  UNL     1      -9.375  -1.106 124.121  1.00  0.00     0.189 HD
HETATM   14  C4  UNL     1     -10.511  -1.697 125.781  1.00  0.00     0.139 A 
ENDROOT
BRANCH   4  15
HETATM   15  N3  UNL     1     -12.217  -3.269 129.234  1.00  0.00    -0.118 N 
ATOM     16  H3  UNL     1     -12.593  -2.667 129.966  1.00  0.00     0.207 HD
BRANCH  15  17
HETATM   17  N4  UNL     1     -12.239  -4.626 129.360  1.00  0.00    -0.235 N 
ATOM     18  H4  UNL     1     -12.020  -5.239 128.574  1.00  0.00     0.208 HD
BRANCH  17  19
HETATM   19  N5  UNL     1     -12.569  -5.129 130.586  1.00  0.00    -0.330 N 
ATOM     20  H52 UNL     1     -12.044  -4.856 131.418  1.00  0.00     0.178 HD
ATOM     21  H51 UNL     1     -13.354  -5.780 130.624  1.00  0.00     0.178 HD
ENDBRANCH  17  19
ENDBRANCH  15  17
ENDBRANCH   4  15
BRANCH   1  22
HETATM   22  N1  UNL     1      -8.662  -2.985 126.267  1.00  0.00    -0.383 N 
ATOM     23  H12 UNL     1      -7.916  -2.973 126.963  1.00  0.00     0.157 HD
ATOM     24  H11 UNL     1      -8.493  -3.302 125.312  1.00  0.00     0.157 HD
ENDBRANCH   1  22
TORSDOF 4
ENDMDL
MODEL 2
REMARK VINA RESULT: -7.252148329      1.442      2.640
REMARK  4 active torsions:
REMARK  status: ('A' for Active; 'I' for Inactive)
REMARK    1  A    between atoms: N1_1  and  C1_4 
REMARK    2  A    between atoms: C2_7  and  N3_8 
REMARK    3  A    between atoms: N3_8  and  N4_10 
REMARK    4  A    between atoms: N4_10  and  N5_12 
ROOT
HETATM    1  C1  UNL     1     -12.020  -1.269 127.617  1.00  0.00     0.147 A 
HETATM    2  N2  UNL     1     -12.777  -2.086 128.368  1.00  0.00    -0.173 N 
ATOM      3  H2  UNL     1     -13.658  -1.753 128.760  1.00  0.00     0.186 HD
HETATM    4  C2  UNL     1     -12.365  -3.348 128.600  1.00  0.00     0.701 A 
HETATM    5  N6  UNL     1     -11.205  -3.779 128.080  1.00  0.00    -0.171 N 
ATOM      6  H6  UNL     1     -10.909  -4.736 128.266  1.00  0.00     0.186 HD
HETATM    7  C3  UNL     1     -10.420  -2.995 127.325  1.00  0.00     0.169 A 
HETATM    8  N7  UNL     1      -9.246  -3.126 126.686  1.00  0.00    -0.268 N 
ATOM      9  H7  UNL     1      -8.687  -3.980 126.677  1.00  0.00     0.190 HD
HETATM   10  N8  UNL     1      -8.908  -2.008 126.068  1.00  0.00    -0.240 N 
ATOM     11  H8  UNL     1      -8.067  -1.846 125.514  1.00  0.00     0.208 HD
HETATM   12  N9  UNL     1      -9.871  -1.144 126.309  1.00  0.00    -0.279 N 
ATOM     13  H9  UNL     1      -9.887  -0.186 125.959  1.00  0.00     0.189 HD
HETATM   14  C4  UNL     1     -10.831  -1.689 127.076  1.00  0.00     0.139 A 
ENDROOT
BRANCH   4  15
HETATM   15  N3  UNL     1     -13.196  -4.193 129.408  1.00  0.00    -0.118 N 
ATOM     16  H3  UNL     1     -14.168  -4.371 129.155  1.00  0.00     0.207 HD
BRANCH  15  17
HETATM   17  N4  UNL     1     -12.649  -4.750 130.526  1.00  0.00    -0.235 N 
ATOM     18  H4  UNL     1     -12.698  -4.284 131.432  1.00  0.00     0.208 HD
BRANCH  17  19
HETATM   19  N5  UNL     1     -12.032  -5.959 130.377  1.00  0.00    -0.330 N 
ATOM     20  H52 UNL     1     -11.282  -6.241 131.010  1.00  0.00     0.178 HD
ATOM     21  H51 UNL     1     -12.355  -6.553 129.614  1.00  0.00     0.178 HD
ENDBRANCH  17  19
ENDBRANCH  15  17
ENDBRANCH   4  15
BRANCH   1  22
HETATM   22  N1  UNL     1     -12.440  -0.073 127.415  1.00  0.00    -0.383 N 
ATOM     23  H12 UNL     1     -13.338   0.231 127.791  1.00  0.00     0.157 HD
ATOM     24  H11 UNL     1     -11.851   0.557 126.870  1.00  0.00     0.157 HD
ENDBRANCH   1  22
TORSDOF 4
ENDMDL
MODEL 3
REMARK VINA RESULT: -7.234802516      0.728      2.503
REMARK  4 active torsions:
REMARK  status: ('A' for Active; 'I' for Inactive)
REMARK    1  A    between atoms: N1_1  and  C1_4 
REMARK    2  A    between atoms: C2_7  and  N3_8 
REMARK    3  A    between atoms: N3_8  and  N4_10 
REMARK    4  A    between atoms: N4_10  and  N5_12 
ROOT
HETATM    1  C1  UNL     1     -11.760  -1.441 126.071  1.00  0.00     0.147 A 
HETATM    2  N2  UNL     1     -12.571  -1.825 127.071  1.00  0.00    -0.173 N 
ATOM      3  H2  UNL     1     -13.509  -1.432 127.151  1.00  0.00     0.186 HD
HETATM    4  C2  UNL     1     -12.138  -2.734 127.968  1.00  0.00     0.701 A 
HETATM    5  N6  UNL     1     -10.903  -3.247 127.856  1.00  0.00    -0.171 N 
ATOM      6  H6  UNL     1     -10.592  -3.932 128.543  1.00  0.00     0.186 HD
HETATM    7  C3  UNL     1     -10.062  -2.891 126.872  1.00  0.00     0.169 A 
HETATM    8  N7  UNL     1      -8.811  -3.211 126.502  1.00  0.00    -0.268 N 
ATOM      9  H7  UNL     1      -8.219  -3.881 126.993  1.00  0.00     0.190 HD
HETATM   10  N8  UNL     1      -8.446  -2.546 125.420  1.00  0.00    -0.240 N 
ATOM     11  H8  UNL     1      -7.548  -2.608 124.939  1.00  0.00     0.208 HD
HETATM   12  N9  UNL     1      -9.468  -1.788 125.085  1.00  0.00    -0.279 N 
ATOM     13  H9  UNL     1      -9.481  -1.158 124.284  1.00  0.00     0.189 HD
HETATM   14  C4  UNL     1     -10.495  -1.954 125.938  1.00  0.00     0.139 A 
ENDROOT
BRANCH   4  15
HETATM   15  N3  UNL     1     -13.029  -3.118 129.024  1.00  0.00    -0.118 N 
ATOM     16  H3  UNL     1     -14.040  -3.106 128.889  1.00  0.00     0.207 HD
BRANCH  15  17
HETATM   17  N4  UNL     1     -12.484  -3.500 130.214  1.00  0.00    -0.235 N 
ATOM     18  H4  UNL     1     -11.981  -2.839 130.807  1.00  0.00     0.208 HD
BRANCH  17  19
HETATM   19  N5  UNL     1     -12.642  -4.807 130.578  1.00  0.00    -0.330 N 
ATOM     20  H52 UNL     1     -13.049  -5.049 131.481  1.00  0.00     0.178 HD
ATOM     21  H51 UNL     1     -12.336  -5.514 129.909  1.00  0.00     0.178 HD
ENDBRANCH  17  19
ENDBRANCH  15  17
ENDBRANCH   4  15
BRANCH   1  22
HETATM   22  N1  UNL     1     -12.202  -0.575 125.234  1.00  0.00    -0.383 N 
ATOM     23  H12 UNL     1     -13.205  -0.421 125.129  1.00  0.00     0.157 HD
ATOM     24  H11 UNL     1     -11.523  -0.051 124.682  1.00  0.00     0.157 HD
ENDBRANCH   1  22
TORSDOF 4
ENDMDL
MODEL 4
REMARK VINA RESULT: -6.867254257      1.833      5.224
REMARK  4 active torsions:
REMARK  status: ('A' for Active; 'I' for Inactive)
REMARK    1  A    between atoms: N1_1  and  C1_4 
REMARK    2  A    between atoms: C2_7  and  N3_8 
REMARK    3  A    between atoms: N3_8  and  N4_10 
REMARK    4  A    between atoms: N4_10  and  N5_12 
ROOT
HETATM    1  C1  UNL     1     -13.386  -4.184 127.243  1.00  0.00     0.147 A 
HETATM    2  N2  UNL     1     -13.085  -3.022 126.638  1.00  0.00    -0.173 N 
ATOM      3  H2  UNL     1     -13.271  -2.898 125.643  1.00  0.00     0.186 HD
HETATM    4  C2  UNL     1     -12.536  -2.022 127.355  1.00  0.00     0.701 A 
HETATM    5  N6  UNL     1     -12.294  -2.192 128.664  1.00  0.00    -0.171 N 
ATOM      6  H6  UNL     1     -11.878  -1.425 129.191  1.00  0.00     0.186 HD
HETATM    7  C3  UNL     1     -12.580  -3.336 129.306  1.00  0.00     0.169 A 
HETATM    8  N7  UNL     1     -12.463  -3.800 130.561  1.00  0.00    -0.268 N 
ATOM      9  H7  UNL     1     -12.076  -3.264 131.339  1.00  0.00     0.190 HD
HETATM   10  N8  UNL     1     -12.911  -5.039 130.659  1.00  0.00    -0.240 N 
ATOM     11  H8  UNL     1     -12.934  -5.615 131.501  1.00  0.00     0.208 HD
HETATM   12  N9  UNL     1     -13.324  -5.382 129.458  1.00  0.00    -0.279 N 
ATOM     13  H9  UNL     1     -13.725  -6.289 129.223  1.00  0.00     0.189 HD
HETATM   14  C4  UNL     1     -13.148  -4.378 128.579  1.00  0.00     0.139 A 
ENDROOT
BRANCH   4  15
HETATM   15  N3  UNL     1     -12.223  -0.797 126.678  1.00  0.00    -0.118 N 
ATOM     16  H3  UNL     1     -12.079   0.069 127.198  1.00  0.00     0.207 HD
BRANCH  15  17
HETATM   17  N4  UNL     1     -12.126  -0.823 125.318  1.00  0.00    -0.235 N 
ATOM     18  H4  UNL     1     -12.931  -1.037 124.730  1.00  0.00     0.208 HD
BRANCH  17  19
HETATM   19  N5  UNL     1     -10.901  -0.550 124.780  1.00  0.00    -0.330 N 
ATOM     20  H52 UNL     1     -10.267  -1.307 124.520  1.00  0.00     0.178 HD
ATOM     21  H51 UNL     1     -10.659   0.433 124.653  1.00  0.00     0.178 HD
ENDBRANCH  17  19
ENDBRANCH  15  17
ENDBRANCH   4  15
BRANCH   1  22
HETATM   22  N1  UNL     1     -13.908  -5.116 126.532  1.00  0.00    -0.383 N 
ATOM     23  H12 UNL     1     -13.384  -5.968 126.330  1.00  0.00     0.157 HD
ATOM     24  H11 UNL     1     -14.855  -4.978 126.179  1.00  0.00     0.157 HD
ENDBRANCH   1  22
TORSDOF 4
ENDMDL
MODEL 5
REMARK VINA RESULT: -6.833066648      1.517      4.956
REMARK  4 active torsions:
REMARK  status: ('A' for Active; 'I' for Inactive)
REMARK    1  A    between atoms: N1_1  and  C1_4 
REMARK    2  A    between atoms: C2_7  and  N3_8 
REMARK    3  A    between atoms: N3_8  and  N4_10 
REMARK    4  A    between atoms: N4_10  and  N5_12 
ROOT
HETATM    1  C1  UNL     1     -11.858  -0.826 127.389  1.00  0.00     0.147 A 
HETATM    2  N2  UNL     1     -10.725  -0.789 126.666  1.00  0.00    -0.173 N 
ATOM      3  H2  UNL     1     -10.481   0.048 126.138  1.00  0.00     0.186 HD
HETATM    4  C2  UNL     1      -9.914  -1.865 126.646  1.00  0.00     0.701 A 
HETATM    5  N6  UNL     1     -10.243  -2.963 127.344  1.00  0.00    -0.171 N 
ATOM      6  H6  UNL     1      -9.618  -3.768 127.316  1.00  0.00     0.186 HD
HETATM    7  C3  UNL     1     -11.364  -3.041 128.078  1.00  0.00     0.169 A 
HETATM    8  N7  UNL     1     -11.951  -3.963 128.858  1.00  0.00    -0.268 N 
ATOM      9  H7  UNL     1     -11.569  -4.892 129.039  1.00  0.00     0.190 HD
HETATM   10  N8  UNL     1     -13.086  -3.514 129.363  1.00  0.00    -0.240 N 
ATOM     11  H8  UNL     1     -13.720  -4.016 129.984  1.00  0.00     0.208 HD
HETATM   12  N9  UNL     1     -13.237  -2.289 128.906  1.00  0.00    -0.279 N 
ATOM     13  H9  UNL     1     -14.028  -1.684 129.127  1.00  0.00     0.189 HD
HETATM   14  C4  UNL     1     -12.212  -1.938 128.110  1.00  0.00     0.139 A 
ENDROOT
BRANCH   4  15
HETATM   15  N3  UNL     1      -8.715  -1.793 125.862  1.00  0.00    -0.118 N 
ATOM     16  H3  UNL     1      -8.328  -2.626 125.418  1.00  0.00     0.207 HD
BRANCH  15  17
HETATM   17  N4  UNL     1      -8.108  -0.580 125.728  1.00  0.00    -0.235 N 
ATOM     18  H4  UNL     1      -7.919   0.013 126.537  1.00  0.00     0.208 HD
BRANCH  17  19
HETATM   19  N5  UNL     1      -7.766  -0.194 124.464  1.00  0.00    -0.330 N 
ATOM     20  H52 UNL     1      -7.038  -0.691 123.949  1.00  0.00     0.178 HD
ATOM     21  H51 UNL     1      -8.267   0.603 124.071  1.00  0.00     0.178 HD
ENDBRANCH  17  19
ENDBRANCH  15  17
ENDBRANCH   4  15
BRANCH   1  22
HETATM   22  N1  UNL     1     -12.609   0.215 127.388  1.00  0.00    -0.383 N 
ATOM     23  H12 UNL     1     -12.347   1.042 127.924  1.00  0.00     0.157 HD
ATOM     24  H11 UNL     1     -13.467   0.187 126.838  1.00  0.00     0.157 HD
ENDBRANCH   1  22
TORSDOF 4
ENDMDL
