MODEL 1
REMARK VINA RESULT: -7.050189825      0.000      0.000
REMARK  5 active torsions:
REMARK  status: ('A' for Active; 'I' for Inactive)
REMARK    1  A    between atoms: N1_1  and  C1_4 
REMARK    2  A    between atoms: C3_11  and  N4_12 
REMARK    3  A    between atoms: N4_12  and  C4_14 
REMARK    4  A    between atoms: C4_14  and  N5_15 
REMARK    5  A    between atoms: N5_15  and  N6_16 
ROOT
HETATM    1  C1  UNL     1      -9.430  -0.798 125.772  1.00  0.00     0.195 A 
HETATM    2  O1  UNL     1     -10.192  -0.283 124.857  1.00  0.00    -0.216 OA
HETATM    3  N2  UNL     1     -11.415  -0.710 124.989  1.00  0.00    -0.240 N 
ATOM      4  H2  UNL     1     -12.201  -0.451 124.392  1.00  0.00     0.196 HD
HETATM    5  C2  UNL     1     -11.476  -1.544 126.035  1.00  0.00     0.173 A 
HETATM    6  N3  UNL     1     -12.297  -2.339 126.772  1.00  0.00    -0.173 N 
ATOM      7  H3  UNL     1     -13.295  -2.481 126.615  1.00  0.00     0.186 HD
HETATM    8  C3  UNL     1     -11.568  -2.898 127.734  1.00  0.00     0.681 A 
HETATM    9  N7  UNL     1     -10.302  -2.469 127.612  1.00  0.00    -0.184 N 
ATOM     10  H7  UNL     1      -9.526  -2.738 128.217  1.00  0.00     0.184 HD
HETATM   11  C5  UNL     1     -10.212  -1.619 126.555  1.00  0.00     0.148 A 
ENDROOT
BRANCH   8  12
HETATM   12  N4  UNL     1     -12.094  -3.805 128.715  1.00  0.00    -0.211 N 
ATOM     13  H4  UNL     1     -12.004  -3.575 129.704  1.00  0.00     0.179 HD
BRANCH  12  14
HETATM   14  C4  UNL     1     -12.747  -5.038 128.333  1.00  0.00     0.273 C 
BRANCH  14  15
HETATM   15  N5  UNL     1     -13.025  -5.821 129.522  1.00  0.00    -0.128 NA
BRANCH  15  16
HETATM   16  N6  UNL     1     -12.614  -5.113 130.650  1.00  0.00    -0.347 N 
ATOM     17  H62 UNL     1     -12.213  -4.176 130.630  1.00  0.00     0.172 HD
ATOM     18  H61 UNL     1     -12.779  -5.678 131.483  1.00  0.00     0.172 HD
ENDBRANCH  15  16
ENDBRANCH  14  15
ENDBRANCH  12  14
ENDBRANCH   8  12
BRANCH   1  19
HETATM   19  N1  UNL     1      -8.180  -0.590 125.928  1.00  0.00    -0.376 N 
ATOM     20  H12 UNL     1      -7.617   0.077 125.400  1.00  0.00     0.158 HD
ATOM     21  H11 UNL     1      -7.565  -1.054 126.596  1.00  0.00     0.158 HD
ENDBRANCH   1  19
TORSDOF 5
ENDMDL
MODEL 2
REMARK VINA RESULT: -6.845773695      2.246      5.324
REMARK  5 active torsions:
REMARK  status: ('A' for Active; 'I' for Inactive)
REMARK    1  A    between atoms: N1_1  and  C1_4 
REMARK    2  A    between atoms: C3_11  and  N4_12 
REMARK    3  A    between atoms: N4_12  and  C4_14 
REMARK    4  A    between atoms: C4_14  and  N5_15 
REMARK    5  A    between atoms: N5_15  and  N6_16 
ROOT
HETATM    1  C1  UNL     1     -12.944  -4.393 129.289  1.00  0.00     0.195 A 
HETATM    2  O1  UNL     1     -14.070  -4.523 128.656  1.00  0.00    -0.216 OA
HETATM    3  N2  UNL     1     -14.082  -3.773 127.591  1.00  0.00    -0.240 N 
ATOM      4  H2  UNL     1     -14.854  -3.699 126.928  1.00  0.00     0.196 HD
HETATM    5  C2  UNL     1     -12.918  -3.116 127.506  1.00  0.00     0.173 A 
HETATM    6  N3  UNL     1     -12.200  -2.225 126.772  1.00  0.00    -0.173 N 
ATOM      7  H3  UNL     1     -12.506  -1.770 125.911  1.00  0.00     0.186 HD
HETATM    8  C3  UNL     1     -11.027  -2.051 127.375  1.00  0.00     0.681 A 
HETATM    9  N7  UNL     1     -10.998  -2.817 128.477  1.00  0.00    -0.184 N 
ATOM     10  H7  UNL     1     -10.218  -2.880 129.131  1.00  0.00     0.184 HD
HETATM   11  C5  UNL     1     -12.170  -3.496 128.587  1.00  0.00     0.148 A 
ENDROOT
BRANCH   8  12
HETATM   12  N4  UNL     1      -9.997  -1.176 126.889  1.00  0.00    -0.211 N 
ATOM     13  H4  UNL     1      -9.497  -0.582 127.549  1.00  0.00     0.179 HD
BRANCH  12  14
HETATM   14  C4  UNL     1      -9.652  -1.119 125.486  1.00  0.00     0.273 C 
BRANCH  14  15
HETATM   15  N5  UNL     1      -8.421  -0.370 125.325  1.00  0.00    -0.128 NA
BRANCH  15  16
HETATM   16  N6  UNL     1      -7.935  -0.000 126.578  1.00  0.00    -0.347 N 
ATOM     17  H62 UNL     1      -7.333   0.805 126.749  1.00  0.00     0.172 HD
ATOM     18  H61 UNL     1      -8.277  -0.656 127.280  1.00  0.00     0.172 HD
ENDBRANCH  15  16
ENDBRANCH  14  15
ENDBRANCH  12  14
ENDBRANCH   8  12
BRANCH   1  19
HETATM   19  N1  UNL     1     -12.606  -4.985 130.369  1.00  0.00    -0.376 N 
ATOM     20  H12 UNL     1     -13.230  -5.514 130.978  1.00  0.00     0.158 HD
ATOM     21  H11 UNL     1     -11.672  -5.017 130.778  1.00  0.00     0.158 HD
ENDBRANCH   1  19
TORSDOF 5
ENDMDL
MODEL 3
REMARK VINA RESULT: -6.837400618      2.443      5.005
REMARK  5 active torsions:
REMARK  status: ('A' for Active; 'I' for Inactive)
REMARK    1  A    between atoms: N1_1  and  C1_4 
REMARK    2  A    between atoms: C3_11  and  N4_12 
REMARK    3  A    between atoms: N4_12  and  C4_14 
REMARK    4  A    between atoms: C4_14  and  N5_15 
REMARK    5  A    between atoms: N5_15  and  N6_16 
ROOT
HETATM    1  C1  UNL     1     -12.845  -4.252 129.268  1.00  0.00     0.195 A 
HETATM    2  O1  UNL     1     -14.010  -4.317 128.698  1.00  0.00    -0.216 OA
HETATM    3  N2  UNL     1     -14.031  -3.587 127.620  1.00  0.00    -0.240 N 
ATOM      4  H2  UNL     1     -14.831  -3.473 126.997  1.00  0.00     0.196 HD
HETATM    5  C2  UNL     1     -12.832  -3.011 127.460  1.00  0.00     0.173 A 
HETATM    6  N3  UNL     1     -12.098  -2.182 126.670  1.00  0.00    -0.173 N 
ATOM      7  H3  UNL     1     -12.421  -1.724 125.817  1.00  0.00     0.186 HD
HETATM    8  C3  UNL     1     -10.885  -2.076 127.206  1.00  0.00     0.681 A 
HETATM    9  N7  UNL     1     -10.847  -2.823 128.321  1.00  0.00    -0.184 N 
ATOM     10  H7  UNL     1     -10.038  -2.927 128.934  1.00  0.00     0.184 HD
HETATM   11  C5  UNL     1     -12.053  -3.421 128.507  1.00  0.00     0.148 A 
ENDROOT
BRANCH   8  12
HETATM   12  N4  UNL     1      -9.828  -1.282 126.648  1.00  0.00    -0.211 N 
ATOM     13  H4  UNL     1      -9.583  -0.397 127.092  1.00  0.00     0.179 HD
BRANCH  12  14
HETATM   14  C4  UNL     1      -9.103  -1.705 125.470  1.00  0.00     0.273 C 
BRANCH  14  15
HETATM   15  N5  UNL     1      -9.515  -3.048 125.110  1.00  0.00    -0.128 NA
BRANCH  15  16
HETATM   16  N6  UNL     1      -9.840  -3.087 123.756  1.00  0.00    -0.347 N 
ATOM     17  H62 UNL     1      -9.157  -3.101 122.998  1.00  0.00     0.172 HD
ATOM     18  H61 UNL     1     -10.854  -3.099 123.651  1.00  0.00     0.172 HD
ENDBRANCH  15  16
ENDBRANCH  14  15
ENDBRANCH  12  14
ENDBRANCH   8  12
BRANCH   1  19
HETATM   19  N1  UNL     1     -12.489  -4.846 130.341  1.00  0.00    -0.376 N 
ATOM     20  H12 UNL     1     -11.847  -4.475 131.042  1.00  0.00     0.158 HD
ATOM     21  H11 UNL     1     -12.789  -5.769 130.653  1.00  0.00     0.158 HD
ENDBRANCH   1  19
TORSDOF 5
ENDMDL
MODEL 4
REMARK VINA RESULT: -6.773061985      2.452      5.424
REMARK  5 active torsions:
REMARK  status: ('A' for Active; 'I' for Inactive)
REMARK    1  A    between atoms: N1_1  and  C1_4 
REMARK    2  A    between atoms: C3_11  and  N4_12 
REMARK    3  A    between atoms: N4_12  and  C4_14 
REMARK    4  A    between atoms: C4_14  and  N5_15 
REMARK    5  A    between atoms: N5_15  and  N6_16 
ROOT
HETATM    1  C1  UNL     1     -13.237  -4.499 129.141  1.00  0.00     0.195 A 
HETATM    2  O1  UNL     1     -13.017  -4.085 130.351  1.00  0.00    -0.216 OA
HETATM    3  N2  UNL     1     -12.542  -2.872 130.339  1.00  0.00    -0.240 N 
ATOM      4  H2  UNL     1     -12.288  -2.327 131.163  1.00  0.00     0.196 HD
HETATM    5  C2  UNL     1     -12.439  -2.457 129.069  1.00  0.00     0.173 A 
HETATM    6  N3  UNL     1     -12.070  -1.421 128.269  1.00  0.00    -0.173 N 
ATOM      7  H3  UNL     1     -11.701  -0.523 128.581  1.00  0.00     0.186 HD
HETATM    8  C3  UNL     1     -12.274  -1.788 127.007  1.00  0.00     0.681 A 
HETATM    9  N7  UNL     1     -12.764  -3.038 127.002  1.00  0.00    -0.184 N 
ATOM     10  H7  UNL     1     -13.012  -3.571 126.168  1.00  0.00     0.184 HD
HETATM   11  C5  UNL     1     -12.879  -3.484 128.280  1.00  0.00     0.148 A 
ENDROOT
BRANCH   8  12
HETATM   12  N4  UNL     1     -11.998  -0.951 125.874  1.00  0.00    -0.211 N 
ATOM     13  H4  UNL     1     -12.756  -0.409 125.459  1.00  0.00     0.179 HD
BRANCH  12  14
HETATM   14  C4  UNL     1     -10.672  -0.858 125.305  1.00  0.00     0.273 C 
BRANCH  14  15
HETATM   15  N5  UNL     1      -9.742  -0.415 126.327  1.00  0.00    -0.128 NA
BRANCH  15  16
HETATM   16  N6  UNL     1      -8.453  -0.821 125.989  1.00  0.00    -0.347 N 
ATOM     17  H62 UNL     1      -8.231  -1.475 125.238  1.00  0.00     0.172 HD
ATOM     18  H61 UNL     1      -7.781  -0.363 126.605  1.00  0.00     0.172 HD
ENDBRANCH  15  16
ENDBRANCH  14  15
ENDBRANCH  12  14
ENDBRANCH   8  12
BRANCH   1  19
HETATM   19  N1  UNL     1     -13.700  -5.638 128.799  1.00  0.00    -0.376 N 
ATOM     20  H12 UNL     1     -14.676  -5.927 128.860  1.00  0.00     0.158 HD
ATOM     21  H11 UNL     1     -13.168  -6.421 128.417  1.00  0.00     0.158 HD
ENDBRANCH   1  19
TORSDOF 5
ENDMDL
MODEL 5
REMARK VINA RESULT: -6.750543390      1.534      1.650
REMARK  5 active torsions:
REMARK  status: ('A' for Active; 'I' for Inactive)
REMARK    1  A    between atoms: N1_1  and  C1_4 
REMARK    2  A    between atoms: C3_11  and  N4_12 
REMARK    3  A    between atoms: N4_12  and  C4_14 
REMARK    4  A    between atoms: C4_14  and  N5_15 
REMARK    5  A    between atoms: N5_15  and  N6_16 
ROOT
HETATM    1  C1  UNL     1     -10.243  -1.400 126.657  1.00  0.00     0.195 A 
HETATM    2  O1  UNL     1     -10.964  -0.398 126.255  1.00  0.00    -0.216 OA
HETATM    3  N2  UNL     1     -12.113  -0.389 126.868  1.00  0.00    -0.240 N 
ATOM      4  H2  UNL     1     -12.854   0.297 126.726  1.00  0.00     0.196 HD
HETATM    5  C2  UNL     1     -12.164  -1.425 127.715  1.00  0.00     0.173 A 
HETATM    6  N3  UNL     1     -12.932  -2.066 128.636  1.00  0.00    -0.173 N 
ATOM      7  H3  UNL     1     -13.871  -1.795 128.928  1.00  0.00     0.186 HD
HETATM    8  C3  UNL     1     -12.241  -3.109 129.089  1.00  0.00     0.681 A 
HETATM    9  N7  UNL     1     -11.053  -3.134 128.465  1.00  0.00    -0.184 N 
ATOM     10  H7  UNL     1     -10.321  -3.828 128.619  1.00  0.00     0.184 HD
HETATM   11  C5  UNL     1     -10.974  -2.091 127.598  1.00  0.00     0.148 A 
ENDROOT
BRANCH   8  12
HETATM   12  N4  UNL     1     -12.731  -4.027 130.078  1.00  0.00    -0.211 N 
ATOM     13  H4  UNL     1     -12.968  -3.678 131.007  1.00  0.00     0.179 HD
BRANCH  12  14
HETATM   14  C4  UNL     1     -12.896  -5.434 129.790  1.00  0.00     0.273 C 
BRANCH  14  15
HETATM   15  N5  UNL     1     -11.638  -5.977 129.314  1.00  0.00    -0.128 NA
BRANCH  15  16
HETATM   16  N6  UNL     1     -10.964  -6.584 130.372  1.00  0.00    -0.347 N 
ATOM     17  H62 UNL     1     -11.419  -6.977 131.197  1.00  0.00     0.172 HD
ATOM     18  H61 UNL     1      -9.961  -6.571 130.188  1.00  0.00     0.172 HD
ENDBRANCH  15  16
ENDBRANCH  14  15
ENDBRANCH  12  14
ENDBRANCH   8  12
BRANCH   1  19
HETATM   19  N1  UNL     1      -9.067  -1.700 126.259  1.00  0.00    -0.376 N 
ATOM     20  H12 UNL     1      -8.220  -1.665 126.825  1.00  0.00     0.158 HD
ATOM     21  H11 UNL     1      -8.804  -2.017 125.326  1.00  0.00     0.158 HD
ENDBRANCH   1  19
TORSDOF 5
ENDMDL
