MODEL 1
REMARK VINA RESULT: -7.584819056      0.000      0.000
REMARK  4 active torsions:
REMARK  status: ('A' for Active; 'I' for Inactive)
REMARK    1  A    between atoms: N1_1  and  C1_4 
REMARK    2  A    between atoms: C4_14  and  N5_15 
REMARK    3  A    between atoms: N5_15  and  N6_17 
REMARK    4  A    between atoms: N6_17  and  N7_18 
ROOT
HETATM    1  C1  UNL     1     -10.642  -0.649 124.739  1.00  0.00     0.679 A 
HETATM    2  N2  UNL     1      -9.609  -1.480 124.861  1.00  0.00    -0.175 N 
ATOM      3  H2  UNL     1      -8.910  -1.548 124.120  1.00  0.00     0.186 HD
HETATM    4  C2  UNL     1      -9.495  -2.244 125.997  1.00  0.00     0.146 A 
HETATM    5  N3  UNL     1      -8.565  -3.006 126.140  1.00  0.00    -0.383 N 
ATOM      6  H31 UNL     1      -8.481  -3.573 126.983  1.00  0.00     0.157 HD
ATOM      7  H32 UNL     1      -7.853  -3.092 125.415  1.00  0.00     0.157 HD
HETATM    8  C3  UNL     1     -10.475  -2.125 126.994  1.00  0.00     0.138 A 
HETATM    9  N4  UNL     1     -10.653  -2.711 128.183  1.00  0.00    -0.183 N 
ATOM     10  H4  UNL     1     -10.020  -3.408 128.575  1.00  0.00     0.184 HD
HETATM   11  C4  UNL     1     -11.767  -2.273 128.802  1.00  0.00     0.697 A 
HETATM   12  N8  UNL     1     -12.302  -1.361 127.940  1.00  0.00    -0.172 N 
ATOM     13  H8  UNL     1     -13.159  -0.833 128.105  1.00  0.00     0.186 HD
HETATM   14  C5  UNL     1     -11.531  -1.260 126.838  1.00  0.00     0.167 A 
HETATM   15  N9  UNL     1     -11.575  -0.548 125.705  1.00  0.00    -0.174 N 
ATOM     16  H9  UNL     1     -12.350   0.100 125.567  1.00  0.00     0.186 HD
ENDROOT
BRANCH  11  17
HETATM   17  N5  UNL     1     -12.291  -2.655 130.072  1.00  0.00    -0.116 N 
ATOM     18  H5  UNL     1     -11.996  -2.141 130.901  1.00  0.00     0.203 HD
BRANCH  17  19
HETATM   19  N6  UNL     1     -13.198  -3.712 130.219  1.00  0.00    -0.015 NA
BRANCH  19  20
HETATM   20  N7  UNL     1     -12.521  -4.879 130.646  1.00  0.00    -0.328 N 
ATOM     21  H72 UNL     1     -11.714  -5.278 130.169  1.00  0.00     0.174 HD
ATOM     22  H71 UNL     1     -12.959  -5.250 131.490  1.00  0.00     0.174 HD
ENDBRANCH  19  20
ENDBRANCH  17  19
ENDBRANCH  11  17
BRANCH   1  23
HETATM   23  N1  UNL     1     -10.719   0.070 123.646  1.00  0.00    -0.234 N 
ATOM     24  H12 UNL     1     -10.969  -0.354 122.753  1.00  0.00     0.174 HD
ATOM     25  H11 UNL     1     -10.524   1.068 123.721  1.00  0.00     0.174 HD
ENDBRANCH   1  23
TORSDOF 4
ENDMDL
MODEL 2
REMARK VINA RESULT: -7.296440507      0.988      2.285
REMARK  4 active torsions:
REMARK  status: ('A' for Active; 'I' for Inactive)
REMARK    1  A    between atoms: N1_1  and  C1_4 
REMARK    2  A    between atoms: C4_14  and  N5_15 
REMARK    3  A    between atoms: N5_15  and  N6_17 
REMARK    4  A    between atoms: N6_17  and  N7_18 
ROOT
HETATM    1  C1  UNL     1      -9.148  -1.943 125.232  1.00  0.00     0.679 A 
HETATM    2  N2  UNL     1     -10.110  -1.176 124.722  1.00  0.00    -0.175 N 
ATOM      3  H2  UNL     1      -9.935  -0.615 123.888  1.00  0.00     0.186 HD
HETATM    4  C2  UNL     1     -11.339  -1.149 125.334  1.00  0.00     0.146 A 
HETATM    5  N3  UNL     1     -12.235  -0.466 124.892  1.00  0.00    -0.383 N 
ATOM      6  H31 UNL     1     -13.149  -0.446 125.346  1.00  0.00     0.157 HD
ATOM      7  H32 UNL     1     -12.087   0.104 124.060  1.00  0.00     0.157 HD
HETATM    8  C3  UNL     1     -11.543  -1.934 126.480  1.00  0.00     0.138 A 
HETATM    9  N4  UNL     1     -12.591  -2.126 127.288  1.00  0.00    -0.183 N 
ATOM     10  H4  UNL     1     -13.497  -1.674 127.164  1.00  0.00     0.184 HD
HETATM   11  C4  UNL     1     -12.309  -2.986 128.286  1.00  0.00     0.697 A 
HETATM   12  N8  UNL     1     -11.010  -3.344 128.075  1.00  0.00    -0.172 N 
ATOM     13  H8  UNL     1     -10.479  -3.993 128.656  1.00  0.00     0.186 HD
HETATM   14  C5  UNL     1     -10.530  -2.714 126.983  1.00  0.00     0.167 A 
HETATM   15  N9  UNL     1      -9.359  -2.689 126.333  1.00  0.00    -0.174 N 
ATOM     16  H9  UNL     1      -8.593  -3.260 126.689  1.00  0.00     0.186 HD
ENDROOT
BRANCH  11  17
HETATM   17  N5  UNL     1     -13.157  -3.440 129.339  1.00  0.00    -0.116 N 
ATOM     18  H5  UNL     1     -13.677  -2.751 129.883  1.00  0.00     0.203 HD
BRANCH  17  19
HETATM   19  N6  UNL     1     -13.301  -4.797 129.652  1.00  0.00    -0.015 NA
BRANCH  19  20
HETATM   20  N7  UNL     1     -12.448  -5.143 130.727  1.00  0.00    -0.328 N 
ATOM     21  H72 UNL     1     -12.118  -4.481 131.429  1.00  0.00     0.174 HD
ATOM     22  H71 UNL     1     -12.221  -6.136 130.690  1.00  0.00     0.174 HD
ENDBRANCH  19  20
ENDBRANCH  17  19
ENDBRANCH  11  17
BRANCH   1  23
HETATM   23  N1  UNL     1      -7.987  -1.950 124.622  1.00  0.00    -0.234 N 
ATOM     24  H12 UNL     1      -7.904  -2.256 123.653  1.00  0.00     0.174 HD
ATOM     25  H11 UNL     1      -7.173  -1.637 125.150  1.00  0.00     0.174 HD
ENDBRANCH   1  23
TORSDOF 4
ENDMDL
MODEL 3
REMARK VINA RESULT: -7.222913407      1.510      5.299
REMARK  4 active torsions:
REMARK  status: ('A' for Active; 'I' for Inactive)
REMARK    1  A    between atoms: N1_1  and  C1_4 
REMARK    2  A    between atoms: C4_14  and  N5_15 
REMARK    3  A    between atoms: N5_15  and  N6_17 
REMARK    4  A    between atoms: N6_17  and  N7_18 
ROOT
HETATM    1  C1  UNL     1     -12.557  -2.771 129.206  1.00  0.00     0.679 A 
HETATM    2  N2  UNL     1     -12.922  -1.588 128.715  1.00  0.00    -0.175 N 
ATOM      3  H2  UNL     1     -13.717  -1.087 129.112  1.00  0.00     0.186 HD
HETATM    4  C2  UNL     1     -12.212  -1.051 127.669  1.00  0.00     0.146 A 
HETATM    5  N3  UNL     1     -12.515   0.024 127.203  1.00  0.00    -0.383 N 
ATOM      6  H31 UNL     1     -11.989   0.424 126.426  1.00  0.00     0.157 HD
ATOM      7  H32 UNL     1     -13.306   0.546 127.581  1.00  0.00     0.157 HD
HETATM    8  C3  UNL     1     -11.124  -1.768 127.148  1.00  0.00     0.138 A 
HETATM    9  N4  UNL     1     -10.255  -1.532 126.160  1.00  0.00    -0.183 N 
ATOM     10  H4  UNL     1     -10.265  -0.693 125.580  1.00  0.00     0.184 HD
HETATM   11  C4  UNL     1      -9.364  -2.533 126.019  1.00  0.00     0.697 A 
HETATM   12  N8  UNL     1      -9.708  -3.437 126.982  1.00  0.00    -0.172 N 
ATOM     13  H8  UNL     1      -9.228  -4.321 127.152  1.00  0.00     0.186 HD
HETATM   14  C5  UNL     1     -10.774  -2.989 127.676  1.00  0.00     0.167 A 
HETATM   15  N9  UNL     1     -11.511  -3.448 128.694  1.00  0.00    -0.174 N 
ATOM     16  H9  UNL     1     -11.269  -4.351 129.101  1.00  0.00     0.186 HD
ENDROOT
BRANCH  11  17
HETATM   17  N5  UNL     1      -8.292  -2.649 125.085  1.00  0.00    -0.116 N 
ATOM     18  H5  UNL     1      -7.662  -3.448 125.157  1.00  0.00     0.203 HD
BRANCH  17  19
HETATM   19  N6  UNL     1      -8.076  -1.706 124.074  1.00  0.00    -0.015 NA
BRANCH  19  20
HETATM   20  N7  UNL     1      -7.699  -0.464 124.637  1.00  0.00    -0.328 N 
ATOM     21  H72 UNL     1      -7.101  -0.367 125.458  1.00  0.00     0.174 HD
ATOM     22  H71 UNL     1      -8.111   0.303 124.105  1.00  0.00     0.174 HD
ENDBRANCH  19  20
ENDBRANCH  17  19
ENDBRANCH  11  17
BRANCH   1  23
HETATM   23  N1  UNL     1     -13.251  -3.255 130.208  1.00  0.00    -0.234 N 
ATOM     24  H12 UNL     1     -14.268  -3.186 130.226  1.00  0.00     0.174 HD
ATOM     25  H11 UNL     1     -12.738  -3.703 130.967  1.00  0.00     0.174 HD
ENDBRANCH   1  23
TORSDOF 4
ENDMDL
MODEL 4
REMARK VINA RESULT: -7.169939172      1.694      5.443
REMARK  4 active torsions:
REMARK  status: ('A' for Active; 'I' for Inactive)
REMARK    1  A    between atoms: N1_1  and  C1_4 
REMARK    2  A    between atoms: C4_14  and  N5_15 
REMARK    3  A    between atoms: N5_15  and  N6_17 
REMARK    4  A    between atoms: N6_17  and  N7_18 
ROOT
HETATM    1  C1  UNL     1     -12.704  -4.798 129.127  1.00  0.00     0.679 A 
HETATM    2  N2  UNL     1     -13.245  -3.583 129.195  1.00  0.00    -0.175 N 
ATOM      3  H2  UNL     1     -14.107  -3.430 129.720  1.00  0.00     0.186 HD
HETATM    4  C2  UNL     1     -12.628  -2.539 128.551  1.00  0.00     0.146 A 
HETATM    5  N3  UNL     1     -13.092  -1.422 128.597  1.00  0.00    -0.383 N 
ATOM      6  H31 UNL     1     -12.634  -0.646 128.119  1.00  0.00     0.157 HD
ATOM      7  H32 UNL     1     -13.953  -1.242 129.115  1.00  0.00     0.157 HD
HETATM    8  C3  UNL     1     -11.444  -2.786 127.838  1.00  0.00     0.138 A 
HETATM    9  N4  UNL     1     -10.624  -2.011 127.121  1.00  0.00    -0.183 N 
ATOM     10  H4  UNL     1     -10.763  -1.011 126.980  1.00  0.00     0.184 HD
HETATM   11  C4  UNL     1      -9.591  -2.708 126.607  1.00  0.00     0.697 A 
HETATM   12  N8  UNL     1      -9.791  -3.987 127.037  1.00  0.00    -0.172 N 
ATOM     13  H8  UNL     1      -9.183  -4.778 126.825  1.00  0.00     0.186 HD
HETATM   14  C5  UNL     1     -10.912  -4.052 127.785  1.00  0.00     0.167 A 
HETATM   15  N9  UNL     1     -11.568  -5.019 128.438  1.00  0.00    -0.174 N 
ATOM     16  H9  UNL     1     -11.191  -5.966 128.412  1.00  0.00     0.186 HD
ENDROOT
BRANCH  11  17
HETATM   17  N5  UNL     1      -8.516  -2.241 125.794  1.00  0.00    -0.116 N 
ATOM     18  H5  UNL     1      -7.780  -2.895 125.529  1.00  0.00     0.203 HD
BRANCH  17  19
HETATM   19  N6  UNL     1      -8.436  -0.916 125.349  1.00  0.00    -0.015 NA
BRANCH  19  20
HETATM   20  N7  UNL     1      -7.867  -0.097 126.352  1.00  0.00    -0.328 N 
ATOM     21  H72 UNL     1      -7.708  -0.399 127.314  1.00  0.00     0.174 HD
ATOM     22  H71 UNL     1      -7.645   0.823 125.972  1.00  0.00     0.174 HD
ENDBRANCH  19  20
ENDBRANCH  17  19
ENDBRANCH  11  17
BRANCH   1  23
HETATM   23  N1  UNL     1     -13.314  -5.772 129.758  1.00  0.00    -0.234 N 
ATOM     24  H12 UNL     1     -12.919  -6.178 130.606  1.00  0.00     0.174 HD
ATOM     25  H11 UNL     1     -14.197  -6.107 129.373  1.00  0.00     0.174 HD
ENDBRANCH   1  23
TORSDOF 4
ENDMDL
MODEL 5
REMARK VINA RESULT: -7.115287611      1.636      2.750
REMARK  4 active torsions:
REMARK  status: ('A' for Active; 'I' for Inactive)
REMARK    1  A    between atoms: N1_1  and  C1_4 
REMARK    2  A    between atoms: C4_14  and  N5_15 
REMARK    3  A    between atoms: N5_15  and  N6_17 
REMARK    4  A    between atoms: N6_17  and  N7_18 
ROOT
HETATM    1  C1  UNL     1      -9.658  -1.339 126.432  1.00  0.00     0.679 A 
HETATM    2  N2  UNL     1     -10.598  -0.412 126.612  1.00  0.00    -0.175 N 
ATOM      3  H2  UNL     1     -10.425   0.557 126.345  1.00  0.00     0.186 HD
HETATM    4  C2  UNL     1     -11.802  -0.778 127.162  1.00  0.00     0.146 A 
HETATM    5  N3  UNL     1     -12.678   0.040 127.334  1.00  0.00    -0.383 N 
ATOM      6  H31 UNL     1     -13.572  -0.232 127.742  1.00  0.00     0.157 HD
ATOM      7  H32 UNL     1     -12.530   1.015 127.076  1.00  0.00     0.157 HD
HETATM    8  C3  UNL     1     -12.005  -2.121 127.518  1.00  0.00     0.138 A 
HETATM    9  N4  UNL     1     -13.031  -2.783 128.061  1.00  0.00    -0.183 N 
ATOM     10  H4  UNL     1     -13.917  -2.349 128.319  1.00  0.00     0.184 HD
HETATM   11  C4  UNL     1     -12.758  -4.092 128.227  1.00  0.00     0.697 A 
HETATM   12  N8  UNL     1     -11.487  -4.240 127.755  1.00  0.00    -0.172 N 
ATOM     13  H8  UNL     1     -10.969  -5.119 127.732  1.00  0.00     0.186 HD
HETATM   14  C5  UNL     1     -11.014  -3.053 127.321  1.00  0.00     0.167 A 
HETATM   15  N9  UNL     1      -9.868  -2.623 126.781  1.00  0.00    -0.174 N 
ATOM     16  H9  UNL     1      -9.120  -3.298 126.626  1.00  0.00     0.186 HD
ENDROOT
BRANCH  11  17
HETATM   17  N5  UNL     1     -13.590  -5.115 128.769  1.00  0.00    -0.116 N 
ATOM     18  H5  UNL     1     -14.542  -5.214 128.416  1.00  0.00     0.203 HD
BRANCH  17  19
HETATM   19  N6  UNL     1     -13.146  -5.989 129.770  1.00  0.00    -0.015 NA
BRANCH  19  20
HETATM   20  N7  UNL     1     -12.478  -5.267 130.787  1.00  0.00    -0.328 N 
ATOM     21  H72 UNL     1     -12.953  -4.776 131.544  1.00  0.00     0.174 HD
ATOM     22  H71 UNL     1     -11.469  -5.314 130.647  1.00  0.00     0.174 HD
ENDBRANCH  19  20
ENDBRANCH  17  19
ENDBRANCH  11  17
BRANCH   1  23
HETATM   23  N1  UNL     1      -8.522  -0.959 125.900  1.00  0.00    -0.234 N 
ATOM     24  H12 UNL     1      -8.255   0.025 125.877  1.00  0.00     0.174 HD
ATOM     25  H11 UNL     1      -7.915  -1.681 125.514  1.00  0.00     0.174 HD
ENDBRANCH   1  23
TORSDOF 4
ENDMDL
