MODEL 1
REMARK VINA RESULT: -9.018264533      0.000      0.000
REMARK  17 active torsions:
REMARK  status: ('A' for Active; 'I' for Inactive)
REMARK    1  A    between atoms: C1_2  and  O2_4 
REMARK    2  A    between atoms: O2_4  and  C2_5 
REMARK    3  A    between atoms: C2_5  and  C3_7 
REMARK    4  A    between atoms: C4_8  and  O4_9 
REMARK    5  A    between atoms: C6_12  and  O5_13 
REMARK    6  A    between atoms: C9_18  and  C10_19 
REMARK    7  A    between atoms: C10_19  and  O8_21 
REMARK    8  A    between atoms: O8_21  and  C11_22 
REMARK    9  A    between atoms: C12_23  and  O9_24 
REMARK   10  A    between atoms: C12_23  and  C13_26 
REMARK   11  A    between atoms: C13_26  and  O10_27 
REMARK   12  A    between atoms: C13_26  and  C14_29 
REMARK   13  A    between atoms: C14_29  and  O11_30 
REMARK   14  A    between atoms: C14_29  and  C15_32 
REMARK   15  A    between atoms: C15_32  and  O12_33 
REMARK   16  A    between atoms: C16_35  and  C17_36 
REMARK   17  A    between atoms: C22_41  and  O13_42 
ROOT
HETATM    1  C3  UNL     1      -4.456  17.538 -35.373  1.00  0.00     0.108 A 
HETATM    2  C4  UNL     1      -3.154  17.044 -35.485  1.00  0.00     0.087 A 
HETATM    3  C5  UNL     1      -2.404  16.642 -34.403  1.00  0.00     0.075 A 
HETATM    4  C6  UNL     1      -2.990  16.745 -33.164  1.00  0.00     0.085 A 
HETATM    5  C7  UNL     1      -4.293  17.239 -33.030  1.00  0.00     0.083 A 
HETATM    6  C8  UNL     1      -4.851  17.329 -31.788  1.00  0.00     0.206 A 
HETATM    7  O6  UNL     1      -4.232  16.981 -30.753  1.00  0.00    -0.286 OA
HETATM    8  C9  UNL     1      -6.179  17.839 -31.698  1.00  0.00     0.125 A 
HETATM    9  C16 UNL     1      -6.855  18.212 -32.781  1.00  0.00     0.109 A 
HETATM   10  O14 UNL     1      -6.246  18.099 -33.989  1.00  0.00    -0.306 OA
HETATM   11  C23 UNL     1      -5.039  17.642 -34.139  1.00  0.00     0.112 A 
ENDROOT
BRANCH   8  12
HETATM   12  C10 UNL     1      -6.603  17.970 -30.318  1.00  0.00     0.304 C 
HETATM   13  O7  UNL     1      -6.556  19.117 -29.811  1.00  0.00    -0.259 OA
BRANCH  12  14
HETATM   14  O8  UNL     1      -7.011  16.973 -29.559  1.00  0.00    -0.284 OA
BRANCH  14  15
HETATM   15  C11 UNL     1      -7.941  16.467 -28.792  1.00  0.00     0.180 C 
HETATM   16  C12 UNL     1      -8.353  16.798 -27.454  1.00  0.00     0.097 C 
BRANCH  16  17
HETATM   17  O9  UNL     1      -9.415  16.118 -27.085  1.00  0.00    -0.360 OA
ATOM     18  H9  UNL     1      -9.189  15.250 -26.771  1.00  0.00     0.217 HD
ENDBRANCH  16  17
BRANCH  16  19
HETATM   19  C13 UNL     1      -7.890  17.697 -26.404  1.00  0.00     0.207 C 
BRANCH  19  20
HETATM   20  O10 UNL     1      -7.351  18.863 -26.810  1.00  0.00    -0.386 OA
ATOM     21  H10 UNL     1      -6.573  18.801 -27.352  1.00  0.00     0.210 HD
ENDBRANCH  19  20
BRANCH  19  22
HETATM   22  C14 UNL     1      -6.938  16.959 -25.456  1.00  0.00     0.176 C 
BRANCH  22  23
HETATM   23  O11 UNL     1      -7.701  16.296 -24.504  1.00  0.00    -0.390 OA
ATOM     24  H11 UNL     1      -7.751  15.380 -24.749  1.00  0.00     0.210 HD
ENDBRANCH  22  23
BRANCH  22  25
HETATM   25  C15 UNL     1      -6.137  15.897 -26.183  1.00  0.00     0.198 C 
BRANCH  25  26
HETATM   26  O12 UNL     1      -4.792  15.903 -25.845  1.00  0.00    -0.398 OA
ATOM     27  H12 UNL     1      -4.439  15.033 -25.703  1.00  0.00     0.209 HD
ENDBRANCH  25  26
ENDBRANCH  22  25
ENDBRANCH  19  22
ENDBRANCH  16  19
ENDBRANCH  14  15
ENDBRANCH  12  14
ENDBRANCH   8  12
BRANCH   9  28
HETATM   28  C17 UNL     1      -8.211  18.748 -32.763  1.00  0.00     0.032 A 
HETATM   29  C18 UNL     1      -9.356  18.068 -32.554  1.00  0.00     0.017 A 
HETATM   30  C19 UNL     1     -10.624  18.659 -32.485  1.00  0.00     0.001 A 
HETATM   31  C20 UNL     1     -10.675  20.022 -32.646  1.00  0.00     0.003 A 
HETATM   32  C21 UNL     1      -9.531  20.757 -32.861  1.00  0.00     0.037 A 
HETATM   33  C22 UNL     1      -8.303  20.150 -32.922  1.00  0.00     0.078 A 
BRANCH  33  34
HETATM   34  O13 UNL     1      -7.148  20.914 -33.134  1.00  0.00    -0.360 OA
ATOM     35  H13 UNL     1      -7.053  21.764 -32.718  1.00  0.00     0.217 HD
ENDBRANCH  33  34
ENDBRANCH   9  28
BRANCH   4  36
HETATM   36  O5  UNL     1      -2.334  16.372 -32.005  1.00  0.00    -0.360 OA
ATOM     37  H5  UNL     1      -2.614  16.669 -31.147  1.00  0.00     0.217 HD
ENDBRANCH   4  36
BRANCH   1  38
HETATM   38  C2  UNL     1      -5.180  17.904 -36.575  1.00  0.00     0.307 C 
HETATM   39  O3  UNL     1      -4.855  18.828 -37.347  1.00  0.00    -0.259 OA
BRANCH  38  40
HETATM   40  O2  UNL     1      -6.340  17.159 -36.900  1.00  0.00    -0.225 OA
BRANCH  40  41
HETATM   41  C1  UNL     1      -6.227  15.967 -37.616  1.00  0.00     0.380 C 
HETATM   42  N1  UNL     1      -5.030  15.662 -38.309  1.00  0.00    -0.032 NA
HETATM   43  O1  UNL     1      -7.225  15.203 -37.606  1.00  0.00    -0.242 OA
ENDBRANCH  40  41
ENDBRANCH  38  40
ENDBRANCH   1  38
BRANCH   2  44
HETATM   44  O4  UNL     1      -2.571  16.947 -36.749  1.00  0.00    -0.359 OA
ATOM     45  H4  UNL     1      -1.634  17.081 -36.838  1.00  0.00     0.217 HD
ENDBRANCH   2  44
TORSDOF 17
ENDMDL
MODEL 2
REMARK VINA RESULT: -8.916242138      2.967      7.419
REMARK  17 active torsions:
REMARK  status: ('A' for Active; 'I' for Inactive)
REMARK    1  A    between atoms: C1_2  and  O2_4 
REMARK    2  A    between atoms: O2_4  and  C2_5 
REMARK    3  A    between atoms: C2_5  and  C3_7 
REMARK    4  A    between atoms: C4_8  and  O4_9 
REMARK    5  A    between atoms: C6_12  and  O5_13 
REMARK    6  A    between atoms: C9_18  and  C10_19 
REMARK    7  A    between atoms: C10_19  and  O8_21 
REMARK    8  A    between atoms: O8_21  and  C11_22 
REMARK    9  A    between atoms: C12_23  and  O9_24 
REMARK   10  A    between atoms: C12_23  and  C13_26 
REMARK   11  A    between atoms: C13_26  and  O10_27 
REMARK   12  A    between atoms: C13_26  and  C14_29 
REMARK   13  A    between atoms: C14_29  and  O11_30 
REMARK   14  A    between atoms: C14_29  and  C15_32 
REMARK   15  A    between atoms: C15_32  and  O12_33 
REMARK   16  A    between atoms: C16_35  and  C17_36 
REMARK   17  A    between atoms: C22_41  and  O13_42 
ROOT
HETATM    1  C3  UNL     1     -10.455  18.320 -33.212  1.00  0.00     0.108 A 
HETATM    2  C4  UNL     1     -10.691  18.654 -34.548  1.00  0.00     0.087 A 
HETATM    3  C5  UNL     1      -9.696  18.716 -35.497  1.00  0.00     0.075 A 
HETATM    4  C6  UNL     1      -8.417  18.432 -35.081  1.00  0.00     0.085 A 
HETATM    5  C7  UNL     1      -8.158  18.097 -33.747  1.00  0.00     0.083 A 
HETATM    6  C8  UNL     1      -6.880  17.818 -33.361  1.00  0.00     0.206 A 
HETATM    7  O6  UNL     1      -5.918  17.852 -34.168  1.00  0.00    -0.286 OA
HETATM    8  C9  UNL     1      -6.662  17.483 -31.994  1.00  0.00     0.125 A 
HETATM    9  C16 UNL     1      -7.666  17.439 -31.121  1.00  0.00     0.109 A 
HETATM   10  O14 UNL     1      -8.916  17.727 -31.564  1.00  0.00    -0.306 OA
HETATM   11  C23 UNL     1      -9.181  18.038 -32.798  1.00  0.00     0.112 A 
ENDROOT
BRANCH   8  12
HETATM   12  C10 UNL     1      -5.251  17.310 -31.709  1.00  0.00     0.304 C 
HETATM   13  O7  UNL     1      -4.689  18.207 -31.034  1.00  0.00    -0.259 OA
BRANCH  12  14
HETATM   14  O8  UNL     1      -4.520  16.295 -32.124  1.00  0.00    -0.284 OA
BRANCH  14  15
HETATM   15  C11 UNL     1      -3.491  15.873 -32.812  1.00  0.00     0.180 C 
HETATM   16  C12 UNL     1      -2.622  16.553 -33.735  1.00  0.00     0.097 C 
BRANCH  16  17
HETATM   17  O9  UNL     1      -1.628  15.788 -34.126  1.00  0.00    -0.360 OA
ATOM     18  H9  UNL     1      -0.912  15.790 -33.502  1.00  0.00     0.217 HD
ENDBRANCH  16  17
BRANCH  16  19
HETATM   19  C13 UNL     1      -2.566  17.875 -34.345  1.00  0.00     0.207 C 
BRANCH  19  20
HETATM   20  O10 UNL     1      -3.305  18.837 -33.758  1.00  0.00    -0.386 OA
ATOM     21  H10 UNL     1      -3.179  19.721 -34.082  1.00  0.00     0.210 HD
ENDBRANCH  19  20
BRANCH  19  22
HETATM   22  C14 UNL     1      -2.884  17.783 -35.841  1.00  0.00     0.176 C 
BRANCH  22  23
HETATM   23  O11 UNL     1      -4.021  18.539 -36.091  1.00  0.00    -0.390 OA
ATOM     24  H11 UNL     1      -4.610  18.022 -36.628  1.00  0.00     0.210 HD
ENDBRANCH  22  23
BRANCH  22  25
HETATM   25  C15 UNL     1      -1.775  18.379 -36.687  1.00  0.00     0.198 C 
BRANCH  25  26
HETATM   26  O12 UNL     1      -0.507  18.050 -36.232  1.00  0.00    -0.398 OA
ATOM     27  H12 UNL     1      -0.401  17.122 -36.060  1.00  0.00     0.209 HD
ENDBRANCH  25  26
ENDBRANCH  22  25
ENDBRANCH  19  22
ENDBRANCH  16  19
ENDBRANCH  14  15
ENDBRANCH  12  14
ENDBRANCH   8  12
BRANCH   9  28
HETATM   28  C17 UNL     1      -7.516  17.112 -29.708  1.00  0.00     0.032 A 
HETATM   29  C18 UNL     1      -7.147  15.928 -29.177  1.00  0.00     0.017 A 
HETATM   30  C19 UNL     1      -6.960  15.701 -27.808  1.00  0.00     0.001 A 
HETATM   31  C20 UNL     1      -7.172  16.771 -26.974  1.00  0.00     0.003 A 
HETATM   32  C21 UNL     1      -7.549  17.998 -27.471  1.00  0.00     0.037 A 
HETATM   33  C22 UNL     1      -7.724  18.190 -28.818  1.00  0.00     0.078 A 
BRANCH  33  34
HETATM   34  O13 UNL     1      -8.099  19.448 -29.308  1.00  0.00    -0.360 OA
ATOM     35  H13 UNL     1      -7.583  20.218 -29.098  1.00  0.00     0.217 HD
ENDBRANCH  33  34
ENDBRANCH   9  28
BRANCH   4  36
HETATM   36  O5  UNL     1      -7.338  18.462 -35.945  1.00  0.00    -0.360 OA
ATOM     37  H5  UNL     1      -6.468  18.718 -35.660  1.00  0.00     0.217 HD
ENDBRANCH   4  36
BRANCH   1  38
HETATM   38  C2  UNL     1     -11.573  18.246 -32.292  1.00  0.00     0.307 C 
HETATM   39  O3  UNL     1     -12.268  17.228 -32.097  1.00  0.00    -0.259 OA
BRANCH  38  40
HETATM   40  O2  UNL     1     -11.902  19.412 -31.557  1.00  0.00    -0.225 OA
BRANCH  40  41
HETATM   41  C1  UNL     1     -11.225  19.706 -30.374  1.00  0.00     0.380 C 
HETATM   42  N1  UNL     1     -11.147  18.743 -29.338  1.00  0.00    -0.032 NA
HETATM   43  O1  UNL     1     -10.703  20.847 -30.287  1.00  0.00    -0.242 OA
ENDBRANCH  40  41
ENDBRANCH  38  40
ENDBRANCH   1  38
BRANCH   2  44
HETATM   44  O4  UNL     1     -11.994  18.941 -34.956  1.00  0.00    -0.359 OA
ATOM     45  H4  UNL     1     -12.162  19.126 -35.873  1.00  0.00     0.217 HD
ENDBRANCH   2  44
TORSDOF 17
ENDMDL
MODEL 3
REMARK VINA RESULT: -8.836516591      3.301      7.751
REMARK  17 active torsions:
REMARK  status: ('A' for Active; 'I' for Inactive)
REMARK    1  A    between atoms: C1_2  and  O2_4 
REMARK    2  A    between atoms: O2_4  and  C2_5 
REMARK    3  A    between atoms: C2_5  and  C3_7 
REMARK    4  A    between atoms: C4_8  and  O4_9 
REMARK    5  A    between atoms: C6_12  and  O5_13 
REMARK    6  A    between atoms: C9_18  and  C10_19 
REMARK    7  A    between atoms: C10_19  and  O8_21 
REMARK    8  A    between atoms: O8_21  and  C11_22 
REMARK    9  A    between atoms: C12_23  and  O9_24 
REMARK   10  A    between atoms: C12_23  and  C13_26 
REMARK   11  A    between atoms: C13_26  and  O10_27 
REMARK   12  A    between atoms: C13_26  and  C14_29 
REMARK   13  A    between atoms: C14_29  and  O11_30 
REMARK   14  A    between atoms: C14_29  and  C15_32 
REMARK   15  A    between atoms: C15_32  and  O12_33 
REMARK   16  A    between atoms: C16_35  and  C17_36 
REMARK   17  A    between atoms: C22_41  and  O13_42 
ROOT
HETATM    1  C3  UNL     1      -7.937  17.406 -28.925  1.00  0.00     0.108 A 
HETATM    2  C4  UNL     1      -8.841  17.582 -27.873  1.00  0.00     0.087 A 
HETATM    3  C5  UNL     1      -9.867  18.500 -27.907  1.00  0.00     0.075 A 
HETATM    4  C6  UNL     1      -9.983  19.267 -29.042  1.00  0.00     0.085 A 
HETATM    5  C7  UNL     1      -9.087  19.107 -30.105  1.00  0.00     0.083 A 
HETATM    6  C8  UNL     1      -9.226  19.881 -31.220  1.00  0.00     0.206 A 
HETATM    7  O6  UNL     1     -10.137  20.738 -31.327  1.00  0.00    -0.286 OA
HETATM    8  C9  UNL     1      -8.291  19.685 -32.278  1.00  0.00     0.125 A 
HETATM    9  C16 UNL     1      -7.319  18.781 -32.188  1.00  0.00     0.109 A 
HETATM   10  O14 UNL     1      -7.232  18.042 -31.053  1.00  0.00    -0.306 OA
HETATM   11  C23 UNL     1      -8.052  18.171 -30.054  1.00  0.00     0.112 A 
ENDROOT
BRANCH   8  12
HETATM   12  C10 UNL     1      -8.498  20.638 -33.351  1.00  0.00     0.304 C 
HETATM   13  O7  UNL     1      -7.897  21.737 -33.265  1.00  0.00    -0.259 OA
BRANCH  12  14
HETATM   14  O8  UNL     1      -9.285  20.441 -34.390  1.00  0.00    -0.284 OA
BRANCH  14  15
HETATM   15  C11 UNL     1     -10.000  19.610 -35.101  1.00  0.00     0.180 C 
HETATM   16  C12 UNL     1     -11.347  19.132 -34.934  1.00  0.00     0.097 C 
BRANCH  16  17
HETATM   17  O9  UNL     1     -11.732  18.387 -35.945  1.00  0.00    -0.360 OA
ATOM     18  H9  UNL     1     -11.862  17.481 -35.689  1.00  0.00     0.217 HD
ENDBRANCH  16  17
BRANCH  16  19
HETATM   19  C13 UNL     1     -12.391  19.264 -33.926  1.00  0.00     0.207 C 
BRANCH  19  20
HETATM   20  O10 UNL     1     -12.261  20.289 -33.061  1.00  0.00    -0.386 OA
ATOM     21  H10 UNL     1     -13.066  20.692 -32.761  1.00  0.00     0.210 HD
ENDBRANCH  19  20
BRANCH  19  22
HETATM   22  C14 UNL     1     -12.576  17.941 -33.176  1.00  0.00     0.176 C 
BRANCH  22  23
HETATM   23  O11 UNL     1     -11.320  17.454 -32.839  1.00  0.00    -0.390 OA
ATOM     24  H11 UNL     1     -11.252  17.438 -31.892  1.00  0.00     0.210 HD
ENDBRANCH  22  23
BRANCH  22  25
HETATM   25  C15 UNL     1     -13.327  18.136 -31.874  1.00  0.00     0.198 C 
BRANCH  25  26
HETATM   26  O12 UNL     1     -12.501  18.483 -30.815  1.00  0.00    -0.398 OA
ATOM     27  H12 UNL     1     -12.337  19.417 -30.762  1.00  0.00     0.209 HD
ENDBRANCH  25  26
ENDBRANCH  22  25
ENDBRANCH  19  22
ENDBRANCH  16  19
ENDBRANCH  14  15
ENDBRANCH  12  14
ENDBRANCH   8  12
BRANCH   9  28
HETATM   28  C17 UNL     1      -6.325  18.533 -33.226  1.00  0.00     0.032 A 
HETATM   29  C18 UNL     1      -6.510  17.898 -34.401  1.00  0.00     0.017 A 
HETATM   30  C19 UNL     1      -5.523  17.752 -35.383  1.00  0.00     0.001 A 
HETATM   31  C20 UNL     1      -4.295  18.300 -35.105  1.00  0.00     0.003 A 
HETATM   32  C21 UNL     1      -4.060  18.957 -33.919  1.00  0.00     0.037 A 
HETATM   33  C22 UNL     1      -5.048  19.086 -32.976  1.00  0.00     0.078 A 
BRANCH  33  34
HETATM   34  O13 UNL     1      -4.794  19.765 -31.778  1.00  0.00    -0.360 OA
ATOM     35  H13 UNL     1      -3.915  19.787 -31.416  1.00  0.00     0.217 HD
ENDBRANCH  33  34
ENDBRANCH   9  28
BRANCH   4  36
HETATM   36  O5  UNL     1     -10.973  20.220 -29.189  1.00  0.00    -0.360 OA
ATOM     37  H5  UNL     1     -11.755  20.062 -29.706  1.00  0.00     0.217 HD
ENDBRANCH   4  36
BRANCH   1  38
HETATM   38  C2  UNL     1      -6.910  16.389 -28.812  1.00  0.00     0.307 C 
HETATM   39  O3  UNL     1      -6.878  15.334 -29.476  1.00  0.00    -0.259 OA
BRANCH  38  40
HETATM   40  O2  UNL     1      -5.864  16.607 -27.882  1.00  0.00    -0.225 OA
BRANCH  40  41
HETATM   41  C1  UNL     1      -5.794  15.843 -26.717  1.00  0.00     0.380 C 
HETATM   42  N1  UNL     1      -4.739  16.045 -25.794  1.00  0.00    -0.032 NA
HETATM   43  O1  UNL     1      -6.700  14.989 -26.543  1.00  0.00    -0.242 OA
ENDBRANCH  40  41
ENDBRANCH  38  40
ENDBRANCH   1  38
BRANCH   2  44
HETATM   44  O4  UNL     1      -8.711  16.798 -26.727  1.00  0.00    -0.359 OA
ATOM     45  H4  UNL     1      -9.172  15.968 -26.679  1.00  0.00     0.217 HD
ENDBRANCH   2  44
TORSDOF 17
ENDMDL
MODEL 4
REMARK VINA RESULT: -8.836421695      1.177      1.487
REMARK  17 active torsions:
REMARK  status: ('A' for Active; 'I' for Inactive)
REMARK    1  A    between atoms: C1_2  and  O2_4 
REMARK    2  A    between atoms: O2_4  and  C2_5 
REMARK    3  A    between atoms: C2_5  and  C3_7 
REMARK    4  A    between atoms: C4_8  and  O4_9 
REMARK    5  A    between atoms: C6_12  and  O5_13 
REMARK    6  A    between atoms: C9_18  and  C10_19 
REMARK    7  A    between atoms: C10_19  and  O8_21 
REMARK    8  A    between atoms: O8_21  and  C11_22 
REMARK    9  A    between atoms: C12_23  and  O9_24 
REMARK   10  A    between atoms: C12_23  and  C13_26 
REMARK   11  A    between atoms: C13_26  and  O10_27 
REMARK   12  A    between atoms: C13_26  and  C14_29 
REMARK   13  A    between atoms: C14_29  and  O11_30 
REMARK   14  A    between atoms: C14_29  and  C15_32 
REMARK   15  A    between atoms: C15_32  and  O12_33 
REMARK   16  A    between atoms: C16_35  and  C17_36 
REMARK   17  A    between atoms: C22_41  and  O13_42 
ROOT
HETATM    1  C3  UNL     1      -4.327  17.615 -35.678  1.00  0.00     0.108 A 
HETATM    2  C4  UNL     1      -2.959  17.343 -35.580  1.00  0.00     0.087 A 
HETATM    3  C5  UNL     1      -2.345  16.982 -34.403  1.00  0.00     0.075 A 
HETATM    4  C6  UNL     1      -3.139  16.893 -33.284  1.00  0.00     0.085 A 
HETATM    5  C7  UNL     1      -4.511  17.162 -33.361  1.00  0.00     0.083 A 
HETATM    6  C8  UNL     1      -5.276  17.064 -32.235  1.00  0.00     0.206 A 
HETATM    7  O6  UNL     1      -4.790  16.738 -31.125  1.00  0.00    -0.286 OA
HETATM    8  C9  UNL     1      -6.667  17.348 -32.359  1.00  0.00     0.125 A 
HETATM    9  C16 UNL     1      -7.205  17.693 -33.525  1.00  0.00     0.109 A 
HETATM   10  O14 UNL     1      -6.392  17.774 -34.609  1.00  0.00    -0.306 OA
HETATM   11  C23 UNL     1      -5.117  17.527 -34.564  1.00  0.00     0.112 A 
ENDROOT
BRANCH   8  12
HETATM   12  C10 UNL     1      -7.333  17.302 -31.072  1.00  0.00     0.304 C 
HETATM   13  O7  UNL     1      -7.644  16.169 -30.628  1.00  0.00    -0.259 OA
BRANCH  12  14
HETATM   14  O8  UNL     1      -7.650  18.358 -30.350  1.00  0.00    -0.284 OA
BRANCH  14  15
HETATM   15  C11 UNL     1      -8.223  18.843 -29.280  1.00  0.00     0.180 C 
HETATM   16  C12 UNL     1      -8.438  18.274 -27.976  1.00  0.00     0.097 C 
BRANCH  16  17
HETATM   17  O9  UNL     1      -8.956  19.144 -27.140  1.00  0.00    -0.360 OA
ATOM     18  H9  UNL     1      -8.287  19.600 -26.643  1.00  0.00     0.217 HD
ENDBRANCH  16  17
BRANCH  16  19
HETATM   19  C13 UNL     1      -8.225  16.975 -27.349  1.00  0.00     0.207 C 
BRANCH  19  20
HETATM   20  O10 UNL     1      -9.327  16.234 -27.121  1.00  0.00    -0.386 OA
ATOM     21  H10 UNL     1      -9.538  16.061 -26.211  1.00  0.00     0.210 HD
ENDBRANCH  19  20
BRANCH  19  22
HETATM   22  C14 UNL     1      -7.402  17.133 -26.067  1.00  0.00     0.176 C 
BRANCH  22  23
HETATM   23  O11 UNL     1      -8.254  16.976 -24.982  1.00  0.00    -0.390 OA
ATOM     24  H11 UNL     1      -7.905  16.288 -24.427  1.00  0.00     0.210 HD
ENDBRANCH  22  23
BRANCH  22  25
HETATM   25  C15 UNL     1      -6.344  16.054 -25.944  1.00  0.00     0.198 C 
BRANCH  25  26
HETATM   26  O12 UNL     1      -6.769  14.819 -26.407  1.00  0.00    -0.398 OA
ATOM     27  H12 UNL     1      -7.164  14.283 -25.730  1.00  0.00     0.209 HD
ENDBRANCH  25  26
ENDBRANCH  22  25
ENDBRANCH  19  22
ENDBRANCH  16  19
ENDBRANCH  14  15
ENDBRANCH  12  14
ENDBRANCH   8  12
BRANCH   9  28
HETATM   28  C17 UNL     1      -8.616  18.005 -33.723  1.00  0.00     0.032 A 
HETATM   29  C18 UNL     1      -9.632  17.132 -33.880  1.00  0.00     0.017 A 
HETATM   30  C19 UNL     1     -10.978  17.501 -34.001  1.00  0.00     0.001 A 
HETATM   31  C20 UNL     1     -11.252  18.845 -33.953  1.00  0.00     0.003 A 
HETATM   32  C21 UNL     1     -10.247  19.772 -33.793  1.00  0.00     0.037 A 
HETATM   33  C22 UNL     1      -8.938  19.381 -33.677  1.00  0.00     0.078 A 
BRANCH  33  34
HETATM   34  O13 UNL     1      -7.929  20.337 -33.507  1.00  0.00    -0.360 OA
ATOM     35  H13 UNL     1      -8.017  21.201 -33.894  1.00  0.00     0.217 HD
ENDBRANCH  33  34
ENDBRANCH   9  28
BRANCH   4  36
HETATM   36  O5  UNL     1      -2.633  16.538 -32.048  1.00  0.00    -0.360 OA
ATOM     37  H5  UNL     1      -3.126  16.009 -31.431  1.00  0.00     0.217 HD
ENDBRANCH   4  36
BRANCH   1  38
HETATM   38  C2  UNL     1      -4.891  17.954 -36.970  1.00  0.00     0.307 C 
HETATM   39  O3  UNL     1      -4.562  18.947 -37.650  1.00  0.00    -0.259 OA
BRANCH  38  40
HETATM   40  O2  UNL     1      -5.884  17.098 -37.503  1.00  0.00    -0.225 OA
BRANCH  40  41
HETATM   41  C1  UNL     1      -5.559  16.196 -38.517  1.00  0.00     0.380 C 
HETATM   42  N1  UNL     1      -5.633  16.593 -39.875  1.00  0.00    -0.032 NA
HETATM   43  O1  UNL     1      -5.207  15.044 -38.160  1.00  0.00    -0.242 OA
ENDBRANCH  40  41
ENDBRANCH  38  40
ENDBRANCH   1  38
BRANCH   2  44
HETATM   44  O4  UNL     1      -2.164  17.439 -36.723  1.00  0.00    -0.359 OA
ATOM     45  H4  UNL     1      -2.041  16.669 -37.267  1.00  0.00     0.217 HD
ENDBRANCH   2  44
TORSDOF 17
ENDMDL
MODEL 5
REMARK VINA RESULT: -8.776317027      1.945      4.855
REMARK  17 active torsions:
REMARK  status: ('A' for Active; 'I' for Inactive)
REMARK    1  A    between atoms: C1_2  and  O2_4 
REMARK    2  A    between atoms: O2_4  and  C2_5 
REMARK    3  A    between atoms: C2_5  and  C3_7 
REMARK    4  A    between atoms: C4_8  and  O4_9 
REMARK    5  A    between atoms: C6_12  and  O5_13 
REMARK    6  A    between atoms: C9_18  and  C10_19 
REMARK    7  A    between atoms: C10_19  and  O8_21 
REMARK    8  A    between atoms: O8_21  and  C11_22 
REMARK    9  A    between atoms: C12_23  and  O9_24 
REMARK   10  A    between atoms: C12_23  and  C13_26 
REMARK   11  A    between atoms: C13_26  and  O10_27 
REMARK   12  A    between atoms: C13_26  and  C14_29 
REMARK   13  A    between atoms: C14_29  and  O11_30 
REMARK   14  A    between atoms: C14_29  and  C15_32 
REMARK   15  A    between atoms: C15_32  and  O12_33 
REMARK   16  A    between atoms: C16_35  and  C17_36 
REMARK   17  A    between atoms: C22_41  and  O13_42 
ROOT
HETATM    1  C3  UNL     1      -9.684  17.228 -34.262  1.00  0.00     0.108 A 
HETATM    2  C4  UNL     1     -11.039  17.492 -34.044  1.00  0.00     0.087 A 
HETATM    3  C5  UNL     1     -11.514  18.117 -32.914  1.00  0.00     0.075 A 
HETATM    4  C6  UNL     1     -10.587  18.488 -31.968  1.00  0.00     0.085 A 
HETATM    5  C7  UNL     1      -9.225  18.232 -32.166  1.00  0.00     0.083 A 
HETATM    6  C8  UNL     1      -8.326  18.611 -31.212  1.00  0.00     0.206 A 
HETATM    7  O6  UNL     1      -8.681  19.188 -30.155  1.00  0.00    -0.286 OA
HETATM    8  C9  UNL     1      -6.951  18.330 -31.454  1.00  0.00     0.125 A 
HETATM    9  C16 UNL     1      -6.551  17.722 -32.568  1.00  0.00     0.109 A 
HETATM   10  O14 UNL     1      -7.492  17.367 -33.480  1.00  0.00    -0.306 OA
HETATM   11  C23 UNL     1      -8.762  17.596 -33.320  1.00  0.00     0.112 A 
ENDROOT
BRANCH   8  12
HETATM   12  C10 UNL     1      -6.128  18.698 -30.319  1.00  0.00     0.304 C 
HETATM   13  O7  UNL     1      -5.433  19.738 -30.429  1.00  0.00    -0.259 OA
BRANCH  12  14
HETATM   14  O8  UNL     1      -6.043  18.011 -29.198  1.00  0.00    -0.284 OA
BRANCH  14  15
HETATM   15  C11 UNL     1      -6.153  16.860 -28.587  1.00  0.00     0.180 C 
HETATM   16  C12 UNL     1      -7.105  16.386 -27.618  1.00  0.00     0.097 C 
BRANCH  16  17
HETATM   17  O9  UNL     1      -6.930  15.115 -27.339  1.00  0.00    -0.360 OA
ATOM     18  H9  UNL     1      -6.822  14.591 -28.124  1.00  0.00     0.217 HD
ENDBRANCH  16  17
BRANCH  16  19
HETATM   19  C13 UNL     1      -8.216  16.961 -26.869  1.00  0.00     0.207 C 
BRANCH  19  20
HETATM   20  O10 UNL     1      -9.217  17.494 -27.596  1.00  0.00    -0.386 OA
ATOM     21  H10 UNL     1      -9.924  16.906 -27.835  1.00  0.00     0.210 HD
ENDBRANCH  19  20
BRANCH  19  22
HETATM   22  C14 UNL     1      -7.696  17.969 -25.840  1.00  0.00     0.176 C 
BRANCH  22  23
HETATM   23  O11 UNL     1      -8.548  19.065 -25.837  1.00  0.00    -0.390 OA
ATOM     24  H11 UNL     1      -9.440  18.749 -25.760  1.00  0.00     0.210 HD
ENDBRANCH  22  23
BRANCH  22  25
HETATM   25  C15 UNL     1      -7.722  17.399 -24.435  1.00  0.00     0.198 C 
BRANCH  25  26
HETATM   26  O12 UNL     1      -8.862  16.656 -24.170  1.00  0.00    -0.398 OA
ATOM     27  H12 UNL     1      -8.707  15.719 -24.182  1.00  0.00     0.209 HD
ENDBRANCH  25  26
ENDBRANCH  22  25
ENDBRANCH  19  22
ENDBRANCH  16  19
ENDBRANCH  14  15
ENDBRANCH  12  14
ENDBRANCH   8  12
BRANCH   9  28
HETATM   28  C17 UNL     1      -5.164  17.396 -32.878  1.00  0.00     0.032 A 
HETATM   29  C18 UNL     1      -4.402  16.439 -32.308  1.00  0.00     0.017 A 
HETATM   30  C19 UNL     1      -3.093  16.136 -32.701  1.00  0.00     0.001 A 
HETATM   31  C20 UNL     1      -2.575  16.877 -33.734  1.00  0.00     0.003 A 
HETATM   32  C21 UNL     1      -3.316  17.863 -34.346  1.00  0.00     0.037 A 
HETATM   33  C22 UNL     1      -4.597  18.136 -33.940  1.00  0.00     0.078 A 
BRANCH  33  34
HETATM   34  O13 UNL     1      -5.340  19.138 -34.578  1.00  0.00    -0.360 OA
ATOM     35  H13 UNL     1      -5.623  19.906 -34.095  1.00  0.00     0.217 HD
ENDBRANCH  33  34
ENDBRANCH   9  28
BRANCH   4  36
HETATM   36  O5  UNL     1     -10.946  19.122 -30.794  1.00  0.00    -0.360 OA
ATOM     37  H5  UNL     1     -11.692  18.844 -30.275  1.00  0.00     0.217 HD
ENDBRANCH   4  36
BRANCH   1  38
HETATM   38  C2  UNL     1      -9.276  16.595 -35.501  1.00  0.00     0.307 C 
HETATM   39  O3  UNL     1      -9.380  15.376 -35.744  1.00  0.00    -0.259 OA
BRANCH  38  40
HETATM   40  O2  UNL     1      -8.720  17.418 -36.511  1.00  0.00    -0.225 OA
BRANCH  40  41
HETATM   41  C1  UNL     1      -7.564  17.017 -37.182  1.00  0.00     0.380 C 
HETATM   42  N1  UNL     1      -7.651  16.468 -38.485  1.00  0.00    -0.032 NA
HETATM   43  O1  UNL     1      -6.474  17.168 -36.575  1.00  0.00    -0.242 OA
ENDBRANCH  40  41
ENDBRANCH  38  40
ENDBRANCH   1  38
BRANCH   2  44
HETATM   44  O4  UNL     1     -11.969  17.109 -35.011  1.00  0.00    -0.359 OA
ATOM     45  H4  UNL     1     -12.132  16.184 -35.156  1.00  0.00     0.217 HD
ENDBRANCH   2  44
TORSDOF 17
ENDMDL
