MODEL 1
REMARK VINA RESULT: -7.733505430      0.000      0.000
REMARK  12 active torsions:
REMARK  status: ('A' for Active; 'I' for Inactive)
REMARK    1  A    between atoms: C2_2  and  N1_3 
REMARK    2  A    between atoms: N1_3  and  C3_4 
REMARK       I    between atoms: N1_3  and  C5_6 
REMARK    3  A    between atoms: C5_6  and  C6_8 
REMARK    4  A    between atoms: N4_18  and  C11_19 
REMARK    5  A    between atoms: C11_19  and  C12_20 
REMARK    6  A    between atoms: C11_19  and  C21_31 
REMARK    7  A    between atoms: C12_20  and  C13_21 
REMARK    8  A    between atoms: C21_31  and  O4_32 
REMARK    9  A    between atoms: C21_31  and  C22_34 
REMARK   10  A    between atoms: C22_34  and  N5_35 
REMARK   11  A    between atoms: N5_35  and  C23_37 
REMARK   12  A    between atoms: C23_37  and  C24_38 
ROOT
HETATM    1  C11 UNL     1      33.532  28.888  16.577  1.00  0.00     0.121 C 
ENDROOT
BRANCH   1   2
HETATM    2  N4  UNL     1      33.113  29.702  15.426  1.00  0.00    -0.344 N 
HETATM    3  C6  UNL     1      33.013  31.154  15.339  1.00  0.00     0.183 C 
HETATM    4  C7  UNL     1      31.900  31.272  14.272  1.00  0.00     0.080 C 
HETATM    5  C8  UNL     1      32.050  30.056  13.426  1.00  0.00     0.025 A 
HETATM    6  C9  UNL     1      32.779  29.158  14.162  1.00  0.00     0.128 A 
HETATM    7  C10 UNL     1      31.750  29.505  12.219  1.00  0.00     0.104 A 
HETATM    8  N2  UNL     1      32.893  28.070  13.340  1.00  0.00    -0.284 N 
HETATM    9  N3  UNL     1      32.291  28.268  12.201  1.00  0.00    -0.291 N 
ATOM     10  H2  UNL     1      33.387  27.213  13.588  1.00  0.00     0.188 HD
ATOM     11  H3  UNL     1      32.237  27.604  11.429  1.00  0.00     0.187 HD
HETATM   12 BR1  UNL     1      30.748  30.332  10.811  1.00  0.00    -0.029 Br
BRANCH   3  13
HETATM   13  C5  UNL     1      34.188  31.792  14.743  1.00  0.00     0.243 C 
HETATM   14  N1  UNL     1      34.314  33.166  14.567  1.00  0.00    -0.351 N 
HETATM   15  O1  UNL     1      35.160  31.048  14.364  1.00  0.00    -0.271 OA
BRANCH  14  16
HETATM   16  C2  UNL     1      35.518  33.740  13.940  1.00  0.00     0.121 C 
HETATM   17  C1  UNL     1      35.293  33.895  12.438  1.00  0.00     0.026 C 
ENDBRANCH  14  16
BRANCH  14  18
HETATM   18  C3  UNL     1      33.322  34.117  14.986  1.00  0.00     0.121 C 
HETATM   19  C4  UNL     1      33.849  35.433  15.442  1.00  0.00     0.026 C 
ENDBRANCH  14  18
ENDBRANCH   3  13
ENDBRANCH   1   2
BRANCH   1  20
HETATM   20  C12 UNL     1      32.635  29.254  17.702  1.00  0.00     0.066 C 
BRANCH  20  21
HETATM   21  C13 UNL     1      31.560  28.373  18.102  1.00  0.00    -0.053 A 
HETATM   22  C14 UNL     1      30.260  28.882  18.249  1.00  0.00     0.017 A 
HETATM   23  C15 UNL     1      29.227  28.068  18.630  1.00  0.00    -0.025 A 
HETATM   24  C16 UNL     1      27.859  28.631  18.776  1.00  0.00     0.051 C 
HETATM   25  C17 UNL     1      29.422  26.732  18.880  1.00  0.00     0.111 A 
HETATM   26  C18 UNL     1      30.690  26.217  18.741  1.00  0.00     0.106 A 
HETATM   27  O3  UNL     1      28.554  25.702  19.275  1.00  0.00    -0.322 OA
HETATM   28  C19 UNL     1      31.728  27.028  18.361  1.00  0.00     0.047 A 
HETATM   29  O2  UNL     1      30.585  24.860  19.056  1.00  0.00    -0.323 OA
HETATM   30  C20 UNL     1      29.362  24.643  19.733  1.00  0.00     0.352 C 
ENDBRANCH  20  21
ENDBRANCH   1  20
BRANCH   1  31
HETATM   31  C21 UNL     1      34.970  28.933  16.893  1.00  0.00     0.158 C 
BRANCH  31  32
HETATM   32  O4  UNL     1      35.111  28.453  18.220  1.00  0.00    -0.392 OA
ATOM     33  H4  UNL     1      35.889  28.864  18.579  1.00  0.00     0.210 HD
ENDBRANCH  31  32
BRANCH  31  34
HETATM   34  C22 UNL     1      35.813  28.057  15.990  1.00  0.00     0.147 C 
BRANCH  34  35
HETATM   35  N5  UNL     1      36.829  28.780  15.325  1.00  0.00    -0.414 N 
ATOM     36  H5  UNL     1      37.039  29.733  15.621  1.00  0.00     0.153 HD
BRANCH  35  37
HETATM   37  C23 UNL     1      37.553  28.214  14.269  1.00  0.00     0.184 C 
BRANCH  37  38
HETATM   38  C24 UNL     1      38.608  29.241  13.826  1.00  0.00     0.370 C 
HETATM   39  F1  UNL     1      39.327  28.729  12.767  1.00  0.00    -0.213 F 
HETATM   40  F2  UNL     1      39.472  29.526  14.844  1.00  0.00    -0.213 F 
ENDBRANCH  37  38
ENDBRANCH  35  37
ENDBRANCH  34  35
ENDBRANCH  31  34
ENDBRANCH   1  31
TORSDOF 12
ENDMDL
MODEL 2
REMARK VINA RESULT: -7.585677503      1.295      1.669
REMARK  12 active torsions:
REMARK  status: ('A' for Active; 'I' for Inactive)
REMARK    1  A    between atoms: C2_2  and  N1_3 
REMARK    2  A    between atoms: N1_3  and  C3_4 
REMARK       I    between atoms: N1_3  and  C5_6 
REMARK    3  A    between atoms: C5_6  and  C6_8 
REMARK    4  A    between atoms: N4_18  and  C11_19 
REMARK    5  A    between atoms: C11_19  and  C12_20 
REMARK    6  A    between atoms: C11_19  and  C21_31 
REMARK    7  A    between atoms: C12_20  and  C13_21 
REMARK    8  A    between atoms: C21_31  and  O4_32 
REMARK    9  A    between atoms: C21_31  and  C22_34 
REMARK   10  A    between atoms: C22_34  and  N5_35 
REMARK   11  A    between atoms: N5_35  and  C23_37 
REMARK   12  A    between atoms: C23_37  and  C24_38 
ROOT
HETATM    1  C11 UNL     1      32.596  29.228  16.787  1.00  0.00     0.121 C 
ENDROOT
BRANCH   1   2
HETATM    2  N4  UNL     1      32.286  29.874  15.503  1.00  0.00    -0.344 N 
HETATM    3  C6  UNL     1      31.727  31.201  15.274  1.00  0.00     0.183 C 
HETATM    4  C7  UNL     1      31.009  30.951  13.928  1.00  0.00     0.080 C 
HETATM    5  C8  UNL     1      31.808  29.886  13.261  1.00  0.00     0.025 A 
HETATM    6  C9  UNL     1      32.547  29.281  14.243  1.00  0.00     0.128 A 
HETATM    7  C10 UNL     1      32.086  29.296  12.066  1.00  0.00     0.104 A 
HETATM    8  N2  UNL     1      33.263  28.322  13.579  1.00  0.00    -0.284 N 
HETATM    9  N3  UNL     1      32.995  28.328  12.303  1.00  0.00    -0.291 N 
ATOM     10  H2  UNL     1      33.923  27.685  14.025  1.00  0.00     0.188 HD
ATOM     11  H3  UNL     1      33.402  27.707  11.603  1.00  0.00     0.187 HD
HETATM   12 BR1  UNL     1      31.326  29.758  10.369  1.00  0.00    -0.029 Br
BRANCH   3  13
HETATM   13  C5  UNL     1      32.735  32.225  14.991  1.00  0.00     0.243 C 
HETATM   14  N1  UNL     1      32.461  33.588  14.960  1.00  0.00    -0.351 N 
HETATM   15  O1  UNL     1      33.938  31.850  14.761  1.00  0.00    -0.271 OA
BRANCH  14  16
HETATM   16  C2  UNL     1      33.520  34.564  14.645  1.00  0.00     0.121 C 
HETATM   17  C1  UNL     1      33.613  35.603  15.760  1.00  0.00     0.026 C 
ENDBRANCH  14  16
BRANCH  14  18
HETATM   18  C3  UNL     1      31.169  34.149  15.241  1.00  0.00     0.121 C 
HETATM   19  C4  UNL     1      30.416  34.648  14.057  1.00  0.00     0.026 C 
ENDBRANCH  14  18
ENDBRANCH   3  13
ENDBRANCH   1   2
BRANCH   1  20
HETATM   20  C12 UNL     1      31.557  29.677  17.747  1.00  0.00     0.066 C 
BRANCH  20  21
HETATM   21  C13 UNL     1      30.602  28.737  18.290  1.00  0.00    -0.053 A 
HETATM   22  C14 UNL     1      29.228  29.014  18.209  1.00  0.00     0.017 A 
HETATM   23  C15 UNL     1      28.304  28.140  18.718  1.00  0.00    -0.025 A 
HETATM   24  C16 UNL     1      26.856  28.456  18.617  1.00  0.00     0.051 C 
HETATM   25  C17 UNL     1      28.684  26.968  19.323  1.00  0.00     0.111 A 
HETATM   26  C18 UNL     1      30.028  26.681  19.411  1.00  0.00     0.106 A 
HETATM   27  O3  UNL     1      27.957  25.923  19.913  1.00  0.00    -0.322 OA
HETATM   28  C19 UNL     1      30.956  27.552  18.904  1.00  0.00     0.047 A 
HETATM   29  O2  UNL     1      30.109  25.448  20.063  1.00  0.00    -0.323 OA
HETATM   30  C20 UNL     1      28.869  25.180  20.688  1.00  0.00     0.352 C 
ENDBRANCH  20  21
ENDBRANCH   1  20
BRANCH   1  31
HETATM   31  C21 UNL     1      33.983  29.389  17.256  1.00  0.00     0.158 C 
BRANCH  31  32
HETATM   32  O4  UNL     1      33.910  29.778  18.618  1.00  0.00    -0.392 OA
ATOM     33  H4  UNL     1      34.457  30.550  18.711  1.00  0.00     0.210 HD
ENDBRANCH  31  32
BRANCH  31  34
HETATM   34  C22 UNL     1      34.796  28.113  17.181  1.00  0.00     0.147 C 
BRANCH  34  35
HETATM   35  N5  UNL     1      36.044  28.299  16.546  1.00  0.00    -0.414 N 
ATOM     36  H5  UNL     1      36.747  28.890  16.990  1.00  0.00     0.153 HD
BRANCH  35  37
HETATM   37  C23 UNL     1      36.336  27.690  15.320  1.00  0.00     0.184 C 
BRANCH  37  38
HETATM   38  C24 UNL     1      36.899  28.773  14.384  1.00  0.00     0.370 C 
HETATM   39  F1  UNL     1      38.206  29.042  14.730  1.00  0.00    -0.213 F 
HETATM   40  F2  UNL     1      36.175  29.926  14.478  1.00  0.00    -0.213 F 
ENDBRANCH  37  38
ENDBRANCH  35  37
ENDBRANCH  34  35
ENDBRANCH  31  34
ENDBRANCH   1  31
TORSDOF 12
ENDMDL
MODEL 3
REMARK VINA RESULT: -7.415428239      1.523      2.245
REMARK  12 active torsions:
REMARK  status: ('A' for Active; 'I' for Inactive)
REMARK    1  A    between atoms: C2_2  and  N1_3 
REMARK    2  A    between atoms: N1_3  and  C3_4 
REMARK       I    between atoms: N1_3  and  C5_6 
REMARK    3  A    between atoms: C5_6  and  C6_8 
REMARK    4  A    between atoms: N4_18  and  C11_19 
REMARK    5  A    between atoms: C11_19  and  C12_20 
REMARK    6  A    between atoms: C11_19  and  C21_31 
REMARK    7  A    between atoms: C12_20  and  C13_21 
REMARK    8  A    between atoms: C21_31  and  O4_32 
REMARK    9  A    between atoms: C21_31  and  C22_34 
REMARK   10  A    between atoms: C22_34  and  N5_35 
REMARK   11  A    between atoms: N5_35  and  C23_37 
REMARK   12  A    between atoms: C23_37  and  C24_38 
ROOT
HETATM    1  C11 UNL     1      32.586  29.092  16.944  1.00  0.00     0.121 C 
ENDROOT
BRANCH   1   2
HETATM    2  N4  UNL     1      32.232  29.758  15.681  1.00  0.00    -0.344 N 
HETATM    3  C6  UNL     1      31.574  31.046  15.495  1.00  0.00     0.183 C 
HETATM    4  C7  UNL     1      30.884  30.790  14.137  1.00  0.00     0.080 C 
HETATM    5  C8  UNL     1      31.764  29.813  13.438  1.00  0.00     0.025 A 
HETATM    6  C9  UNL     1      32.543  29.232  14.403  1.00  0.00     0.128 A 
HETATM    7  C10 UNL     1      32.090  29.289  12.225  1.00  0.00     0.104 A 
HETATM    8  N2  UNL     1      33.333  28.355  13.711  1.00  0.00    -0.284 N 
HETATM    9  N3  UNL     1      33.070  28.385  12.433  1.00  0.00    -0.291 N 
ATOM     10  H2  UNL     1      34.037  27.754  14.138  1.00  0.00     0.188 HD
ATOM     11  H3  UNL     1      33.526  27.822  11.716  1.00  0.00     0.187 HD
HETATM   12 BR1  UNL     1      31.304  29.752  10.540  1.00  0.00    -0.029 Br
BRANCH   3  13
HETATM   13  C5  UNL     1      32.502  32.153  15.255  1.00  0.00     0.243 C 
HETATM   14  N1  UNL     1      32.106  33.481  15.147  1.00  0.00    -0.351 N 
HETATM   15  O1  UNL     1      33.751  31.889  15.140  1.00  0.00    -0.271 OA
BRANCH  14  16
HETATM   16  C2  UNL     1      33.091  34.545  14.882  1.00  0.00     0.121 C 
HETATM   17  C1  UNL     1      32.650  35.369  13.675  1.00  0.00     0.026 C 
ENDBRANCH  14  16
BRANCH  14  18
HETATM   18  C3  UNL     1      30.747  33.923  15.299  1.00  0.00     0.121 C 
HETATM   19  C4  UNL     1      30.385  34.430  16.652  1.00  0.00     0.026 C 
ENDBRANCH  14  18
ENDBRANCH   3  13
ENDBRANCH   1   2
BRANCH   1  20
HETATM   20  C12 UNL     1      31.570  29.512  17.941  1.00  0.00     0.066 C 
BRANCH  20  21
HETATM   21  C13 UNL     1      30.502  28.615  18.325  1.00  0.00    -0.053 A 
HETATM   22  C14 UNL     1      30.793  27.277  18.636  1.00  0.00     0.017 A 
HETATM   23  C15 UNL     1      29.799  26.409  19.000  1.00  0.00    -0.025 A 
HETATM   24  C16 UNL     1      30.134  24.998  19.327  1.00  0.00     0.051 C 
HETATM   25  C17 UNL     1      28.488  26.811  19.074  1.00  0.00     0.111 A 
HETATM   26  C18 UNL     1      28.185  28.119  18.772  1.00  0.00     0.106 A 
HETATM   27  O3  UNL     1      27.304  26.137  19.413  1.00  0.00    -0.322 OA
HETATM   28  C19 UNL     1      29.177  28.992  18.407  1.00  0.00     0.047 A 
HETATM   29  O2  UNL     1      26.802  28.234  18.932  1.00  0.00    -0.323 OA
HETATM   30  C20 UNL     1      26.238  26.937  18.960  1.00  0.00     0.352 C 
ENDBRANCH  20  21
ENDBRANCH   1  20
BRANCH   1  31
HETATM   31  C21 UNL     1      33.984  29.260  17.377  1.00  0.00     0.158 C 
BRANCH  31  32
HETATM   32  O4  UNL     1      33.951  29.513  18.772  1.00  0.00    -0.392 OA
ATOM     33  H4  UNL     1      34.648  28.997  19.160  1.00  0.00     0.210 HD
ENDBRANCH  31  32
BRANCH  31  34
HETATM   34  C22 UNL     1      34.837  28.030  17.148  1.00  0.00     0.147 C 
BRANCH  34  35
HETATM   35  N5  UNL     1      36.063  28.329  16.513  1.00  0.00    -0.414 N 
ATOM     36  H5  UNL     1      36.700  28.997  16.946  1.00  0.00     0.153 HD
BRANCH  35  37
HETATM   37  C23 UNL     1      36.422  27.727  15.301  1.00  0.00     0.184 C 
BRANCH  37  38
HETATM   38  C24 UNL     1      36.877  28.840  14.344  1.00  0.00     0.370 C 
HETATM   39  F1  UNL     1      38.189  29.166  14.611  1.00  0.00    -0.213 F 
HETATM   40  F2  UNL     1      36.108  29.959  14.493  1.00  0.00    -0.213 F 
ENDBRANCH  37  38
ENDBRANCH  35  37
ENDBRANCH  34  35
ENDBRANCH  31  34
ENDBRANCH   1  31
TORSDOF 12
ENDMDL
MODEL 4
REMARK VINA RESULT: -7.401663321      1.105      1.797
REMARK  12 active torsions:
REMARK  status: ('A' for Active; 'I' for Inactive)
REMARK    1  A    between atoms: C2_2  and  N1_3 
REMARK    2  A    between atoms: N1_3  and  C3_4 
REMARK       I    between atoms: N1_3  and  C5_6 
REMARK    3  A    between atoms: C5_6  and  C6_8 
REMARK    4  A    between atoms: N4_18  and  C11_19 
REMARK    5  A    between atoms: C11_19  and  C12_20 
REMARK    6  A    between atoms: C11_19  and  C21_31 
REMARK    7  A    between atoms: C12_20  and  C13_21 
REMARK    8  A    between atoms: C21_31  and  O4_32 
REMARK    9  A    between atoms: C21_31  and  C22_34 
REMARK   10  A    between atoms: C22_34  and  N5_35 
REMARK   11  A    between atoms: N5_35  and  C23_37 
REMARK   12  A    between atoms: C23_37  and  C24_38 
ROOT
HETATM    1  C11 UNL     1      32.784  29.108  16.983  1.00  0.00     0.121 C 
ENDROOT
BRANCH   1   2
HETATM    2  N4  UNL     1      32.525  29.801  15.712  1.00  0.00    -0.344 N 
HETATM    3  C6  UNL     1      32.311  31.227  15.491  1.00  0.00     0.183 C 
HETATM    4  C7  UNL     1      31.420  31.162  14.229  1.00  0.00     0.080 C 
HETATM    5  C8  UNL     1      31.842  29.918  13.527  1.00  0.00     0.025 A 
HETATM    6  C9  UNL     1      32.493  29.149  14.455  1.00  0.00     0.128 A 
HETATM    7  C10 UNL     1      31.834  29.266  12.333  1.00  0.00     0.104 A 
HETATM    8  N2  UNL     1      32.863  28.030  13.760  1.00  0.00    -0.284 N 
HETATM    9  N3  UNL     1      32.478  28.094  12.515  1.00  0.00    -0.291 N 
ATOM     10  H2  UNL     1      33.376  27.246  14.163  1.00  0.00     0.188 HD
ATOM     11  H3  UNL     1      32.636  27.382  11.803  1.00  0.00     0.187 HD
HETATM   12 BR1  UNL     1      31.053  29.896  10.701  1.00  0.00    -0.029 Br
BRANCH   3  13
HETATM   13  C5  UNL     1      33.517  31.947  15.077  1.00  0.00     0.243 C 
HETATM   14  N1  UNL     1      33.547  33.312  14.812  1.00  0.00    -0.351 N 
HETATM   15  O1  UNL     1      34.609  31.288  14.952  1.00  0.00    -0.271 OA
BRANCH  14  16
HETATM   16  C2  UNL     1      34.792  33.970  14.377  1.00  0.00     0.121 C 
HETATM   17  C1  UNL     1      34.834  34.040  12.853  1.00  0.00     0.026 C 
ENDBRANCH  14  16
BRANCH  14  18
HETATM   18  C3  UNL     1      32.409  34.177  14.954  1.00  0.00     0.121 C 
HETATM   19  C4  UNL     1      32.677  35.487  15.610  1.00  0.00     0.026 C 
ENDBRANCH  14  18
ENDBRANCH   3  13
ENDBRANCH   1   2
BRANCH   1  20
HETATM   20  C12 UNL     1      31.744  29.569  17.935  1.00  0.00     0.066 C 
BRANCH  20  21
HETATM   21  C13 UNL     1      30.635  28.709  18.287  1.00  0.00    -0.053 A 
HETATM   22  C14 UNL     1      30.872  27.363  18.610  1.00  0.00     0.017 A 
HETATM   23  C15 UNL     1      29.838  26.529  18.943  1.00  0.00    -0.025 A 
HETATM   24  C16 UNL     1      30.116  25.110  19.283  1.00  0.00     0.051 C 
HETATM   25  C17 UNL     1      28.540  26.974  18.974  1.00  0.00     0.111 A 
HETATM   26  C18 UNL     1      28.290  28.291  18.660  1.00  0.00     0.106 A 
HETATM   27  O3  UNL     1      27.324  26.341  19.276  1.00  0.00    -0.322 OA
HETATM   28  C19 UNL     1      29.321  29.130  18.325  1.00  0.00     0.047 A 
HETATM   29  O2  UNL     1      26.907  28.452  18.774  1.00  0.00    -0.323 OA
HETATM   30  C20 UNL     1      26.300  27.174  18.787  1.00  0.00     0.352 C 
ENDBRANCH  20  21
ENDBRANCH   1  20
BRANCH   1  31
HETATM   31  C21 UNL     1      34.167  29.203  17.483  1.00  0.00     0.158 C 
BRANCH  31  32
HETATM   32  O4  UNL     1      34.115  28.939  18.876  1.00  0.00    -0.392 OA
ATOM     33  H4  UNL     1      34.374  29.740  19.316  1.00  0.00     0.210 HD
ENDBRANCH  31  32
BRANCH  31  34
HETATM   34  C22 UNL     1      35.105  28.194  16.854  1.00  0.00     0.147 C 
BRANCH  34  35
HETATM   35  N5  UNL     1      35.997  28.784  15.930  1.00  0.00    -0.414 N 
ATOM     36  H5  UNL     1      36.237  29.770  16.027  1.00  0.00     0.153 HD
BRANCH  35  37
HETATM   37  C23 UNL     1      36.557  28.042  14.883  1.00  0.00     0.184 C 
BRANCH  37  38
HETATM   38  C24 UNL     1      37.697  28.878  14.277  1.00  0.00     0.370 C 
HETATM   39  F1  UNL     1      37.229  29.557  13.173  1.00  0.00    -0.213 F 
HETATM   40  F2  UNL     1      38.737  28.083  13.893  1.00  0.00    -0.213 F 
ENDBRANCH  37  38
ENDBRANCH  35  37
ENDBRANCH  34  35
ENDBRANCH  31  34
ENDBRANCH   1  31
TORSDOF 12
ENDMDL
MODEL 5
REMARK VINA RESULT: -7.192620563     10.346     14.310
REMARK  12 active torsions:
REMARK  status: ('A' for Active; 'I' for Inactive)
REMARK    1  A    between atoms: C2_2  and  N1_3 
REMARK    2  A    between atoms: N1_3  and  C3_4 
REMARK       I    between atoms: N1_3  and  C5_6 
REMARK    3  A    between atoms: C5_6  and  C6_8 
REMARK    4  A    between atoms: N4_18  and  C11_19 
REMARK    5  A    between atoms: C11_19  and  C12_20 
REMARK    6  A    between atoms: C11_19  and  C21_31 
REMARK    7  A    between atoms: C12_20  and  C13_21 
REMARK    8  A    between atoms: C21_31  and  O4_32 
REMARK    9  A    between atoms: C21_31  and  C22_34 
REMARK   10  A    between atoms: C22_34  and  N5_35 
REMARK   11  A    between atoms: N5_35  and  C23_37 
REMARK   12  A    between atoms: C23_37  and  C24_38 
ROOT
HETATM    1  C11 UNL     1      46.535  30.662  14.763  1.00  0.00     0.121 C 
ENDROOT
BRANCH   1   2
HETATM    2  N4  UNL     1      45.073  30.781  14.869  1.00  0.00    -0.344 N 
HETATM    3  C6  UNL     1      44.292  31.323  15.975  1.00  0.00     0.183 C 
HETATM    4  C7  UNL     1      42.988  30.513  15.791  1.00  0.00     0.080 C 
HETATM    5  C8  UNL     1      42.913  30.234  14.330  1.00  0.00     0.025 A 
HETATM    6  C9  UNL     1      44.179  30.410  13.836  1.00  0.00     0.128 A 
HETATM    7  C10 UNL     1      42.081  29.884  13.313  1.00  0.00     0.104 A 
HETATM    8  N2  UNL     1      44.053  30.152  12.498  1.00  0.00    -0.284 N 
HETATM    9  N3  UNL     1      42.824  29.842  12.187  1.00  0.00    -0.291 N 
ATOM     10  H2  UNL     1      44.821  30.196  11.829  1.00  0.00     0.188 HD
ATOM     11  H3  UNL     1      42.484  29.608  11.255  1.00  0.00     0.187 HD
HETATM   12 BR1  UNL     1      40.206  29.519  13.455  1.00  0.00    -0.029 Br
BRANCH   3  13
HETATM   13  C5  UNL     1      43.906  32.723  15.794  1.00  0.00     0.243 C 
HETATM   14  N1  UNL     1      42.979  33.378  16.599  1.00  0.00    -0.351 N 
HETATM   15  O1  UNL     1      44.450  33.389  14.845  1.00  0.00    -0.271 OA
BRANCH  14  16
HETATM   16  C2  UNL     1      42.619  34.785  16.346  1.00  0.00     0.121 C 
HETATM   17  C1  UNL     1      41.580  34.860  15.231  1.00  0.00     0.026 C 
ENDBRANCH  14  16
BRANCH  14  18
HETATM   18  C3  UNL     1      42.327  32.766  17.723  1.00  0.00     0.121 C 
HETATM   19  C4  UNL     1      40.844  32.669  17.628  1.00  0.00     0.026 C 
ENDBRANCH  14  18
ENDBRANCH   3  13
ENDBRANCH   1   2
BRANCH   1  20
HETATM   20  C12 UNL     1      47.093  31.148  16.050  1.00  0.00     0.066 C 
BRANCH  20  21
HETATM   21  C13 UNL     1      48.137  30.409  16.725  1.00  0.00    -0.053 A 
HETATM   22  C14 UNL     1      48.271  29.029  16.501  1.00  0.00     0.017 A 
HETATM   23  C15 UNL     1      49.250  28.308  17.131  1.00  0.00    -0.025 A 
HETATM   24  C16 UNL     1      49.372  26.849  16.875  1.00  0.00     0.051 C 
HETATM   25  C17 UNL     1      50.133  28.903  17.997  1.00  0.00     0.111 A 
HETATM   26  C18 UNL     1      50.016  30.255  18.228  1.00  0.00     0.106 A 
HETATM   27  O3  UNL     1      51.204  28.404  18.756  1.00  0.00    -0.322 OA
HETATM   28  C19 UNL     1      49.037  30.981  17.602  1.00  0.00     0.047 A 
HETATM   29  O2  UNL     1      51.029  30.573  19.136  1.00  0.00    -0.323 OA
HETATM   30  C20 UNL     1      51.503  29.379  19.727  1.00  0.00     0.352 C 
ENDBRANCH  20  21
ENDBRANCH   1  20
BRANCH   1  31
HETATM   31  C21 UNL     1      47.133  31.269  13.562  1.00  0.00     0.158 C 
BRANCH  31  32
HETATM   32  O4  UNL     1      48.190  32.103  14.009  1.00  0.00    -0.392 OA
ATOM     33  H4  UNL     1      48.575  32.496  13.234  1.00  0.00     0.210 HD
ENDBRANCH  31  32
BRANCH  31  34
HETATM   34  C22 UNL     1      47.717  30.254  12.601  1.00  0.00     0.147 C 
BRANCH  34  35
HETATM   35  N5  UNL     1      48.770  29.507  13.173  1.00  0.00    -0.414 N 
ATOM     36  H5  UNL     1      48.585  28.930  13.994  1.00  0.00     0.153 HD
BRANCH  35  37
HETATM   37  C23 UNL     1      50.063  29.540  12.637  1.00  0.00     0.184 C 
BRANCH  37  38
HETATM   38  C24 UNL     1      51.053  29.337  13.795  1.00  0.00     0.370 C 
HETATM   39  F1  UNL     1      50.924  28.056  14.288  1.00  0.00    -0.213 F 
HETATM   40  F2  UNL     1      50.813  30.221  14.807  1.00  0.00    -0.213 F 
ENDBRANCH  37  38
ENDBRANCH  35  37
ENDBRANCH  34  35
ENDBRANCH  31  34
ENDBRANCH   1  31
TORSDOF 12
ENDMDL
