MODEL 1
REMARK VINA RESULT: -6.816452122      0.000      0.000
REMARK  1 active torsions:
REMARK  status: ('A' for Active; 'I' for Inactive)
REMARK    1  A    between atoms: C2_2  and  C4_4 
ROOT
HETATM    1  C4  UNL     1      -0.104  17.219  18.854  1.00  0.00     0.017 C 
HETATM    2  C5  UNL     1       0.349  17.994  17.630  1.00  0.00     0.012 C 
HETATM    3  C6  UNL     1       0.613  19.428  17.977  1.00  0.00     0.036 C 
HETATM    4  C7  UNL     1       1.197  19.650  19.325  1.00  0.00     0.165 C 
HETATM    5  O1  UNL     1       2.226  20.595  19.203  1.00  0.00    -0.234 OA
HETATM    6  O2  UNL     1       2.876  20.569  20.320  1.00  0.00    -0.229 OA
HETATM    7  C8  UNL     1       4.141  20.062  20.289  1.00  0.00     0.099 C 
HETATM    8  C9  UNL     1       5.096  21.107  19.698  1.00  0.00     0.042 C 
HETATM    9  C10 UNL     1       5.058  21.743  21.098  1.00  0.00     0.006 C 
HETATM   10  C11 UNL     1       4.851  20.310  21.612  1.00  0.00     0.042 C 
HETATM   11  C12 UNL     1       4.322  18.724  19.694  1.00  0.00     0.020 C 
HETATM   12  C13 UNL     1       5.441  18.760  18.673  1.00  0.00     0.013 C 
HETATM   13  C14 UNL     1       3.066  18.116  19.118  1.00  0.00     0.015 C 
HETATM   14  C15 UNL     1       1.850  18.417  19.906  1.00  0.00     0.022 C 
HETATM   15  C16 UNL     1       0.827  17.351  20.025  1.00  0.00    -0.004 C 
HETATM   16  C17 UNL     1       1.371  16.037  20.536  1.00  0.00     0.011 C 
ENDROOT
BRANCH   1  17
HETATM   17  C2  UNL     1      -0.316  15.811  18.405  1.00  0.00    -0.089 C 
HETATM   18  C1  UNL     1      -0.622  15.571  17.137  1.00  0.00     0.014 C 
HETATM   19  C3  UNL     1      -0.189  14.637  19.289  1.00  0.00     0.043 C 
ENDBRANCH   1  17
TORSDOF 1
ENDMDL
MODEL 2
REMARK VINA RESULT: -5.550740733      1.990      3.686
REMARK  1 active torsions:
REMARK  status: ('A' for Active; 'I' for Inactive)
REMARK    1  A    between atoms: C2_2  and  C4_4 
ROOT
HETATM    1  C4  UNL     1       2.531  17.343  19.844  1.00  0.00     0.017 C 
HETATM    2  C5  UNL     1       2.764  17.219  21.339  1.00  0.00     0.012 C 
HETATM    3  C6  UNL     1       4.230  17.187  21.647  1.00  0.00     0.036 C 
HETATM    4  C7  UNL     1       5.074  18.044  20.775  1.00  0.00     0.165 C 
HETATM    5  O1  UNL     1       5.999  18.715  21.588  1.00  0.00    -0.234 OA
HETATM    6  O2  UNL     1       6.530  19.634  20.851  1.00  0.00    -0.229 OA
HETATM    7  C8  UNL     1       6.220  20.927  21.153  1.00  0.00     0.099 C 
HETATM    8  C9  UNL     1       7.027  21.373  22.379  1.00  0.00     0.042 C 
HETATM    9  C10 UNL     1       8.186  21.562  21.386  1.00  0.00     0.006 C 
HETATM   10  C11 UNL     1       7.092  21.887  20.357  1.00  0.00     0.042 C 
HETATM   11  C12 UNL     1       4.790  21.277  21.253  1.00  0.00     0.020 C 
HETATM   12  C13 UNL     1       4.530  22.018  22.549  1.00  0.00     0.013 C 
HETATM   13  C14 UNL     1       3.843  20.114  21.080  1.00  0.00     0.015 C 
HETATM   14  C15 UNL     1       4.296  19.131  20.069  1.00  0.00     0.022 C 
HETATM   15  C16 UNL     1       3.262  18.496  19.218  1.00  0.00    -0.004 C 
HETATM   16  C17 UNL     1       2.368  19.484  18.505  1.00  0.00     0.011 C 
ENDROOT
BRANCH   1  17
HETATM   17  C2  UNL     1       1.051  17.389  19.652  1.00  0.00    -0.089 C 
HETATM   18  C1  UNL     1       0.373  16.254  19.551  1.00  0.00     0.014 C 
HETATM   19  C3  UNL     1       0.267  18.637  19.583  1.00  0.00     0.043 C 
ENDBRANCH   1  17
TORSDOF 1
ENDMDL
MODEL 3
REMARK VINA RESULT: -5.376835322      1.541      5.512
REMARK  1 active torsions:
REMARK  status: ('A' for Active; 'I' for Inactive)
REMARK    1  A    between atoms: C2_2  and  C4_4 
ROOT
HETATM    1  C4  UNL     1       4.802  19.829  20.573  1.00  0.00     0.017 C 
HETATM    2  C5  UNL     1       3.629  20.627  21.111  1.00  0.00     0.012 C 
HETATM    3  C6  UNL     1       2.783  21.150  19.990  1.00  0.00     0.036 C 
HETATM    4  C7  UNL     1       2.663  20.244  18.819  1.00  0.00     0.165 C 
HETATM    5  O1  UNL     1       1.321  20.233  18.413  1.00  0.00    -0.234 OA
HETATM    6  O2  UNL     1       1.203  19.253  17.580  1.00  0.00    -0.229 OA
HETATM    7  C8  UNL     1       0.472  18.176  17.989  1.00  0.00     0.099 C 
HETATM    8  C9  UNL     1      -1.023  18.507  17.892  1.00  0.00     0.042 C 
HETATM    9  C10 UNL     1      -0.859  18.210  16.391  1.00  0.00     0.006 C 
HETATM   10  C11 UNL     1       0.232  17.220  16.830  1.00  0.00     0.042 C 
HETATM   11  C12 UNL     1       0.836  17.558  19.278  1.00  0.00     0.020 C 
HETATM   12  C13 UNL     1      -0.399  17.396  20.140  1.00  0.00     0.013 C 
HETATM   13  C14 UNL     1       1.944  18.263  20.024  1.00  0.00     0.015 C 
HETATM   14  C15 UNL     1       2.999  18.804  19.138  1.00  0.00     0.022 C 
HETATM   15  C16 UNL     1       4.399  18.741  19.620  1.00  0.00    -0.004 C 
HETATM   16  C17 UNL     1       4.839  17.356  20.036  1.00  0.00     0.011 C 
ENDROOT
BRANCH   1  17
HETATM   17  C2  UNL     1       5.560  19.339  21.764  1.00  0.00    -0.089 C 
HETATM   18  C1  UNL     1       6.810  19.740  21.949  1.00  0.00     0.014 C 
HETATM   19  C3  UNL     1       4.996  18.434  22.783  1.00  0.00     0.043 C 
ENDBRANCH   1  17
TORSDOF 1
ENDMDL
MODEL 4
REMARK VINA RESULT: -4.761245909      1.498      5.768
REMARK  1 active torsions:
REMARK  status: ('A' for Active; 'I' for Inactive)
REMARK    1  A    between atoms: C2_2  and  C4_4 
ROOT
HETATM    1  C4  UNL     1       4.938  21.229  20.155  1.00  0.00     0.017 C 
HETATM    2  C5  UNL     1       3.814  21.412  21.159  1.00  0.00     0.012 C 
HETATM    3  C6  UNL     1       2.525  21.724  20.462  1.00  0.00     0.036 C 
HETATM    4  C7  UNL     1       2.330  21.031  19.162  1.00  0.00     0.165 C 
HETATM    5  O1  UNL     1       1.012  20.556  19.116  1.00  0.00    -0.234 OA
HETATM    6  O2  UNL     1       0.954  19.746  18.111  1.00  0.00    -0.229 OA
HETATM    7  C8  UNL     1       0.795  18.420  18.391  1.00  0.00     0.099 C 
HETATM    8  C9  UNL     1      -0.669  18.149  18.760  1.00  0.00     0.042 C 
HETATM    9  C10 UNL     1      -0.920  18.170  17.243  1.00  0.00     0.006 C 
HETATM   10  C11 UNL     1       0.515  17.633  17.119  1.00  0.00     0.042 C 
HETATM   11  C12 UNL     1       1.745  17.808  19.340  1.00  0.00     0.020 C 
HETATM   12  C13 UNL     1       0.988  17.046  20.408  1.00  0.00     0.013 C 
HETATM   13  C14 UNL     1       2.740  18.770  19.944  1.00  0.00     0.015 C 
HETATM   14  C15 UNL     1       3.205  19.809  18.997  1.00  0.00     0.022 C 
HETATM   15  C16 UNL     1       4.624  20.228  19.081  1.00  0.00    -0.004 C 
HETATM   16  C17 UNL     1       5.605  19.081  18.995  1.00  0.00     0.011 C 
ENDROOT
BRANCH   1  17
HETATM   17  C2  UNL     1       6.161  20.903  20.948  1.00  0.00    -0.089 C 
HETATM   18  C1  UNL     1       7.274  21.593  20.739  1.00  0.00     0.014 C 
HETATM   19  C3  UNL     1       6.216  19.854  21.983  1.00  0.00     0.043 C 
ENDBRANCH   1  17
TORSDOF 1
ENDMDL
MODEL 5
REMARK VINA RESULT: -3.789725632      1.255      1.334
REMARK  1 active torsions:
REMARK  status: ('A' for Active; 'I' for Inactive)
REMARK    1  A    between atoms: C2_2  and  C4_4 
ROOT
HETATM    1  C4  UNL     1      -0.097  16.776  18.959  1.00  0.00     0.017 C 
HETATM    2  C5  UNL     1       0.818  17.276  17.856  1.00  0.00     0.012 C 
HETATM    3  C6  UNL     1       1.334  18.646  18.173  1.00  0.00     0.036 C 
HETATM    4  C7  UNL     1       1.608  18.896  19.612  1.00  0.00     0.165 C 
HETATM    5  O1  UNL     1       2.835  19.567  19.712  1.00  0.00    -0.234 OA
HETATM    6  O2  UNL     1       3.166  19.533  20.960  1.00  0.00    -0.229 OA
HETATM    7  C8  UNL     1       4.235  18.757  21.299  1.00  0.00     0.099 C 
HETATM    8  C9  UNL     1       5.532  19.484  20.922  1.00  0.00     0.042 C 
HETATM    9  C10 UNL     1       5.312  20.279  22.219  1.00  0.00     0.006 C 
HETATM   10  C11 UNL     1       4.639  19.002  22.745  1.00  0.00     0.042 C 
HETATM   11  C12 UNL     1       4.220  17.350  20.855  1.00  0.00     0.020 C 
HETATM   12  C13 UNL     1       5.528  17.012  20.169  1.00  0.00     0.013 C 
HETATM   13  C14 UNL     1       3.033  16.971  20.003  1.00  0.00     0.015 C 
HETATM   14  C15 UNL     1       1.774  17.629  20.420  1.00  0.00     0.022 C 
HETATM   15  C16 UNL     1       0.523  16.840  20.325  1.00  0.00    -0.004 C 
HETATM   16  C17 UNL     1       0.585  15.511  21.042  1.00  0.00     0.011 C 
ENDROOT
BRANCH   1  17
HETATM   17  C2  UNL     1      -0.533  15.406  18.556  1.00  0.00    -0.089 C 
HETATM   18  C1  UNL     1      -1.145  15.235  17.392  1.00  0.00     0.014 C 
HETATM   19  C3  UNL     1      -0.311  14.198  19.372  1.00  0.00     0.043 C 
ENDBRANCH   1  17
TORSDOF 1
ENDMDL
