MODEL 1
REMARK VINA RESULT: -9.843363123      0.000      0.000
REMARK  3 active torsions:
REMARK  status: ('A' for Active; 'I' for Inactive)
REMARK    1  A    between atoms: C5_5  and  C6_6 
REMARK    2  A    between atoms: C11_11  and  N1_12 
REMARK    3  A    between atoms: N1_12  and  N2_14 
ROOT
HETATM    1  C1  UNL     1       3.181  16.384  21.845  1.00  0.00     0.021 C 
HETATM    2  C2  UNL     1       3.929  17.388  21.352  1.00  0.00    -0.043 C 
HETATM    3  C3  UNL     1       5.298  17.583  21.936  1.00  0.00     0.040 C 
HETATM    4  C4  UNL     1       5.902  18.813  21.306  1.00  0.00     0.010 C 
HETATM    5  C5  UNL     1       4.866  19.903  21.375  1.00  0.00    -0.001 C 
HETATM    6  C10 UNL     1       3.890  19.674  20.242  1.00  0.00     0.064 C 
HETATM    7  C11 UNL     1       3.460  18.256  20.306  1.00  0.00     0.031 C 
ENDROOT
BRANCH   7   8
HETATM    8  N1  UNL     1       2.651  17.756  19.423  1.00  0.00    -0.306 N 
ATOM      9  H1  UNL     1       2.997  16.993  18.841  1.00  0.00     0.186 HD
BRANCH   8  10
HETATM   10  N2  UNL     1       1.357  18.184  19.217  1.00  0.00    -0.323 N 
HETATM   11  C12 UNL     1       1.075  19.493  18.625  1.00  0.00     0.143 C 
HETATM   12  C13 UNL     1       0.365  19.168  17.311  1.00  0.00     0.021 C 
HETATM   13  C14 UNL     1      -0.873  18.384  17.533  1.00  0.00     0.004 C 
HETATM   14  C15 UNL     1      -1.019  17.686  18.821  1.00  0.00     0.026 C 
HETATM   15  C16 UNL     1       0.235  17.377  19.565  1.00  0.00     0.098 C 
HETATM   16  C17 UNL     1       0.583  15.884  19.508  1.00  0.00     0.034 C 
ENDBRANCH   8  10
ENDBRANCH   7   8
BRANCH   5  17
HETATM   17  C6  UNL     1       5.493  21.275  21.318  1.00  0.00    -0.047 C 
HETATM   18  C7  UNL     1       6.932  21.163  20.944  1.00  0.00     0.015 C 
HETATM   19  C8  UNL     1       5.315  22.030  22.618  1.00  0.00     0.015 C 
HETATM   20  C9  UNL     1       4.767  22.062  20.247  1.00  0.00     0.015 C 
ENDBRANCH   5  17
TORSDOF 3
ENDMDL
MODEL 2
REMARK VINA RESULT: -9.504989664      1.572      5.956
REMARK  3 active torsions:
REMARK  status: ('A' for Active; 'I' for Inactive)
REMARK    1  A    between atoms: C5_5  and  C6_6 
REMARK    2  A    between atoms: C11_11  and  N1_12 
REMARK    3  A    between atoms: N1_12  and  N2_14 
ROOT
HETATM    1  C1  UNL     1       3.474  14.864  21.773  1.00  0.00     0.021 C 
HETATM    2  C2  UNL     1       2.406  15.502  21.261  1.00  0.00    -0.043 C 
HETATM    3  C3  UNL     1       1.151  14.701  21.063  1.00  0.00     0.040 C 
HETATM    4  C4  UNL     1       0.133  15.589  20.392  1.00  0.00     0.010 C 
HETATM    5  C5  UNL     1       0.820  16.254  19.230  1.00  0.00    -0.001 C 
HETATM    6  C10 UNL     1       1.622  17.413  19.781  1.00  0.00     0.064 C 
HETATM    7  C11 UNL     1       2.436  16.894  20.907  1.00  0.00     0.031 C 
ENDROOT
BRANCH   7   8
HETATM    8  N1  UNL     1       3.197  17.679  21.607  1.00  0.00    -0.306 N 
ATOM      9  H1  UNL     1       3.017  17.744  22.609  1.00  0.00     0.186 HD
BRANCH   8  10
HETATM   10  N2  UNL     1       4.230  18.431  21.091  1.00  0.00    -0.323 N 
HETATM   11  C12 UNL     1       4.136  19.042  19.765  1.00  0.00     0.143 C 
HETATM   12  C13 UNL     1       4.195  20.546  20.036  1.00  0.00     0.021 C 
HETATM   13  C14 UNL     1       5.444  20.930  20.735  1.00  0.00     0.004 C 
HETATM   14  C15 UNL     1       6.197  19.870  21.425  1.00  0.00     0.026 C 
HETATM   15  C16 UNL     1       5.434  18.652  21.821  1.00  0.00     0.098 C 
HETATM   16  C17 UNL     1       5.187  18.597  23.334  1.00  0.00     0.034 C 
ENDBRANCH   8  10
ENDBRANCH   7   8
BRANCH   5  17
HETATM   17  C6  UNL     1      -0.165  16.695  18.175  1.00  0.00    -0.047 C 
HETATM   18  C7  UNL     1      -0.801  15.504  17.542  1.00  0.00     0.015 C 
HETATM   19  C8  UNL     1       0.481  17.594  17.141  1.00  0.00     0.015 C 
HETATM   20  C9  UNL     1      -1.235  17.514  18.865  1.00  0.00     0.015 C 
ENDBRANCH   5  17
TORSDOF 3
ENDMDL
MODEL 3
REMARK VINA RESULT: -9.477850611      1.819      3.056
REMARK  3 active torsions:
REMARK  status: ('A' for Active; 'I' for Inactive)
REMARK    1  A    between atoms: C5_5  and  C6_6 
REMARK    2  A    between atoms: C11_11  and  N1_12 
REMARK    3  A    between atoms: N1_12  and  N2_14 
ROOT
HETATM    1  C1  UNL     1       0.502  14.337  21.827  1.00  0.00     0.021 C 
HETATM    2  C2  UNL     1       1.619  14.995  21.469  1.00  0.00    -0.043 C 
HETATM    3  C3  UNL     1       2.907  14.574  22.115  1.00  0.00     0.040 C 
HETATM    4  C4  UNL     1       3.993  15.508  21.640  1.00  0.00     0.010 C 
HETATM    5  C5  UNL     1       3.470  16.911  21.792  1.00  0.00    -0.001 C 
HETATM    6  C10 UNL     1       2.568  17.190  20.610  1.00  0.00     0.064 C 
HETATM    7  C11 UNL     1       1.609  16.063  20.508  1.00  0.00     0.031 C 
ENDROOT
BRANCH   7   8
HETATM    8  N1  UNL     1       0.734  16.008  19.551  1.00  0.00    -0.306 N 
ATOM      9  H1  UNL     1       0.539  15.094  19.140  1.00  0.00     0.186 HD
BRANCH   8  10
HETATM   10  N2  UNL     1       0.051  17.095  19.050  1.00  0.00    -0.323 N 
HETATM   11  C12 UNL     1       0.372  18.456  19.478  1.00  0.00     0.143 C 
HETATM   12  C13 UNL     1       0.864  19.146  18.205  1.00  0.00     0.021 C 
HETATM   13  C14 UNL     1      -0.165  19.130  17.138  1.00  0.00     0.004 C 
HETATM   14  C15 UNL     1      -1.259  18.152  17.256  1.00  0.00     0.026 C 
HETATM   15  C16 UNL     1      -0.996  16.947  18.094  1.00  0.00     0.098 C 
HETATM   16  C17 UNL     1      -0.800  15.687  17.242  1.00  0.00     0.034 C 
ENDBRANCH   8  10
ENDBRANCH   7   8
BRANCH   5  17
HETATM   17  C6  UNL     1       4.590  17.917  21.902  1.00  0.00    -0.047 C 
HETATM   18  C7  UNL     1       4.637  18.478  23.283  1.00  0.00     0.015 C 
HETATM   19  C8  UNL     1       4.469  19.012  20.863  1.00  0.00     0.015 C 
HETATM   20  C9  UNL     1       5.886  17.186  21.625  1.00  0.00     0.015 C 
ENDBRANCH   5  17
TORSDOF 3
ENDMDL
MODEL 4
REMARK VINA RESULT: -9.156942991      0.272      1.048
REMARK  3 active torsions:
REMARK  status: ('A' for Active; 'I' for Inactive)
REMARK    1  A    between atoms: C5_5  and  C6_6 
REMARK    2  A    between atoms: C11_11  and  N1_12 
REMARK    3  A    between atoms: N1_12  and  N2_14 
ROOT
HETATM    1  C1  UNL     1       3.244  16.682  21.960  1.00  0.00     0.021 C 
HETATM    2  C2  UNL     1       3.977  17.658  21.395  1.00  0.00    -0.043 C 
HETATM    3  C3  UNL     1       5.348  17.905  21.954  1.00  0.00     0.040 C 
HETATM    4  C4  UNL     1       5.935  19.097  21.237  1.00  0.00     0.010 C 
HETATM    5  C5  UNL     1       4.888  20.178  21.241  1.00  0.00    -0.001 C 
HETATM    6  C10 UNL     1       3.906  19.863  20.135  1.00  0.00     0.064 C 
HETATM    7  C11 UNL     1       3.492  18.449  20.297  1.00  0.00     0.031 C 
ENDROOT
BRANCH   7   8
HETATM    8  N1  UNL     1       2.681  17.883  19.456  1.00  0.00    -0.306 N 
ATOM      9  H1  UNL     1       3.015  17.056  18.959  1.00  0.00     0.186 HD
BRANCH   8  10
HETATM   10  N2  UNL     1       1.402  18.319  19.187  1.00  0.00    -0.323 N 
HETATM   11  C12 UNL     1       1.161  19.573  18.474  1.00  0.00     0.143 C 
HETATM   12  C13 UNL     1       0.465  19.145  17.182  1.00  0.00     0.021 C 
HETATM   13  C14 UNL     1      -0.795  18.412  17.453  1.00  0.00     0.004 C 
HETATM   14  C15 UNL     1      -0.979  17.840  18.796  1.00  0.00     0.026 C 
HETATM   15  C16 UNL     1       0.256  17.573  19.588  1.00  0.00     0.098 C 
HETATM   16  C17 UNL     1       0.568  16.073  19.675  1.00  0.00     0.034 C 
ENDBRANCH   8  10
ENDBRANCH   7   8
BRANCH   5  17
HETATM   17  C6  UNL     1       5.499  21.549  21.087  1.00  0.00    -0.047 C 
HETATM   18  C7  UNL     1       4.641  22.394  20.206  1.00  0.00     0.015 C 
HETATM   19  C8  UNL     1       6.921  21.478  20.571  1.00  0.00     0.015 C 
HETATM   20  C9  UNL     1       5.559  22.178  22.463  1.00  0.00     0.015 C 
ENDBRANCH   5  17
TORSDOF 3
ENDMDL
MODEL 5
REMARK VINA RESULT: -8.975498357      1.630      6.462
REMARK  3 active torsions:
REMARK  status: ('A' for Active; 'I' for Inactive)
REMARK    1  A    between atoms: C5_5  and  C6_6 
REMARK    2  A    between atoms: C11_11  and  N1_12 
REMARK    3  A    between atoms: N1_12  and  N2_14 
ROOT
HETATM    1  C1  UNL     1       1.197  19.753  19.531  1.00  0.00     0.021 C 
HETATM    2  C2  UNL     1       1.354  18.418  19.566  1.00  0.00    -0.043 C 
HETATM    3  C3  UNL     1       0.239  17.575  19.019  1.00  0.00     0.040 C 
HETATM    4  C4  UNL     1       0.591  16.127  19.253  1.00  0.00     0.010 C 
HETATM    5  C5  UNL     1       1.026  16.002  20.688  1.00  0.00    -0.001 C 
HETATM    6  C10 UNL     1       2.461  16.473  20.770  1.00  0.00     0.064 C 
HETATM    7  C11 UNL     1       2.534  17.794  20.100  1.00  0.00     0.031 C 
ENDROOT
BRANCH   7   8
HETATM    8  N1  UNL     1       3.661  18.426  19.976  1.00  0.00    -0.306 N 
ATOM      9  H1  UNL     1       4.082  18.466  19.047  1.00  0.00     0.186 HD
BRANCH   8  10
HETATM   10  N2  UNL     1       4.328  19.047  21.009  1.00  0.00    -0.323 N 
HETATM   11  C12 UNL     1       4.804  18.292  22.168  1.00  0.00     0.143 C 
HETATM   12  C13 UNL     1       6.325  18.438  22.116  1.00  0.00     0.021 C 
HETATM   13  C14 UNL     1       6.744  19.858  22.172  1.00  0.00     0.004 C 
HETATM   14  C15 UNL     1       5.739  20.882  21.843  1.00  0.00     0.026 C 
HETATM   15  C16 UNL     1       4.588  20.449  20.999  1.00  0.00     0.098 C 
HETATM   16  C17 UNL     1       4.693  20.986  19.566  1.00  0.00     0.034 C 
ENDBRANCH   8  10
ENDBRANCH   7   8
BRANCH   5  17
HETATM   17  C6  UNL     1       0.860  14.593  21.203  1.00  0.00    -0.047 C 
HETATM   18  C7  UNL     1       0.286  13.725  20.135  1.00  0.00     0.015 C 
HETATM   19  C8  UNL     1       0.023  14.548  22.463  1.00  0.00     0.015 C 
HETATM   20  C9  UNL     1       2.236  14.077  21.568  1.00  0.00     0.015 C 
ENDBRANCH   5  17
TORSDOF 3
ENDMDL
