MODEL 1
REMARK VINA RESULT: -8.305687269      0.000      0.000
REMARK  2 active torsions:
REMARK  status: ('A' for Active; 'I' for Inactive)
REMARK    1  A    between atoms: C2_2  and  C4_4 
REMARK    2  A    between atoms: C6_6  and  C7_7 
ROOT
HETATM    1  C7  UNL     1      53.540  22.705  27.539  1.00  0.00     0.117 A 
HETATM    2  N1  UNL     1      54.740  22.362  28.076  1.00  0.00    -0.272 N 
ATOM      3  H1  UNL     1      54.931  22.220  29.067  1.00  0.00     0.190 HD
HETATM    4  N2  UNL     1      55.617  22.246  27.093  1.00  0.00    -0.227 N 
ATOM      5  H2  UNL     1      56.600  21.997  27.212  1.00  0.00     0.210 HD
HETATM    6  N3  UNL     1      55.036  22.499  25.940  1.00  0.00    -0.227 N 
ATOM      7  H3  UNL     1      55.471  22.483  25.018  1.00  0.00     0.210 HD
HETATM    8  N4  UNL     1      53.774  22.777  26.216  1.00  0.00    -0.272 N 
ATOM      9  H4  UNL     1      53.070  23.015  25.518  1.00  0.00     0.190 HD
ENDROOT
BRANCH   1  10
HETATM   10  C6  UNL     1      52.258  22.949  28.217  1.00  0.00     0.061 A 
HETATM   11  C4  UNL     1      51.970  22.329  29.534  1.00  0.00     0.001 A 
HETATM   12  C5  UNL     1      51.369  21.697  28.296  1.00  0.00     0.018 A 
BRANCH  11  13
HETATM   13  C2  UNL     1      50.960  23.001  30.429  1.00  0.00    -0.018 C 
HETATM   14  C1  UNL     1      50.758  22.103  31.636  1.00  0.00     0.010 C 
HETATM   15  C3  UNL     1      49.610  23.162  29.761  1.00  0.00     0.010 C 
ENDBRANCH  11  13
ENDBRANCH   1  10
TORSDOF 2
ENDMDL
MODEL 2
REMARK VINA RESULT: -8.265145876      0.046      1.071
REMARK  2 active torsions:
REMARK  status: ('A' for Active; 'I' for Inactive)
REMARK    1  A    between atoms: C2_2  and  C4_4 
REMARK    2  A    between atoms: C6_6  and  C7_7 
ROOT
HETATM    1  C7  UNL     1      53.516  22.710  27.495  1.00  0.00     0.117 A 
HETATM    2  N1  UNL     1      53.783  22.776  26.165  1.00  0.00    -0.272 N 
ATOM      3  H1  UNL     1      53.115  23.017  25.433  1.00  0.00     0.190 HD
HETATM    4  N2  UNL     1      55.058  22.474  25.980  1.00  0.00    -0.227 N 
ATOM      5  H2  UNL     1      55.528  22.446  25.075  1.00  0.00     0.210 HD
HETATM    6  N3  UNL     1      55.629  22.214  27.137  1.00  0.00    -0.227 N 
ATOM      7  H3  UNL     1      56.603  21.954  27.295  1.00  0.00     0.210 HD
HETATM    8  N4  UNL     1      54.689  22.359  28.054  1.00  0.00    -0.272 N 
ATOM      9  H4  UNL     1      54.833  22.222  29.054  1.00  0.00     0.190 HD
ENDROOT
BRANCH   1  10
HETATM   10  C6  UNL     1      52.249  22.957  28.199  1.00  0.00     0.061 A 
HETATM   11  C4  UNL     1      51.979  22.323  29.513  1.00  0.00     0.001 A 
HETATM   12  C5  UNL     1      51.350  21.713  28.277  1.00  0.00     0.018 A 
BRANCH  11  13
HETATM   13  C2  UNL     1      50.992  22.993  30.434  1.00  0.00    -0.018 C 
HETATM   14  C1  UNL     1      50.823  22.094  31.646  1.00  0.00     0.010 C 
HETATM   15  C3  UNL     1      49.625  23.151  29.803  1.00  0.00     0.010 C 
ENDBRANCH  11  13
ENDBRANCH   1  10
TORSDOF 2
ENDMDL
MODEL 3
REMARK VINA RESULT: -7.940015235      0.887      1.361
REMARK  2 active torsions:
REMARK  status: ('A' for Active; 'I' for Inactive)
REMARK    1  A    between atoms: C2_2  and  C4_4 
REMARK    2  A    between atoms: C6_6  and  C7_7 
ROOT
HETATM    1  C7  UNL     1      53.205  23.052  27.386  1.00  0.00     0.117 A 
HETATM    2  N1  UNL     1      54.145  23.984  27.693  1.00  0.00    -0.272 N 
ATOM      3  H1  UNL     1      54.120  24.614  28.495  1.00  0.00     0.190 HD
HETATM    4  N2  UNL     1      55.097  23.935  26.776  1.00  0.00    -0.227 N 
ATOM      5  H2  UNL     1      55.927  24.527  26.762  1.00  0.00     0.210 HD
HETATM    6  N3  UNL     1      54.813  23.009  25.885  1.00  0.00    -0.227 N 
ATOM      7  H3  UNL     1      55.369  22.753  25.069  1.00  0.00     0.210 HD
HETATM    8  N4  UNL     1      53.664  22.476  26.260  1.00  0.00    -0.272 N 
ATOM      9  H4  UNL     1      53.186  21.726  25.760  1.00  0.00     0.190 HD
ENDROOT
BRANCH   1  10
HETATM   10  C6  UNL     1      51.961  22.722  28.096  1.00  0.00     0.061 A 
HETATM   11  C4  UNL     1      52.002  22.134  29.458  1.00  0.00     0.001 A 
HETATM   12  C5  UNL     1      51.757  21.209  28.283  1.00  0.00     0.018 A 
BRANCH  11  13
HETATM   13  C2  UNL     1      50.801  22.323  30.348  1.00  0.00    -0.018 C 
HETATM   14  C1  UNL     1      49.850  23.265  29.630  1.00  0.00     0.010 C 
HETATM   15  C3  UNL     1      51.155  22.971  31.670  1.00  0.00     0.010 C 
ENDBRANCH  11  13
ENDBRANCH   1  10
TORSDOF 2
ENDMDL
MODEL 4
REMARK VINA RESULT: -7.933661174      0.894      1.583
REMARK  2 active torsions:
REMARK  status: ('A' for Active; 'I' for Inactive)
REMARK    1  A    between atoms: C2_2  and  C4_4 
REMARK    2  A    between atoms: C6_6  and  C7_7 
ROOT
HETATM    1  C7  UNL     1      53.237  23.007  27.313  1.00  0.00     0.117 A 
HETATM    2  N1  UNL     1      53.735  22.446  26.180  1.00  0.00    -0.272 N 
ATOM      3  H1  UNL     1      53.301  21.692  25.647  1.00  0.00     0.190 HD
HETATM    4  N2  UNL     1      54.878  23.043  25.887  1.00  0.00    -0.227 N 
ATOM      5  H2  UNL     1      55.467  22.818  25.085  1.00  0.00     0.210 HD
HETATM    6  N3  UNL     1      55.143  23.969  26.784  1.00  0.00    -0.227 N 
ATOM      7  H3  UNL     1      55.956  24.584  26.808  1.00  0.00     0.210 HD
HETATM    8  N4  UNL     1      54.143  23.943  27.648  1.00  0.00    -0.272 N 
ATOM      9  H4  UNL     1      54.068  24.553  28.462  1.00  0.00     0.190 HD
ENDROOT
BRANCH   1  10
HETATM   10  C6  UNL     1      51.996  22.689  28.036  1.00  0.00     0.061 A 
HETATM   11  C4  UNL     1      52.045  22.088  29.392  1.00  0.00     0.001 A 
HETATM   12  C5  UNL     1      51.771  21.178  28.213  1.00  0.00     0.018 A 
BRANCH  11  13
HETATM   13  C2  UNL     1      50.859  22.288  30.299  1.00  0.00    -0.018 C 
HETATM   14  C1  UNL     1      49.936  23.287  29.622  1.00  0.00     0.010 C 
HETATM   15  C3  UNL     1      51.246  22.878  31.639  1.00  0.00     0.010 C 
ENDBRANCH  11  13
ENDBRANCH   1  10
TORSDOF 2
ENDMDL
MODEL 5
REMARK VINA RESULT: -7.502679441      0.790      1.786
REMARK  2 active torsions:
REMARK  status: ('A' for Active; 'I' for Inactive)
REMARK    1  A    between atoms: C2_2  and  C4_4 
REMARK    2  A    between atoms: C6_6  and  C7_7 
ROOT
HETATM    1  C7  UNL     1      54.100  22.516  27.483  1.00  0.00     0.117 A 
HETATM    2  N1  UNL     1      54.035  22.709  26.140  1.00  0.00    -0.272 N 
ATOM      3  H1  UNL     1      53.241  23.097  25.631  1.00  0.00     0.190 HD
HETATM    4  N2  UNL     1      55.176  22.307  25.606  1.00  0.00    -0.227 N 
ATOM      5  H2  UNL     1      55.400  22.338  24.611  1.00  0.00     0.210 HD
HETATM    6  N3  UNL     1      55.979  21.861  26.548  1.00  0.00    -0.227 N 
ATOM      7  H3  UNL     1      56.921  21.490  26.424  1.00  0.00     0.210 HD
HETATM    8  N4  UNL     1      55.321  21.990  27.686  1.00  0.00    -0.272 N 
ATOM      9  H4  UNL     1      55.691  21.725  28.599  1.00  0.00     0.190 HD
ENDROOT
BRANCH   1  10
HETATM   10  C6  UNL     1      53.088  22.804  28.510  1.00  0.00     0.061 A 
HETATM   11  C4  UNL     1      51.688  22.339  28.343  1.00  0.00     0.001 A 
HETATM   12  C5  UNL     1      52.006  23.787  28.032  1.00  0.00     0.018 A 
BRANCH  11  13
HETATM   13  C2  UNL     1      50.852  22.148  29.582  1.00  0.00    -0.018 C 
HETATM   14  C1  UNL     1      49.773  23.217  29.568  1.00  0.00     0.010 C 
HETATM   15  C3  UNL     1      51.650  22.338  30.855  1.00  0.00     0.010 C 
ENDBRANCH  11  13
ENDBRANCH   1  10
TORSDOF 2
ENDMDL
