MODEL 1
REMARK VINA RESULT: -8.164524404      0.000      0.000
REMARK  7 active torsions:
REMARK  status: ('A' for Active; 'I' for Inactive)
REMARK    1  A    between atoms: N1_2  and  N2_4 
REMARK    2  A    between atoms: N2_4  and  C1_6 
REMARK    3  A    between atoms: C2_12  and  S1_13 
REMARK    4  A    between atoms: S1_13  and  N5_16 
REMARK    5  A    between atoms: N5_16  and  C3_18 
REMARK    6  A    between atoms: C4_22  and  N7_23 
REMARK    7  A    between atoms: N7_23  and  C5_25 
ROOT
HETATM    1  C3  UNL     1     112.023  53.161  14.080  1.00  0.00     0.157 A 
HETATM    2  N6  UNL     1     113.335  53.317  13.925  1.00  0.00    -0.308 N 
ATOM      3  H6  UNL     1     114.064  52.646  13.682  1.00  0.00     0.176 HD
HETATM    4  S2  UNL     1     113.416  54.940  14.248  1.00  0.00     0.009 SA
HETATM    5  C4  UNL     1     111.800  54.494  14.387  1.00  0.00     0.134 A 
ENDROOT
BRANCH   1   6
HETATM    6  N5  UNL     1     111.155  52.039  13.970  1.00  0.00    -0.262 N 
ATOM      7  H5  UNL     1     111.139  51.509  13.098  1.00  0.00     0.180 HD
BRANCH   6   8
HETATM    8  S1  UNL     1     110.138  51.554  15.257  1.00  0.00     0.285 S 
HETATM    9  O4  UNL     1     109.385  52.784  15.749  1.00  0.00    -0.198 OA
HETATM   10  O5  UNL     1     109.078  50.592  14.801  1.00  0.00    -0.198 OA
BRANCH   8  11
HETATM   11  C2  UNL     1     111.006  50.815  16.586  1.00  0.00     0.219 A 
HETATM   12  C1  UNL     1     110.395  49.972  17.494  1.00  0.00     0.189 A 
HETATM   13  N3  UNL     1     111.338  49.612  18.352  1.00  0.00    -0.221 N 
HETATM   14  O3  UNL     1     112.446  50.186  18.005  1.00  0.00    -0.154 OA
ATOM     15  H3  UNL     1     111.213  48.990  19.151  1.00  0.00     0.198 HD
HETATM   16  N4  UNL     1     112.289  50.916  16.952  1.00  0.00    -0.225 N 
ATOM     17  H4  UNL     1     113.010  51.466  16.485  1.00  0.00     0.198 HD
BRANCH  12  18
HETATM   18  N2  UNL     1     109.147  49.597  17.515  1.00  0.00    -0.221 N 
ATOM     19  H2  UNL     1     108.420  50.311  17.579  1.00  0.00     0.195 HD
BRANCH  18  20
HETATM   20  N1  UNL     1     108.772  48.262  17.452  1.00  0.00    -0.037 N 
HETATM   21  O1  UNL     1     107.805  47.934  16.737  1.00  0.00    -0.516 OA
HETATM   22  O2  UNL     1     109.415  47.262  18.140  1.00  0.00    -0.516 OA
ENDBRANCH  18  20
ENDBRANCH  12  18
ENDBRANCH   8  11
ENDBRANCH   6   8
ENDBRANCH   1   6
BRANCH   5  23
HETATM   23  N7  UNL     1     110.616  55.237  14.709  1.00  0.00    -0.354 N 
ATOM     24  H7  UNL     1     110.251  55.225  15.661  1.00  0.00     0.162 HD
BRANCH  23  25
HETATM   25  C5  UNL     1     109.938  56.003  13.685  1.00  0.00     0.237 C 
HETATM   26  C6  UNL     1     109.106  57.071  14.246  1.00  0.00     0.129 C 
HETATM   27  N8  UNL     1     108.011  57.360  13.603  1.00  0.00    -0.296 N 
HETATM   28  N9  UNL     1     107.622  56.712  12.452  1.00  0.00    -0.203 N 
ATOM     29  H8  UNL     1     107.413  58.100  13.970  1.00  0.00     0.187 HD
HETATM   30  C7  UNL     1     106.548  56.903  11.524  1.00  0.00     0.298 C 
HETATM   31  N12 UNL     1     108.335  55.630  11.976  1.00  0.00    -0.012 NA
HETATM   32  N10 UNL     1     106.460  55.596  10.888  1.00  0.00    -0.105 NA
HETATM   33  N11 UNL     1     107.315  54.754  11.607  1.00  0.00    -0.013 NA
HETATM   34  N13 UNL     1     109.272  55.110  12.810  1.00  0.00    -0.292 N 
ATOM     35  H13 UNL     1     109.489  54.114  12.806  1.00  0.00     0.180 HD
ENDBRANCH  23  25
ENDBRANCH   5  23
TORSDOF 7
ENDMDL
MODEL 2
REMARK VINA RESULT: -7.979702198      1.223      1.421
REMARK  7 active torsions:
REMARK  status: ('A' for Active; 'I' for Inactive)
REMARK    1  A    between atoms: N1_2  and  N2_4 
REMARK    2  A    between atoms: N2_4  and  C1_6 
REMARK    3  A    between atoms: C2_12  and  S1_13 
REMARK    4  A    between atoms: S1_13  and  N5_16 
REMARK    5  A    between atoms: N5_16  and  C3_18 
REMARK    6  A    between atoms: C4_22  and  N7_23 
REMARK    7  A    between atoms: N7_23  and  C5_25 
ROOT
HETATM    1  C3  UNL     1     112.556  52.844  14.411  1.00  0.00     0.157 A 
HETATM    2  N6  UNL     1     113.661  52.902  13.673  1.00  0.00    -0.308 N 
ATOM      3  H6  UNL     1     114.630  52.679  13.902  1.00  0.00     0.176 HD
HETATM    4  S2  UNL     1     112.974  53.446  12.267  1.00  0.00     0.009 SA
HETATM    5  C4  UNL     1     111.730  53.290  13.391  1.00  0.00     0.134 A 
ENDROOT
BRANCH   1   6
HETATM    6  N5  UNL     1     112.302  52.461  15.758  1.00  0.00    -0.262 N 
ATOM      7  H5  UNL     1     112.852  52.883  16.506  1.00  0.00     0.180 HD
BRANCH   6   8
HETATM    8  S1  UNL     1     111.099  51.312  16.158  1.00  0.00     0.285 S 
HETATM    9  O4  UNL     1     109.749  52.019  16.137  1.00  0.00    -0.198 OA
HETATM   10  O5  UNL     1     110.997  50.225  15.126  1.00  0.00    -0.198 OA
BRANCH   8  11
HETATM   11  C2  UNL     1     111.352  50.556  17.717  1.00  0.00     0.219 A 
HETATM   12  C1  UNL     1     110.388  49.782  18.333  1.00  0.00     0.189 A 
HETATM   13  N3  UNL     1     110.914  49.387  19.482  1.00  0.00    -0.221 N 
HETATM   14  O3  UNL     1     112.109  49.876  19.574  1.00  0.00    -0.154 OA
ATOM     15  H3  UNL     1     110.455  48.797  20.177  1.00  0.00     0.198 HD
HETATM   16  N4  UNL     1     112.410  50.583  18.536  1.00  0.00    -0.225 N 
ATOM     17  H4  UNL     1     113.291  51.071  18.372  1.00  0.00     0.198 HD
BRANCH  12  18
HETATM   18  N2  UNL     1     109.198  49.492  17.885  1.00  0.00    -0.221 N 
ATOM     19  H2  UNL     1     108.518  50.244  17.771  1.00  0.00     0.195 HD
BRANCH  18  20
HETATM   20  N1  UNL     1     108.826  48.195  17.559  1.00  0.00    -0.037 N 
HETATM   21  O1  UNL     1     109.429  47.239  18.084  1.00  0.00    -0.516 OA
HETATM   22  O2  UNL     1     107.814  47.896  16.679  1.00  0.00    -0.516 OA
ENDBRANCH  18  20
ENDBRANCH  12  18
ENDBRANCH   8  11
ENDBRANCH   6   8
ENDBRANCH   1   6
BRANCH   5  23
HETATM   23  N7  UNL     1     110.320  53.535  13.312  1.00  0.00    -0.354 N 
ATOM     24  H7  UNL     1     109.661  52.816  13.613  1.00  0.00     0.162 HD
BRANCH  23  25
HETATM   25  C5  UNL     1     109.828  54.798  12.807  1.00  0.00     0.237 C 
HETATM   26  C6  UNL     1     109.560  55.763  13.877  1.00  0.00     0.129 C 
HETATM   27  N8  UNL     1     108.569  56.586  13.690  1.00  0.00    -0.296 N 
HETATM   28  N9  UNL     1     107.789  56.577  12.556  1.00  0.00    -0.203 N 
ATOM     29  H8  UNL     1     108.360  57.268  14.419  1.00  0.00     0.187 HD
HETATM   30  C7  UNL     1     106.734  57.418  12.074  1.00  0.00     0.298 C 
HETATM   31  N12 UNL     1     107.957  55.604  11.592  1.00  0.00    -0.012 NA
HETATM   32  N10 UNL     1     106.061  56.546  11.121  1.00  0.00    -0.105 NA
HETATM   33  N11 UNL     1     106.637  55.280  11.277  1.00  0.00    -0.013 NA
HETATM   34  N13 UNL     1     108.747  54.551  11.927  1.00  0.00    -0.292 N 
ATOM     35  H13 UNL     1     108.569  53.617  11.558  1.00  0.00     0.180 HD
ENDBRANCH  23  25
ENDBRANCH   5  23
TORSDOF 7
ENDMDL
MODEL 3
REMARK VINA RESULT: -7.922332010      1.356      2.132
REMARK  7 active torsions:
REMARK  status: ('A' for Active; 'I' for Inactive)
REMARK    1  A    between atoms: N1_2  and  N2_4 
REMARK    2  A    between atoms: N2_4  and  C1_6 
REMARK    3  A    between atoms: C2_12  and  S1_13 
REMARK    4  A    between atoms: S1_13  and  N5_16 
REMARK    5  A    between atoms: N5_16  and  C3_18 
REMARK    6  A    between atoms: C4_22  and  N7_23 
REMARK    7  A    between atoms: N7_23  and  C5_25 
ROOT
HETATM    1  C3  UNL     1     112.528  52.724  13.965  1.00  0.00     0.157 A 
HETATM    2  N6  UNL     1     113.512  53.412  13.393  1.00  0.00    -0.308 N 
ATOM      3  H6  UNL     1     114.513  53.436  13.589  1.00  0.00     0.176 HD
HETATM    4  S2  UNL     1     112.606  54.218  12.264  1.00  0.00     0.009 SA
HETATM    5  C4  UNL     1     111.545  53.250  13.141  1.00  0.00     0.134 A 
ENDROOT
BRANCH   1   6
HETATM    6  N5  UNL     1     112.489  51.784  15.033  1.00  0.00    -0.262 N 
ATOM      7  H5  UNL     1     113.326  51.243  15.249  1.00  0.00     0.180 HD
BRANCH   6   8
HETATM    8  S1  UNL     1     111.076  51.536  15.966  1.00  0.00     0.285 S 
HETATM    9  O4  UNL     1     110.464  52.899  16.263  1.00  0.00    -0.198 OA
HETATM   10  O5  UNL     1     110.025  50.783  15.200  1.00  0.00    -0.198 OA
BRANCH   8  11
HETATM   11  C2  UNL     1     111.375  50.678  17.462  1.00  0.00     0.219 A 
HETATM   12  C1  UNL     1     110.446  49.827  18.029  1.00  0.00     0.189 A 
HETATM   13  N3  UNL     1     111.000  49.367  19.141  1.00  0.00    -0.221 N 
HETATM   14  O3  UNL     1     112.178  49.891  19.257  1.00  0.00    -0.154 OA
ATOM     15  H3  UNL     1     110.570  48.712  19.795  1.00  0.00     0.198 HD
HETATM   16  N4  UNL     1     112.441  50.682  18.271  1.00  0.00    -0.225 N 
ATOM     17  H4  UNL     1     113.302  51.213  18.135  1.00  0.00     0.198 HD
BRANCH  12  18
HETATM   18  N2  UNL     1     109.262  49.527  17.572  1.00  0.00    -0.221 N 
ATOM     19  H2  UNL     1     108.645  50.282  17.271  1.00  0.00     0.195 HD
BRANCH  18  20
HETATM   20  N1  UNL     1     108.812  48.217  17.483  1.00  0.00    -0.037 N 
HETATM   21  O1  UNL     1     107.832  47.958  16.758  1.00  0.00    -0.516 OA
HETATM   22  O2  UNL     1     109.392  47.169  18.157  1.00  0.00    -0.516 OA
ENDBRANCH  18  20
ENDBRANCH  12  18
ENDBRANCH   8  11
ENDBRANCH   6   8
ENDBRANCH   1   6
BRANCH   5  23
HETATM   23  N7  UNL     1     110.128  53.047  13.059  1.00  0.00    -0.354 N 
ATOM     24  H7  UNL     1     109.760  52.152  12.735  1.00  0.00     0.162 HD
BRANCH  23  25
HETATM   25  C5  UNL     1     109.219  54.109  13.433  1.00  0.00     0.237 C 
HETATM   26  C6  UNL     1     108.503  54.664  12.281  1.00  0.00     0.129 C 
HETATM   27  N8  UNL     1     108.220  55.934  12.323  1.00  0.00    -0.296 N 
HETATM   28  N9  UNL     1     108.562  56.746  13.381  1.00  0.00    -0.203 N 
ATOM     29  H8  UNL     1     107.721  56.347  11.535  1.00  0.00     0.187 HD
HETATM   30  C7  UNL     1     108.287  58.112  13.710  1.00  0.00     0.298 C 
HETATM   31  N12 UNL     1     109.334  56.263  14.419  1.00  0.00    -0.012 NA
HETATM   32  N10 UNL     1     109.352  58.419  14.653  1.00  0.00    -0.105 NA
HETATM   33  N11 UNL     1     110.218  57.320  14.634  1.00  0.00    -0.013 NA
HETATM   34  N13 UNL     1     109.916  55.051  14.227  1.00  0.00    -0.292 N 
ATOM     35  H13 UNL     1     110.822  54.828  14.639  1.00  0.00     0.180 HD
ENDBRANCH  23  25
ENDBRANCH   5  23
TORSDOF 7
ENDMDL
MODEL 4
REMARK VINA RESULT: -7.869525626      1.234      1.936
REMARK  7 active torsions:
REMARK  status: ('A' for Active; 'I' for Inactive)
REMARK    1  A    between atoms: N1_2  and  N2_4 
REMARK    2  A    between atoms: N2_4  and  C1_6 
REMARK    3  A    between atoms: C2_12  and  S1_13 
REMARK    4  A    between atoms: S1_13  and  N5_16 
REMARK    5  A    between atoms: N5_16  and  C3_18 
REMARK    6  A    between atoms: C4_22  and  N7_23 
REMARK    7  A    between atoms: N7_23  and  C5_25 
ROOT
HETATM    1  C3  UNL     1     111.274  53.750  14.489  1.00  0.00     0.157 A 
HETATM    2  N6  UNL     1     112.514  54.229  14.528  1.00  0.00    -0.308 N 
ATOM      3  H6  UNL     1     113.241  54.147  15.238  1.00  0.00     0.176 HD
HETATM    4  S2  UNL     1     112.511  55.001  13.061  1.00  0.00     0.009 SA
HETATM    5  C4  UNL     1     110.995  54.294  13.246  1.00  0.00     0.134 A 
ENDROOT
BRANCH   1   6
HETATM    6  N5  UNL     1     110.506  52.962  15.391  1.00  0.00    -0.262 N 
ATOM      7  H5  UNL     1     109.937  53.428  16.098  1.00  0.00     0.180 HD
BRANCH   6   8
HETATM    8  S1  UNL     1     110.508  51.252  15.323  1.00  0.00     0.285 S 
HETATM    9  O4  UNL     1     109.061  50.784  15.234  1.00  0.00    -0.198 OA
HETATM   10  O5  UNL     1     111.171  50.743  14.075  1.00  0.00    -0.198 OA
BRANCH   8  11
HETATM   11  C2  UNL     1     111.294  50.504  16.697  1.00  0.00     0.219 A 
HETATM   12  C1  UNL     1     110.605  49.750  17.627  1.00  0.00     0.189 A 
HETATM   13  N3  UNL     1     111.504  49.354  18.516  1.00  0.00    -0.221 N 
HETATM   14  O3  UNL     1     112.658  49.824  18.167  1.00  0.00    -0.154 OA
ATOM     15  H3  UNL     1     111.317  48.777  19.337  1.00  0.00     0.198 HD
HETATM   16  N4  UNL     1     112.576  50.519  17.082  1.00  0.00    -0.225 N 
ATOM     17  H4  UNL     1     113.345  50.992  16.607  1.00  0.00     0.198 HD
BRANCH  12  18
HETATM   18  N2  UNL     1     109.331  49.475  17.639  1.00  0.00    -0.221 N 
ATOM     19  H2  UNL     1     108.662  50.244  17.701  1.00  0.00     0.195 HD
BRANCH  18  20
HETATM   20  N1  UNL     1     108.852  48.174  17.572  1.00  0.00    -0.037 N 
HETATM   21  O1  UNL     1     107.884  47.919  16.830  1.00  0.00    -0.516 OA
HETATM   22  O2  UNL     1     109.392  47.131  18.285  1.00  0.00    -0.516 OA
ENDBRANCH  18  20
ENDBRANCH  12  18
ENDBRANCH   8  11
ENDBRANCH   6   8
ENDBRANCH   1   6
BRANCH   5  23
HETATM   23  N7  UNL     1     109.831  54.268  12.408  1.00  0.00    -0.354 N 
ATOM     24  H7  UNL     1     109.829  53.704  11.557  1.00  0.00     0.162 HD
BRANCH  23  25
HETATM   25  C5  UNL     1     108.661  55.040  12.765  1.00  0.00     0.237 C 
HETATM   26  C6  UNL     1     107.692  55.127  11.668  1.00  0.00     0.129 C 
HETATM   27  N8  UNL     1     107.007  56.231  11.578  1.00  0.00    -0.296 N 
HETATM   28  N9  UNL     1     107.160  57.284  12.452  1.00  0.00    -0.203 N 
ATOM     29  H8  UNL     1     106.326  56.319  10.825  1.00  0.00     0.187 HD
HETATM   30  C7  UNL     1     106.478  58.531  12.628  1.00  0.00     0.298 C 
HETATM   31  N12 UNL     1     108.145  57.262  13.418  1.00  0.00    -0.012 NA
HETATM   32  N10 UNL     1     107.466  59.320  13.350  1.00  0.00    -0.105 NA
HETATM   33  N11 UNL     1     108.643  58.562  13.352  1.00  0.00    -0.013 NA
HETATM   34  N13 UNL     1     109.077  56.279  13.309  1.00  0.00    -0.292 N 
ATOM     35  H13 UNL     1     110.041  56.428  13.607  1.00  0.00     0.180 HD
ENDBRANCH  23  25
ENDBRANCH   5  23
TORSDOF 7
ENDMDL
MODEL 5
REMARK VINA RESULT: -7.864139698      1.822      2.832
REMARK  7 active torsions:
REMARK  status: ('A' for Active; 'I' for Inactive)
REMARK    1  A    between atoms: N1_2  and  N2_4 
REMARK    2  A    between atoms: N2_4  and  C1_6 
REMARK    3  A    between atoms: C2_12  and  S1_13 
REMARK    4  A    between atoms: S1_13  and  N5_16 
REMARK    5  A    between atoms: N5_16  and  C3_18 
REMARK    6  A    between atoms: C4_22  and  N7_23 
REMARK    7  A    between atoms: N7_23  and  C5_25 
ROOT
HETATM    1  C3  UNL     1     111.478  52.237  15.119  1.00  0.00     0.157 A 
HETATM    2  N6  UNL     1     112.785  52.410  14.945  1.00  0.00    -0.308 N 
ATOM      3  H6  UNL     1     113.579  52.130  15.521  1.00  0.00     0.176 HD
HETATM    4  S2  UNL     1     112.722  53.220  13.500  1.00  0.00     0.009 SA
HETATM    5  C4  UNL     1     111.134  52.881  13.941  1.00  0.00     0.134 A 
ENDROOT
BRANCH   1   6
HETATM    6  N5  UNL     1     110.704  51.615  16.138  1.00  0.00    -0.262 N 
ATOM      7  H5  UNL     1     109.727  51.884  16.254  1.00  0.00     0.180 HD
BRANCH   6   8
HETATM    8  S1  UNL     1     111.367  50.427  17.175  1.00  0.00     0.285 S 
HETATM    9  O4  UNL     1     112.531  49.766  16.449  1.00  0.00    -0.198 OA
HETATM   10  O5  UNL     1     111.961  51.034  18.415  1.00  0.00    -0.198 OA
BRANCH   8  11
HETATM   11  C2  UNL     1     110.206  49.212  17.670  1.00  0.00     0.219 A 
HETATM   12  C1  UNL     1     110.510  48.226  18.588  1.00  0.00     0.189 A 
HETATM   13  N3  UNL     1     109.414  47.492  18.713  1.00  0.00    -0.221 N 
HETATM   14  O3  UNL     1     108.503  47.983  17.935  1.00  0.00    -0.154 OA
ATOM     15  H3  UNL     1     109.307  46.678  19.319  1.00  0.00     0.198 HD
HETATM   16  N4  UNL     1     108.938  49.015  17.292  1.00  0.00    -0.225 N 
ATOM     17  H4  UNL     1     108.412  49.575  16.621  1.00  0.00     0.198 HD
BRANCH  12  18
HETATM   18  N2  UNL     1     111.640  48.042  19.212  1.00  0.00    -0.221 N 
ATOM     19  H2  UNL     1     112.512  48.217  18.713  1.00  0.00     0.195 HD
BRANCH  18  20
HETATM   20  N1  UNL     1     111.696  47.616  20.532  1.00  0.00    -0.037 N 
HETATM   21  O1  UNL     1     110.894  48.092  21.359  1.00  0.00    -0.516 OA
HETATM   22  O2  UNL     1     112.597  46.686  20.991  1.00  0.00    -0.516 OA
ENDBRANCH  18  20
ENDBRANCH  12  18
ENDBRANCH   8  11
ENDBRANCH   6   8
ENDBRANCH   1   6
BRANCH   5  23
HETATM   23  N7  UNL     1     109.876  53.163  13.313  1.00  0.00    -0.354 N 
ATOM     24  H7  UNL     1     109.178  52.425  13.217  1.00  0.00     0.162 HD
BRANCH  23  25
HETATM   25  C5  UNL     1     109.594  54.492  12.815  1.00  0.00     0.237 C 
HETATM   26  C6  UNL     1     109.518  55.487  13.889  1.00  0.00     0.129 C 
HETATM   27  N8  UNL     1     108.676  56.466  13.723  1.00  0.00    -0.296 N 
HETATM   28  N9  UNL     1     107.879  56.591  12.607  1.00  0.00    -0.203 N 
ATOM     29  H8  UNL     1     108.603  57.174  14.454  1.00  0.00     0.187 HD
HETATM   30  C7  UNL     1     106.971  57.599  12.147  1.00  0.00     0.298 C 
HETATM   31  N12 UNL     1     107.857  55.604  11.642  1.00  0.00    -0.012 NA
HETATM   32  N10 UNL     1     106.138  56.854  11.213  1.00  0.00    -0.105 NA
HETATM   33  N11 UNL     1     106.495  55.509  11.359  1.00  0.00    -0.013 NA
HETATM   34  N13 UNL     1     108.466  54.432  11.962  1.00  0.00    -0.292 N 
ATOM     35  H13 UNL     1     108.123  53.543  11.600  1.00  0.00     0.180 HD
ENDBRANCH  23  25
ENDBRANCH   5  23
TORSDOF 7
ENDMDL
