MODEL 1
REMARK VINA RESULT: -7.503226320      0.000      0.000
REMARK  12 active torsions:
REMARK  status: ('A' for Active; 'I' for Inactive)
REMARK    1  A    between atoms: C2_2  and  C3_3 
REMARK    2  A    between atoms: C2_2  and  N10_33 
REMARK    3  A    between atoms: C3_3  and  O1_4 
REMARK    4  A    between atoms: C3_3  and  C4_6 
REMARK    5  A    between atoms: C4_6  and  N1_7 
REMARK    6  A    between atoms: C5_12  and  C6_13 
REMARK    7  A    between atoms: C10_18  and  N5_19 
REMARK    8  A    between atoms: C11_24  and  N7_25 
REMARK    9  A    between atoms: C13_36  and  C14_37 
REMARK   10  A    between atoms: C14_37  and  N12_38 
REMARK   11  A    between atoms: N13_42  and  N14_43 
REMARK   12  A    between atoms: C15_46  and  N15_47 
ROOT
HETATM    1  N1  UNL     1     109.971  51.749  15.321  1.00  0.00    -0.215 N 
HETATM    2  N2  UNL     1     108.910  51.000  15.552  1.00  0.00    -0.224 N 
ATOM      3  H2  UNL     1     108.023  51.063  15.052  1.00  0.00     0.210 HD
HETATM    4  N3  UNL     1     109.176  50.154  16.535  1.00  0.00    -0.268 N 
ATOM      5  H3  UNL     1     108.531  49.462  16.915  1.00  0.00     0.190 HD
HETATM    6  C5  UNL     1     110.433  50.358  16.948  1.00  0.00     0.151 A 
HETATM    7  N9  UNL     1     110.888  51.364  16.161  1.00  0.00    -0.266 N 
ATOM      8  H9  UNL     1     111.825  51.765  16.219  1.00  0.00     0.190 HD
ENDROOT
BRANCH   1   9
HETATM    9  C4  UNL     1     110.120  52.814  14.323  1.00  0.00     0.205 C 
BRANCH   9  10
HETATM   10  C3  UNL     1     109.587  54.118  14.840  1.00  0.00     0.164 C 
BRANCH  10  11
HETATM   11  C2  UNL     1     110.092  55.302  14.043  1.00  0.00     0.153 C 
HETATM   12  C1  UNL     1     110.664  56.287  15.072  1.00  0.00     0.038 C 
BRANCH  11  13
HETATM   13  N10 UNL     1     108.995  56.001  13.399  1.00  0.00    -0.114 N 
HETATM   14  N11 UNL     1     108.519  57.191  13.730  1.00  0.00    -0.269 N 
HETATM   15  C13 UNL     1     107.500  57.524  12.914  1.00  0.00     0.162 A 
ATOM     16  H11 UNL     1     108.871  57.771  14.491  1.00  0.00     0.189 HD
HETATM   17  N13 UNL     1     107.335  56.495  12.038  1.00  0.00    -0.076 N 
HETATM   18  C15 UNL     1     108.269  55.571  12.361  1.00  0.00     0.715 A 
BRANCH  15  19
HETATM   19  C14 UNL     1     106.666  58.761  12.909  1.00  0.00     0.309 C 
BRANCH  19  20
HETATM   20  N12 UNL     1     105.551  58.624  13.822  1.00  0.00    -0.073 N 
ATOM     21 3H12 UNL     1     105.702  57.873  14.495  1.00  0.00     0.274 HD
ATOM     22 2H12 UNL     1     105.498  59.406  14.476  1.00  0.00     0.274 HD
ATOM     23 1H12 UNL     1     104.680  58.502  13.307  1.00  0.00     0.274 HD
ENDBRANCH  19  20
ENDBRANCH  15  19
BRANCH  17  24
HETATM   24  N14 UNL     1     106.401  56.389  11.010  1.00  0.00    -0.323 N 
ATOM     25 2H14 UNL     1     105.700  57.087  10.764  1.00  0.00     0.178 HD
ATOM     26 1H14 UNL     1     106.275  55.616  10.357  1.00  0.00     0.178 HD
ENDBRANCH  17  24
BRANCH  18  27
HETATM   27  N15 UNL     1     108.424  54.450  11.750  1.00  0.00    -0.231 N 
ATOM     28 2H15 UNL     1     109.194  54.241  11.114  1.00  0.00     0.174 HD
ATOM     29 1H15 UNL     1     107.808  53.641  11.825  1.00  0.00     0.174 HD
ENDBRANCH  18  27
ENDBRANCH  11  13
ENDBRANCH  10  11
BRANCH  10  30
HETATM   30  O1  UNL     1     110.066  54.273  16.148  1.00  0.00    -0.392 OA
ATOM     31  H1  UNL     1     109.308  54.281  16.720  1.00  0.00     0.210 HD
ENDBRANCH  10  30
ENDBRANCH   9  10
ENDBRANCH   1   9
BRANCH   6  32
HETATM   32  C6  UNL     1     111.159  49.667  18.002  1.00  0.00     0.056 A 
HETATM   33  C7  UNL     1     110.616  49.299  19.215  1.00  0.00     0.108 A 
HETATM   34  N4  UNL     1     111.563  48.671  19.972  1.00  0.00    -0.355 N 
HETATM   35  C8  UNL     1     111.324  48.163  21.291  1.00  0.00     0.156 C 
HETATM   36  C9  UNL     1     112.717  48.614  19.294  1.00  0.00     0.107 A 
HETATM   37  C10 UNL     1     113.971  48.109  19.556  1.00  0.00     0.144 A 
HETATM   38  C12 UNL     1     112.466  49.238  18.057  1.00  0.00     0.095 A 
HETATM   39  N6  UNL     1     114.896  48.263  18.557  1.00  0.00    -0.175 N 
HETATM   40  C11 UNL     1     114.645  48.856  17.391  1.00  0.00     0.678 A 
ATOM     41  H6  UNL     1     115.835  47.902  18.717  1.00  0.00     0.186 HD
HETATM   42  N8  UNL     1     113.438  49.346  17.129  1.00  0.00    -0.189 N 
ATOM     43  H8  UNL     1     113.249  49.800  16.235  1.00  0.00     0.184 HD
BRANCH  37  44
HETATM   44  N5  UNL     1     114.277  47.536  20.638  1.00  0.00    -0.383 N 
ATOM     45  H52 UNL     1     113.910  47.871  21.528  1.00  0.00     0.157 HD
ATOM     46  H51 UNL     1     114.894  46.726  20.689  1.00  0.00     0.157 HD
ENDBRANCH  37  44
BRANCH  40  47
HETATM   47  N7  UNL     1     115.567  48.978  16.466  1.00  0.00    -0.234 N 
ATOM     48  H72 UNL     1     116.225  49.754  16.551  1.00  0.00     0.174 HD
ATOM     49  H71 UNL     1     115.635  48.327  15.684  1.00  0.00     0.174 HD
ENDBRANCH  40  47
ENDBRANCH   6  32
TORSDOF 12
ENDMDL
MODEL 2
REMARK VINA RESULT: -7.409655970      0.969      2.226
REMARK  12 active torsions:
REMARK  status: ('A' for Active; 'I' for Inactive)
REMARK    1  A    between atoms: C2_2  and  C3_3 
REMARK    2  A    between atoms: C2_2  and  N10_33 
REMARK    3  A    between atoms: C3_3  and  O1_4 
REMARK    4  A    between atoms: C3_3  and  C4_6 
REMARK    5  A    between atoms: C4_6  and  N1_7 
REMARK    6  A    between atoms: C5_12  and  C6_13 
REMARK    7  A    between atoms: C10_18  and  N5_19 
REMARK    8  A    between atoms: C11_24  and  N7_25 
REMARK    9  A    between atoms: C13_36  and  C14_37 
REMARK   10  A    between atoms: C14_37  and  N12_38 
REMARK   11  A    between atoms: N13_42  and  N14_43 
REMARK   12  A    between atoms: C15_46  and  N15_47 
ROOT
HETATM    1  N1  UNL     1     109.979  51.580  15.196  1.00  0.00    -0.215 N 
HETATM    2  N2  UNL     1     109.076  50.921  15.897  1.00  0.00    -0.224 N 
ATOM      3  H2  UNL     1     108.066  50.993  15.774  1.00  0.00     0.210 HD
HETATM    4  N3  UNL     1     109.687  50.153  16.786  1.00  0.00    -0.268 N 
ATOM      5  H3  UNL     1     109.226  49.539  17.457  1.00  0.00     0.190 HD
HETATM    6  C5  UNL     1     111.009  50.316  16.659  1.00  0.00     0.151 A 
HETATM    7  N9  UNL     1     111.143  51.216  15.653  1.00  0.00    -0.266 N 
ATOM      8  H9  UNL     1     112.036  51.563  15.302  1.00  0.00     0.190 HD
ENDROOT
BRANCH   1   9
HETATM    9  C4  UNL     1     109.751  52.538  14.110  1.00  0.00     0.205 C 
BRANCH   9  10
HETATM   10  C3  UNL     1     109.350  53.880  14.648  1.00  0.00     0.164 C 
BRANCH  10  11
HETATM   11  C2  UNL     1     109.939  55.021  13.845  1.00  0.00     0.153 C 
HETATM   12  C1  UNL     1     110.635  55.937  14.861  1.00  0.00     0.038 C 
BRANCH  11  13
HETATM   13  N10 UNL     1     108.892  55.827  13.243  1.00  0.00    -0.114 N 
HETATM   14  N11 UNL     1     108.544  57.055  13.596  1.00  0.00    -0.269 N 
HETATM   15  C13 UNL     1     107.534  57.490  12.819  1.00  0.00     0.162 A 
ATOM     16  H11 UNL     1     108.978  57.592  14.346  1.00  0.00     0.189 HD
HETATM   17  N13 UNL     1     107.239  56.489  11.946  1.00  0.00    -0.076 N 
HETATM   18  C15 UNL     1     108.090  55.476  12.231  1.00  0.00     0.715 A 
BRANCH  15  19
HETATM   19  C14 UNL     1     106.823  58.801  12.850  1.00  0.00     0.309 C 
BRANCH  19  20
HETATM   20  N12 UNL     1     105.647  58.722  13.690  1.00  0.00    -0.073 N 
ATOM     21 3H12 UNL     1     105.126  57.859  13.532  1.00  0.00     0.274 HD
ATOM     22 2H12 UNL     1     105.890  58.576  14.670  1.00  0.00     0.274 HD
ATOM     23 1H12 UNL     1     105.061  59.546  13.563  1.00  0.00     0.274 HD
ENDBRANCH  19  20
ENDBRANCH  15  19
BRANCH  17  24
HETATM   24  N14 UNL     1     106.263  56.480  10.952  1.00  0.00    -0.323 N 
ATOM     25 2H14 UNL     1     105.368  56.968  10.989  1.00  0.00     0.178 HD
ATOM     26 1H14 UNL     1     106.288  55.997  10.054  1.00  0.00     0.178 HD
ENDBRANCH  17  24
BRANCH  18  27
HETATM   27  N15 UNL     1     108.115  54.350  11.611  1.00  0.00    -0.231 N 
ATOM     28 2H15 UNL     1     108.675  54.161  10.780  1.00  0.00     0.174 HD
ATOM     29 1H15 UNL     1     107.586  53.517  11.868  1.00  0.00     0.174 HD
ENDBRANCH  18  27
ENDBRANCH  11  13
ENDBRANCH  10  11
BRANCH  10  30
HETATM   30  O1  UNL     1     109.878  53.981  15.943  1.00  0.00    -0.392 OA
ATOM     31  H1  UNL     1     110.743  54.364  15.858  1.00  0.00     0.210 HD
ENDBRANCH  10  30
ENDBRANCH   9  10
ENDBRANCH   1   9
BRANCH   6  32
HETATM   32  C6  UNL     1     112.073  49.680  17.419  1.00  0.00     0.056 A 
HETATM   33  C7  UNL     1     113.121  48.977  16.862  1.00  0.00     0.108 A 
HETATM   34  N4  UNL     1     113.940  48.511  17.851  1.00  0.00    -0.355 N 
HETATM   35  C8  UNL     1     115.122  47.738  17.610  1.00  0.00     0.156 C 
HETATM   36  C9  UNL     1     113.462  48.886  19.045  1.00  0.00     0.107 A 
HETATM   37  C10 UNL     1     113.865  48.705  20.349  1.00  0.00     0.144 A 
HETATM   38  C12 UNL     1     112.291  49.620  18.778  1.00  0.00     0.095 A 
HETATM   39  N6  UNL     1     113.064  49.275  21.304  1.00  0.00    -0.175 N 
HETATM   40  C11 UNL     1     111.959  49.967  21.037  1.00  0.00     0.678 A 
ATOM     41  H6  UNL     1     113.332  49.161  22.281  1.00  0.00     0.186 HD
HETATM   42  N8  UNL     1     111.562  50.147  19.782  1.00  0.00    -0.189 N 
ATOM     43  H8  UNL     1     110.715  50.677  19.580  1.00  0.00     0.184 HD
BRANCH  37  44
HETATM   44  N5  UNL     1     114.900  48.061  20.674  1.00  0.00    -0.383 N 
ATOM     45  H52 UNL     1     115.810  48.305  20.284  1.00  0.00     0.157 HD
ATOM     46  H51 UNL     1     114.893  47.279  21.327  1.00  0.00     0.157 HD
ENDBRANCH  37  44
BRANCH  40  47
HETATM   47  N7  UNL     1     111.226  50.493  21.990  1.00  0.00    -0.234 N 
ATOM     48  H72 UNL     1     110.625  49.867  22.526  1.00  0.00     0.174 HD
ATOM     49  H71 UNL     1     111.247  51.492  22.195  1.00  0.00     0.174 HD
ENDBRANCH  40  47
ENDBRANCH   6  32
TORSDOF 12
ENDMDL
MODEL 3
REMARK VINA RESULT: -7.346670971      1.892      9.877
REMARK  12 active torsions:
REMARK  status: ('A' for Active; 'I' for Inactive)
REMARK    1  A    between atoms: C2_2  and  C3_3 
REMARK    2  A    between atoms: C2_2  and  N10_33 
REMARK    3  A    between atoms: C3_3  and  O1_4 
REMARK    4  A    between atoms: C3_3  and  C4_6 
REMARK    5  A    between atoms: C4_6  and  N1_7 
REMARK    6  A    between atoms: C5_12  and  C6_13 
REMARK    7  A    between atoms: C10_18  and  N5_19 
REMARK    8  A    between atoms: C11_24  and  N7_25 
REMARK    9  A    between atoms: C13_36  and  C14_37 
REMARK   10  A    between atoms: C14_37  and  N12_38 
REMARK   11  A    between atoms: N13_42  and  N14_43 
REMARK   12  A    between atoms: C15_46  and  N15_47 
ROOT
HETATM    1  N1  UNL     1     110.755  52.295  13.801  1.00  0.00    -0.215 N 
HETATM    2  N2  UNL     1     111.348  52.658  12.680  1.00  0.00    -0.224 N 
ATOM      3  H2  UNL     1     112.003  52.086  12.147  1.00  0.00     0.210 HD
HETATM    4  N3  UNL     1     110.958  53.881  12.354  1.00  0.00    -0.268 N 
ATOM      5  H3  UNL     1     111.264  54.403  11.533  1.00  0.00     0.190 HD
HETATM    6  C5  UNL     1     110.097  54.318  13.281  1.00  0.00     0.151 A 
HETATM    7  N9  UNL     1     110.002  53.293  14.164  1.00  0.00    -0.266 N 
ATOM      8  H9  UNL     1     109.418  53.304  15.001  1.00  0.00     0.190 HD
ENDROOT
BRANCH   1   9
HETATM    9  C4  UNL     1     110.894  51.026  14.523  1.00  0.00     0.205 C 
BRANCH   9  10
HETATM   10  C3  UNL     1     111.971  51.111  15.564  1.00  0.00     0.164 C 
BRANCH  10  11
HETATM   11  C2  UNL     1     111.421  51.444  16.934  1.00  0.00     0.153 C 
HETATM   12  C1  UNL     1     112.517  52.252  17.643  1.00  0.00     0.038 C 
BRANCH  11  13
HETATM   13  N10 UNL     1     111.245  50.242  17.730  1.00  0.00    -0.114 N 
HETATM   14  N11 UNL     1     112.143  49.690  18.530  1.00  0.00    -0.269 N 
HETATM   15  C13 UNL     1     111.632  48.585  19.106  1.00  0.00     0.162 A 
ATOM     16  H11 UNL     1     113.085  50.048  18.687  1.00  0.00     0.189 HD
HETATM   17  N13 UNL     1     110.360  48.443  18.642  1.00  0.00    -0.076 N 
HETATM   18  C15 UNL     1     110.149  49.478  17.796  1.00  0.00     0.715 A 
BRANCH  15  19
HETATM   19  C14 UNL     1     112.273  47.647  20.072  1.00  0.00     0.309 C 
BRANCH  19  20
HETATM   20  N12 UNL     1     111.779  47.883  21.412  1.00  0.00    -0.073 N 
ATOM     21 3H12 UNL     1     112.309  48.613  21.888  1.00  0.00     0.274 HD
ATOM     22 2H12 UNL     1     110.866  48.338  21.405  1.00  0.00     0.274 HD
ATOM     23 1H12 UNL     1     111.766  47.015  21.946  1.00  0.00     0.274 HD
ENDBRANCH  19  20
ENDBRANCH  15  19
BRANCH  17  24
HETATM   24  N14 UNL     1     109.441  47.445  18.957  1.00  0.00    -0.323 N 
ATOM     25 2H14 UNL     1     108.462  47.590  19.206  1.00  0.00     0.178 HD
ATOM     26 1H14 UNL     1     109.597  46.438  18.989  1.00  0.00     0.178 HD
ENDBRANCH  17  24
BRANCH  18  27
HETATM   27  N15 UNL     1     109.051  49.684  17.158  1.00  0.00    -0.231 N 
ATOM     28 2H15 UNL     1     108.442  48.946  16.805  1.00  0.00     0.174 HD
ATOM     29 1H15 UNL     1     108.658  50.596  16.928  1.00  0.00     0.174 HD
ENDBRANCH  18  27
ENDBRANCH  11  13
ENDBRANCH  10  11
BRANCH  10  30
HETATM   30  O1  UNL     1     112.818  52.166  15.198  1.00  0.00    -0.392 OA
ATOM     31  H1  UNL     1     113.434  52.285  15.913  1.00  0.00     0.210 HD
ENDBRANCH  10  30
ENDBRANCH   9  10
ENDBRANCH   1   9
BRANCH   6  32
HETATM   32  C6  UNL     1     109.412  55.599  13.341  1.00  0.00     0.056 A 
HETATM   33  C7  UNL     1     109.790  56.652  14.147  1.00  0.00     0.108 A 
HETATM   34  N4  UNL     1     108.937  57.703  13.963  1.00  0.00    -0.355 N 
HETATM   35  C8  UNL     1     109.050  58.954  14.653  1.00  0.00     0.156 C 
HETATM   36  C9  UNL     1     108.006  57.374  13.057  1.00  0.00     0.107 A 
HETATM   37  C10 UNL     1     106.927  58.021  12.499  1.00  0.00     0.144 A 
HETATM   38  C12 UNL     1     108.301  56.054  12.665  1.00  0.00     0.095 A 
HETATM   39  N6  UNL     1     106.212  57.301  11.579  1.00  0.00    -0.175 N 
HETATM   40  C11 UNL     1     106.502  56.053  11.216  1.00  0.00     0.678 A 
ATOM     41  H6  UNL     1     105.405  57.749  11.144  1.00  0.00     0.186 HD
HETATM   42  N8  UNL     1     107.541  55.420  11.750  1.00  0.00    -0.189 N 
ATOM     43  H8  UNL     1     107.762  54.464  11.471  1.00  0.00     0.184 HD
BRANCH  37  44
HETATM   44  N5  UNL     1     106.595  59.202  12.795  1.00  0.00    -0.383 N 
ATOM     45  H52 UNL     1     105.859  59.381  13.479  1.00  0.00     0.157 HD
ATOM     46  H51 UNL     1     107.027  60.027  12.382  1.00  0.00     0.157 HD
ENDBRANCH  37  44
BRANCH  40  47
HETATM   47  N7  UNL     1     105.784  55.406  10.329  1.00  0.00    -0.234 N 
ATOM     48  H72 UNL     1     105.275  55.956   9.638  1.00  0.00     0.174 HD
ATOM     49  H71 UNL     1     105.730  54.387  10.321  1.00  0.00     0.174 HD
ENDBRANCH  40  47
ENDBRANCH   6  32
TORSDOF 12
ENDMDL
MODEL 4
REMARK VINA RESULT: -7.268788106      1.448      1.521
REMARK  12 active torsions:
REMARK  status: ('A' for Active; 'I' for Inactive)
REMARK    1  A    between atoms: C2_2  and  C3_3 
REMARK    2  A    between atoms: C2_2  and  N10_33 
REMARK    3  A    between atoms: C3_3  and  O1_4 
REMARK    4  A    between atoms: C3_3  and  C4_6 
REMARK    5  A    between atoms: C4_6  and  N1_7 
REMARK    6  A    between atoms: C5_12  and  C6_13 
REMARK    7  A    between atoms: C10_18  and  N5_19 
REMARK    8  A    between atoms: C11_24  and  N7_25 
REMARK    9  A    between atoms: C13_36  and  C14_37 
REMARK   10  A    between atoms: C14_37  and  N12_38 
REMARK   11  A    between atoms: N13_42  and  N14_43 
REMARK   12  A    between atoms: C15_46  and  N15_47 
ROOT
HETATM    1  N1  UNL     1     109.966  51.653  15.371  1.00  0.00    -0.215 N 
HETATM    2  N2  UNL     1     108.977  50.841  15.691  1.00  0.00    -0.224 N 
ATOM      3  H2  UNL     1     108.080  50.784  15.208  1.00  0.00     0.210 HD
HETATM    4  N3  UNL     1     109.329  50.112  16.739  1.00  0.00    -0.268 N 
ATOM      5  H3  UNL     1     108.751  49.405  17.192  1.00  0.00     0.190 HD
HETATM    6  C5  UNL     1     110.570  50.457  17.104  1.00  0.00     0.151 A 
HETATM    7  N9  UNL     1     110.926  51.422  16.221  1.00  0.00    -0.266 N 
ATOM      8  H9  UNL     1     111.825  51.904  16.222  1.00  0.00     0.190 HD
ENDROOT
BRANCH   1   9
HETATM    9  C4  UNL     1     110.009  52.632  14.280  1.00  0.00     0.205 C 
BRANCH   9  10
HETATM   10  C3  UNL     1     109.442  53.951  14.716  1.00  0.00     0.164 C 
BRANCH  10  11
HETATM   11  C2  UNL     1     110.005  55.110  13.921  1.00  0.00     0.153 C 
HETATM   12  C1  UNL     1     110.661  56.045  14.946  1.00  0.00     0.038 C 
BRANCH  11  13
HETATM   13  N10 UNL     1     108.942  55.885  13.307  1.00  0.00    -0.114 N 
HETATM   14  N11 UNL     1     108.556  57.103  13.654  1.00  0.00    -0.269 N 
HETATM   15  C13 UNL     1     107.542  57.508  12.866  1.00  0.00     0.162 A 
ATOM     16  H11 UNL     1     108.966  57.654  14.407  1.00  0.00     0.189 HD
HETATM   17  N13 UNL     1     107.284  56.497  11.992  1.00  0.00    -0.076 N 
HETATM   18  C15 UNL     1     108.161  55.510  12.287  1.00  0.00     0.715 A 
BRANCH  15  19
HETATM   19  C14 UNL     1     106.793  58.799  12.887  1.00  0.00     0.309 C 
BRANCH  19  20
HETATM   20  N12 UNL     1     105.600  58.680  13.698  1.00  0.00    -0.073 N 
ATOM     21 3H12 UNL     1     104.855  58.186  13.207  1.00  0.00     0.274 HD
ATOM     22 2H12 UNL     1     105.731  58.029  14.472  1.00  0.00     0.274 HD
ATOM     23 1H12 UNL     1     105.296  59.598  14.022  1.00  0.00     0.274 HD
ENDBRANCH  19  20
ENDBRANCH  15  19
BRANCH  17  24
HETATM   24  N14 UNL     1     106.320  56.459  10.988  1.00  0.00    -0.323 N 
ATOM     25 2H14 UNL     1     106.442  56.065  10.056  1.00  0.00     0.178 HD
ATOM     26 1H14 UNL     1     105.363  56.811  11.026  1.00  0.00     0.178 HD
ENDBRANCH  17  24
BRANCH  18  27
HETATM   27  N15 UNL     1     108.225  54.384  11.669  1.00  0.00    -0.231 N 
ATOM     28 2H15 UNL     1     108.784  53.588  11.976  1.00  0.00     0.174 HD
ATOM     29 1H15 UNL     1     107.731  54.149  10.809  1.00  0.00     0.174 HD
ENDBRANCH  18  27
ENDBRANCH  11  13
ENDBRANCH  10  11
BRANCH  10  30
HETATM   30  O1  UNL     1     109.827  54.148  16.049  1.00  0.00    -0.392 OA
ATOM     31  H1  UNL     1     110.585  54.722  16.035  1.00  0.00     0.210 HD
ENDBRANCH  10  30
ENDBRANCH   9  10
ENDBRANCH   1   9
BRANCH   6  32
HETATM   32  C6  UNL     1     111.368  49.926  18.198  1.00  0.00     0.056 A 
HETATM   33  C7  UNL     1     111.138  48.718  18.820  1.00  0.00     0.108 A 
HETATM   34  N4  UNL     1     112.066  48.521  19.803  1.00  0.00    -0.355 N 
HETATM   35  C8  UNL     1     112.108  47.360  20.642  1.00  0.00     0.156 C 
HETATM   36  C9  UNL     1     112.902  49.568  19.848  1.00  0.00     0.107 A 
HETATM   37  C10 UNL     1     113.994  49.902  20.616  1.00  0.00     0.144 A 
HETATM   38  C12 UNL     1     112.467  50.451  18.842  1.00  0.00     0.095 A 
HETATM   39  N6  UNL     1     114.582  51.104  20.324  1.00  0.00    -0.175 N 
HETATM   40  C11 UNL     1     114.160  51.931  19.369  1.00  0.00     0.678 A 
ATOM     41  H6  UNL     1     115.394  51.384  20.874  1.00  0.00     0.186 HD
HETATM   42  N8  UNL     1     113.107  51.617  18.623  1.00  0.00    -0.189 N 
ATOM     43  H8  UNL     1     112.785  52.252  17.892  1.00  0.00     0.184 HD
BRANCH  37  44
HETATM   44  N5  UNL     1     114.448  49.167  21.536  1.00  0.00    -0.383 N 
ATOM     45  H52 UNL     1     113.953  48.323  21.822  1.00  0.00     0.157 HD
ATOM     46  H51 UNL     1     115.313  49.365  22.039  1.00  0.00     0.157 HD
ENDBRANCH  37  44
BRANCH  40  47
HETATM   47  N7  UNL     1     114.759  53.073  19.129  1.00  0.00    -0.234 N 
ATOM     48  H72 UNL     1     115.095  53.243  18.182  1.00  0.00     0.174 HD
ATOM     49  H71 UNL     1     114.889  53.775  19.858  1.00  0.00     0.174 HD
ENDBRANCH  40  47
ENDBRANCH   6  32
TORSDOF 12
ENDMDL
MODEL 5
REMARK VINA RESULT: -7.161183993      1.383      2.616
REMARK  12 active torsions:
REMARK  status: ('A' for Active; 'I' for Inactive)
REMARK    1  A    between atoms: C2_2  and  C3_3 
REMARK    2  A    between atoms: C2_2  and  N10_33 
REMARK    3  A    between atoms: C3_3  and  O1_4 
REMARK    4  A    between atoms: C3_3  and  C4_6 
REMARK    5  A    between atoms: C4_6  and  N1_7 
REMARK    6  A    between atoms: C5_12  and  C6_13 
REMARK    7  A    between atoms: C10_18  and  N5_19 
REMARK    8  A    between atoms: C11_24  and  N7_25 
REMARK    9  A    between atoms: C13_36  and  C14_37 
REMARK   10  A    between atoms: C14_37  and  N12_38 
REMARK   11  A    between atoms: N13_42  and  N14_43 
REMARK   12  A    between atoms: C15_46  and  N15_47 
ROOT
HETATM    1  N1  UNL     1     111.574  52.739  14.805  1.00  0.00    -0.215 N 
HETATM    2  N2  UNL     1     112.776  53.193  15.099  1.00  0.00    -0.224 N 
ATOM      3  H2  UNL     1     113.249  53.963  14.625  1.00  0.00     0.210 HD
HETATM    4  N3  UNL     1     113.275  52.493  16.107  1.00  0.00    -0.268 N 
ATOM      5  H3  UNL     1     114.190  52.635  16.533  1.00  0.00     0.190 HD
HETATM    6  C5  UNL     1     112.378  51.569  16.472  1.00  0.00     0.151 A 
HETATM    7  N9  UNL     1     111.333  51.762  15.631  1.00  0.00    -0.266 N 
ATOM      8  H9  UNL     1     110.472  51.213  15.643  1.00  0.00     0.190 HD
ENDROOT
BRANCH   1   9
HETATM    9  C4  UNL     1     110.662  53.219  13.761  1.00  0.00     0.205 C 
BRANCH   9  10
HETATM   10  C3  UNL     1     109.685  54.215  14.312  1.00  0.00     0.164 C 
BRANCH  10  11
HETATM   11  C2  UNL     1     109.986  55.627  13.860  1.00  0.00     0.153 C 
HETATM   12  C1  UNL     1     110.290  56.423  15.137  1.00  0.00     0.038 C 
BRANCH  11  13
HETATM   13  N10 UNL     1     108.809  56.250  13.281  1.00  0.00    -0.114 N 
HETATM   14  N11 UNL     1     108.242  57.379  13.676  1.00  0.00    -0.269 N 
HETATM   15  C13 UNL     1     107.169  57.651  12.909  1.00  0.00     0.162 A 
ATOM     16  H11 UNL     1     108.569  57.958  14.449  1.00  0.00     0.189 HD
HETATM   17  N13 UNL     1     107.064  56.646  11.997  1.00  0.00    -0.076 N 
HETATM   18  C15 UNL     1     108.086  55.797  12.250  1.00  0.00     0.715 A 
BRANCH  15  19
HETATM   19  C14 UNL     1     106.230  58.807  12.982  1.00  0.00     0.309 C 
BRANCH  19  20
HETATM   20  N12 UNL     1     105.350  58.674  14.124  1.00  0.00    -0.073 N 
ATOM     21 3H12 UNL     1     104.460  59.148  13.974  1.00  0.00     0.274 HD
ATOM     22 2H12 UNL     1     105.001  57.721  14.225  1.00  0.00     0.274 HD
ATOM     23 1H12 UNL     1     105.814  59.000  14.972  1.00  0.00     0.274 HD
ENDBRANCH  19  20
ENDBRANCH  15  19
BRANCH  17  24
HETATM   24  N14 UNL     1     106.107  56.496  10.996  1.00  0.00    -0.323 N 
ATOM     25 2H14 UNL     1     105.552  55.658  10.820  1.00  0.00     0.178 HD
ATOM     26 1H14 UNL     1     105.817  57.182  10.299  1.00  0.00     0.178 HD
ENDBRANCH  17  24
BRANCH  18  27
HETATM   27  N15 UNL     1     108.318  54.718  11.589  1.00  0.00    -0.231 N 
ATOM     28 2H15 UNL     1     109.224  54.252  11.545  1.00  0.00     0.174 HD
ATOM     29 1H15 UNL     1     107.635  54.202  11.035  1.00  0.00     0.174 HD
ENDBRANCH  18  27
ENDBRANCH  11  13
ENDBRANCH  10  11
BRANCH  10  30
HETATM   30  O1  UNL     1     109.818  54.198  15.708  1.00  0.00    -0.392 OA
ATOM     31  H1  UNL     1     110.662  53.803  15.899  1.00  0.00     0.210 HD
ENDBRANCH  10  30
ENDBRANCH   9  10
ENDBRANCH   1   9
BRANCH   6  32
HETATM   32  C6  UNL     1     112.487  50.576  17.529  1.00  0.00     0.056 A 
HETATM   33  C7  UNL     1     113.609  50.379  18.305  1.00  0.00     0.108 A 
HETATM   34  N4  UNL     1     113.380  49.373  19.200  1.00  0.00    -0.355 N 
HETATM   35  C8  UNL     1     114.347  48.917  20.155  1.00  0.00     0.156 C 
HETATM   36  C9  UNL     1     112.137  48.899  19.036  1.00  0.00     0.107 A 
HETATM   37  C10 UNL     1     111.388  47.916  19.642  1.00  0.00     0.144 A 
HETATM   38  C12 UNL     1     111.574  49.653  17.989  1.00  0.00     0.095 A 
HETATM   39  N6  UNL     1     110.118  47.751  19.156  1.00  0.00    -0.175 N 
HETATM   40  C11 UNL     1     109.597  48.471  18.164  1.00  0.00     0.678 A 
ATOM     41  H6  UNL     1     109.534  47.031  19.581  1.00  0.00     0.186 HD
HETATM   42  N8  UNL     1     110.313  49.422  17.573  1.00  0.00    -0.189 N 
ATOM     43  H8  UNL     1     109.912  49.972  16.813  1.00  0.00     0.184 HD
BRANCH  37  44
HETATM   44  N5  UNL     1     111.817  47.198  20.586  1.00  0.00    -0.383 N 
ATOM     45  H52 UNL     1     112.795  46.911  20.622  1.00  0.00     0.157 HD
ATOM     46  H51 UNL     1     111.231  46.866  21.352  1.00  0.00     0.157 HD
ENDBRANCH  37  44
BRANCH  40  47
HETATM   47  N7  UNL     1     108.374  48.272  17.734  1.00  0.00    -0.234 N 
ATOM     48  H72 UNL     1     108.252  47.719  16.886  1.00  0.00     0.174 HD
ATOM     49  H71 UNL     1     107.564  48.654  18.223  1.00  0.00     0.174 HD
ENDBRANCH  40  47
ENDBRANCH   6  32
TORSDOF 12
ENDMDL
