MODEL 1
REMARK VINA RESULT: -6.085585104      0.000      0.000
REMARK  3 active torsions:
REMARK  status: ('A' for Active; 'I' for Inactive)
REMARK    1  A    between atoms: O1_1  and  C1_3 
REMARK    2  A    between atoms: C4_7  and  N1_8 
REMARK    3  A    between atoms: C7_12  and  O4_13 
ROOT
HETATM    1  C1  UNL     1      -5.175   3.021  13.985  1.00  0.00     0.179 C 
HETATM    2  C2  UNL     1      -4.062   3.704  13.202  1.00  0.00     0.062 C 
HETATM    3  C3  UNL     1      -3.086   4.073  14.296  1.00  0.00     0.173 C 
HETATM    4  O2  UNL     1      -3.435   3.272  15.384  1.00  0.00    -0.355 OA
HETATM    5  C4  UNL     1      -4.850   3.305  15.414  1.00  0.00     0.394 C 
ENDROOT
BRANCH   5   6
HETATM    6  N1  UNL     1      -5.271   2.256  16.274  1.00  0.00     0.176 N 
HETATM    7  C5  UNL     1      -6.729   2.195  16.384  1.00  0.00     0.308 C 
HETATM    8  C6  UNL     1      -6.846   0.822  17.063  1.00  0.00     0.203 C 
HETATM    9  O3  UNL     1      -5.764   0.094  16.611  1.00  0.00    -0.335 OA
HETATM   10  C7  UNL     1      -4.990   0.926  15.803  1.00  0.00     0.509 C 
BRANCH  10  11
HETATM   11  O4  UNL     1      -3.656   0.577  16.071  1.00  0.00    -0.347 OA
ATOM     12  H4  UNL     1      -3.226   0.270  15.282  1.00  0.00     0.214 HD
ENDBRANCH  10  11
ENDBRANCH   5   6
BRANCH   1  13
HETATM   13  O1  UNL     1      -6.413   3.505  13.584  1.00  0.00    -0.391 OA
ATOM     14  H1  UNL     1      -6.989   3.598  14.334  1.00  0.00     0.210 HD
ENDBRANCH   1  13
TORSDOF 3
ENDMDL
MODEL 2
REMARK VINA RESULT: -5.979018901      1.038      1.836
REMARK  3 active torsions:
REMARK  status: ('A' for Active; 'I' for Inactive)
REMARK    1  A    between atoms: O1_1  and  C1_3 
REMARK    2  A    between atoms: C4_7  and  N1_8 
REMARK    3  A    between atoms: C7_12  and  O4_13 
ROOT
HETATM    1  C1  UNL     1      -4.090   4.008  15.186  1.00  0.00     0.179 C 
HETATM    2  C2  UNL     1      -4.502   5.259  14.423  1.00  0.00     0.062 C 
HETATM    3  C3  UNL     1      -5.952   4.973  14.105  1.00  0.00     0.173 C 
HETATM    4  O2  UNL     1      -6.328   3.959  14.987  1.00  0.00    -0.355 OA
HETATM    5  C4  UNL     1      -5.230   3.064  14.992  1.00  0.00     0.394 C 
ENDROOT
BRANCH   5   6
HETATM    6  N1  UNL     1      -5.403   2.202  16.108  1.00  0.00     0.176 N 
HETATM    7  C5  UNL     1      -6.817   1.940  16.379  1.00  0.00     0.308 C 
HETATM    8  C6  UNL     1      -6.644   0.772  17.362  1.00  0.00     0.203 C 
HETATM    9  O3  UNL     1      -5.480   0.136  16.979  1.00  0.00    -0.335 OA
HETATM   10  C7  UNL     1      -4.920   0.859  15.926  1.00  0.00     0.509 C 
BRANCH  10  11
HETATM   11  O4  UNL     1      -3.530   0.802  16.127  1.00  0.00    -0.347 OA
ATOM     12  H4  UNL     1      -3.176  -0.010  15.784  1.00  0.00     0.214 HD
ENDBRANCH  10  11
ENDBRANCH   5   6
BRANCH   1  13
HETATM   13  O1  UNL     1      -2.877   3.529  14.708  1.00  0.00    -0.391 OA
ATOM     14  H1  UNL     1      -2.323   3.254  15.429  1.00  0.00     0.210 HD
ENDBRANCH   1  13
TORSDOF 3
ENDMDL
MODEL 3
REMARK VINA RESULT: -5.757693284      2.727      4.360
REMARK  3 active torsions:
REMARK  status: ('A' for Active; 'I' for Inactive)
REMARK    1  A    between atoms: O1_1  and  C1_3 
REMARK    2  A    between atoms: C4_7  and  N1_8 
REMARK    3  A    between atoms: C7_12  and  O4_13 
ROOT
HETATM    1  C1  UNL     1      -4.844   1.907  14.739  1.00  0.00     0.179 C 
HETATM    2  C2  UNL     1      -5.870   2.741  15.492  1.00  0.00     0.062 C 
HETATM    3  C3  UNL     1      -6.207   3.815  14.484  1.00  0.00     0.173 C 
HETATM    4  O2  UNL     1      -5.777   3.313  13.255  1.00  0.00    -0.355 OA
HETATM    5  C4  UNL     1      -4.521   2.722  13.531  1.00  0.00     0.394 C 
ENDROOT
BRANCH   5   6
HETATM    6  N1  UNL     1      -4.191   1.909  12.413  1.00  0.00     0.176 N 
HETATM    7  C5  UNL     1      -4.290   0.483  12.729  1.00  0.00     0.308 C 
HETATM    8  C6  UNL     1      -4.214  -0.070  11.298  1.00  0.00     0.203 C 
HETATM    9  O3  UNL     1      -4.778   0.902  10.496  1.00  0.00    -0.335 OA
HETATM   10  C7  UNL     1      -5.102   1.993  11.302  1.00  0.00     0.509 C 
BRANCH  10  11
HETATM   11  O4  UNL     1      -4.829   3.131  10.525  1.00  0.00    -0.347 OA
ATOM     12  H4  UNL     1      -5.374   3.142   9.747  1.00  0.00     0.214 HD
ENDBRANCH  10  11
ENDBRANCH   5   6
BRANCH   1  13
HETATM   13  O1  UNL     1      -3.747   1.645  15.549  1.00  0.00    -0.391 OA
ATOM     14  H1  UNL     1      -3.230   0.935  15.184  1.00  0.00     0.210 HD
ENDBRANCH   1  13
TORSDOF 3
ENDMDL
MODEL 4
REMARK VINA RESULT: -5.725877883      2.130      2.602
REMARK  3 active torsions:
REMARK  status: ('A' for Active; 'I' for Inactive)
REMARK    1  A    between atoms: O1_1  and  C1_3 
REMARK    2  A    between atoms: C4_7  and  N1_8 
REMARK    3  A    between atoms: C7_12  and  O4_13 
ROOT
HETATM    1  C1  UNL     1      -5.024   2.244  12.260  1.00  0.00     0.179 C 
HETATM    2  C2  UNL     1      -4.938   1.149  11.205  1.00  0.00     0.062 C 
HETATM    3  C3  UNL     1      -4.236   0.041  11.955  1.00  0.00     0.173 C 
HETATM    4  O2  UNL     1      -4.385   0.360  13.305  1.00  0.00    -0.355 OA
HETATM    5  C4  UNL     1      -4.154   1.755  13.370  1.00  0.00     0.394 C 
ENDROOT
BRANCH   5   6
HETATM    6  N1  UNL     1      -4.617   2.193  14.640  1.00  0.00     0.176 N 
HETATM    7  C5  UNL     1      -5.944   2.804  14.555  1.00  0.00     0.308 C 
HETATM    8  C6  UNL     1      -6.269   2.844  16.056  1.00  0.00     0.203 C 
HETATM    9  O3  UNL     1      -5.608   1.765  16.606  1.00  0.00    -0.335 OA
HETATM   10  C7  UNL     1      -4.872   1.148  15.595  1.00  0.00     0.509 C 
BRANCH  10  11
HETATM   11  O4  UNL     1      -3.675   0.730  16.201  1.00  0.00    -0.347 OA
ATOM     12  H4  UNL     1      -3.435   1.319  16.906  1.00  0.00     0.214 HD
ENDBRANCH  10  11
ENDBRANCH   5   6
BRANCH   1  13
HETATM   13  O1  UNL     1      -4.623   3.461  11.726  1.00  0.00    -0.391 OA
ATOM     14  H1  UNL     1      -4.902   3.532  10.820  1.00  0.00     0.210 HD
ENDBRANCH   1  13
TORSDOF 3
ENDMDL
MODEL 5
REMARK VINA RESULT: -5.721721300      3.048      4.372
REMARK  3 active torsions:
REMARK  status: ('A' for Active; 'I' for Inactive)
REMARK    1  A    between atoms: O1_1  and  C1_3 
REMARK    2  A    between atoms: C4_7  and  N1_8 
REMARK    3  A    between atoms: C7_12  and  O4_13 
ROOT
HETATM    1  C1  UNL     1      -4.351   3.281  13.638  1.00  0.00     0.179 C 
HETATM    2  C2  UNL     1      -4.276   3.401  15.154  1.00  0.00     0.062 C 
HETATM    3  C3  UNL     1      -4.423   1.962  15.593  1.00  0.00     0.173 C 
HETATM    4  O2  UNL     1      -4.131   1.201  14.461  1.00  0.00    -0.355 OA
HETATM    5  C4  UNL     1      -4.786   1.873  13.400  1.00  0.00     0.394 C 
ENDROOT
BRANCH   5   6
HETATM    6  N1  UNL     1      -4.259   1.350  12.189  1.00  0.00     0.176 N 
HETATM    7  C5  UNL     1      -4.049  -0.096  12.267  1.00  0.00     0.308 C 
HETATM    8  C6  UNL     1      -3.818  -0.369  10.773  1.00  0.00     0.203 C 
HETATM    9  O3  UNL     1      -4.563   0.581  10.104  1.00  0.00    -0.335 OA
HETATM   10  C7  UNL     1      -5.139   1.425  11.053  1.00  0.00     0.509 C 
BRANCH  10  11
HETATM   11  O4  UNL     1      -5.105   2.710  10.486  1.00  0.00    -0.347 OA
ATOM     12  H4  UNL     1      -5.272   3.371  11.147  1.00  0.00     0.214 HD
ENDBRANCH  10  11
ENDBRANCH   5   6
BRANCH   1  13
HETATM   13  O1  UNL     1      -5.220   4.232  13.122  1.00  0.00    -0.391 OA
ATOM     14  H1  UNL     1      -4.883   5.107  13.278  1.00  0.00     0.210 HD
ENDBRANCH   1  13
TORSDOF 3
ENDMDL
