MODEL 1
REMARK VINA RESULT: -5.850109762      0.000      0.000
REMARK  3 active torsions:
REMARK  status: ('A' for Active; 'I' for Inactive)
REMARK    1  A    between atoms: C2_2  and  O1_3 
REMARK    2  A    between atoms: C2_2  and  C3_5 
REMARK    3  A    between atoms: C5_9  and  O4_10 
ROOT
HETATM    1  C3  UNL     1      -5.763   2.035  15.275  1.00  0.00     0.186 C 
HETATM    2  O2  UNL     1      -6.112   3.345  14.956  1.00  0.00    -0.348 OA
HETATM    3  C4  UNL     1      -5.030   3.449  14.051  1.00  0.00     0.295 C 
HETATM    4  O3  UNL     1      -5.477   3.290  12.782  1.00  0.00    -0.327 OA
HETATM    5  C5  UNL     1      -4.692   2.508  11.963  1.00  0.00     0.283 C 
HETATM    6  C6  UNL     1      -4.473   1.185  12.669  1.00  0.00     0.229 C 
HETATM    7  O5  UNL     1      -3.874   1.332  13.886  1.00  0.00    -0.373 OA
HETATM    8  C7  UNL     1      -4.406   2.284  14.706  1.00  0.00     0.208 C 
ENDROOT
BRANCH   1   9
HETATM    9  C2  UNL     1      -5.868   1.761  16.730  1.00  0.00     0.145 C 
HETATM   10  C1  UNL     1      -7.156   1.140  17.159  1.00  0.00     0.042 C 
BRANCH   9  11
HETATM   11  O1  UNL     1      -4.845   0.841  17.060  1.00  0.00    -0.393 OA
ATOM     12  H1  UNL     1      -4.729   0.279  16.302  1.00  0.00     0.210 HD
ENDBRANCH   9  11
ENDBRANCH   1   9
BRANCH   5  13
HETATM   13  O4  UNL     1      -5.440   2.241  10.806  1.00  0.00    -0.369 OA
ATOM     14  H4  UNL     1      -5.217   2.908  10.168  1.00  0.00     0.212 HD
ENDBRANCH   5  13
TORSDOF 3
ENDMDL
MODEL 2
REMARK VINA RESULT: -5.814708601      1.570      2.388
REMARK  3 active torsions:
REMARK  status: ('A' for Active; 'I' for Inactive)
REMARK    1  A    between atoms: C2_2  and  O1_3 
REMARK    2  A    between atoms: C2_2  and  C3_5 
REMARK    3  A    between atoms: C5_9  and  O4_10 
ROOT
HETATM    1  C3  UNL     1      -4.829   1.624  15.798  1.00  0.00     0.186 C 
HETATM    2  O2  UNL     1      -4.706   0.792  14.688  1.00  0.00    -0.348 OA
HETATM    3  C4  UNL     1      -4.845   1.891  13.807  1.00  0.00     0.295 C 
HETATM    4  O3  UNL     1      -3.627   2.264  13.345  1.00  0.00    -0.327 OA
HETATM    5  C5  UNL     1      -3.397   3.622  13.289  1.00  0.00     0.283 C 
HETATM    6  C6  UNL     1      -3.695   4.193  14.661  1.00  0.00     0.229 C 
HETATM    7  O5  UNL     1      -4.977   3.954  15.061  1.00  0.00    -0.373 OA
HETATM    8  C7  UNL     1      -5.422   2.672  14.917  1.00  0.00     0.208 C 
ENDROOT
BRANCH   1   9
HETATM    9  C2  UNL     1      -5.689   1.033  16.854  1.00  0.00     0.145 C 
HETATM   10  C1  UNL     1      -7.120   1.457  16.806  1.00  0.00     0.042 C 
BRANCH   9  11
HETATM   11  O1  UNL     1      -5.675  -0.370  16.671  1.00  0.00    -0.393 OA
ATOM     12  H1  UNL     1      -5.506  -0.523  15.749  1.00  0.00     0.210 HD
ENDBRANCH   9  11
ENDBRANCH   1   9
BRANCH   5  13
HETATM   13  O4  UNL     1      -2.025   3.799  13.055  1.00  0.00    -0.369 OA
ATOM     14  H4  UNL     1      -1.738   4.519  13.605  1.00  0.00     0.212 HD
ENDBRANCH   5  13
TORSDOF 3
ENDMDL
MODEL 3
REMARK VINA RESULT: -5.689354365      1.190      4.510
REMARK  3 active torsions:
REMARK  status: ('A' for Active; 'I' for Inactive)
REMARK    1  A    between atoms: C2_2  and  O1_3 
REMARK    2  A    between atoms: C2_2  and  C3_5 
REMARK    3  A    between atoms: C5_9  and  O4_10 
ROOT
HETATM    1  C3  UNL     1      -4.973   1.889  13.197  1.00  0.00     0.186 C 
HETATM    2  O2  UNL     1      -4.384   0.660  13.484  1.00  0.00    -0.348 OA
HETATM    3  C4  UNL     1      -4.311   0.979  14.860  1.00  0.00     0.295 C 
HETATM    4  O3  UNL     1      -5.318   0.366  15.527  1.00  0.00    -0.327 OA
HETATM    5  C5  UNL     1      -5.957   1.128  16.482  1.00  0.00     0.283 C 
HETATM    6  C6  UNL     1      -6.402   2.415  15.816  1.00  0.00     0.229 C 
HETATM    7  O5  UNL     1      -5.362   3.115  15.280  1.00  0.00    -0.373 OA
HETATM    8  C7  UNL     1      -4.488   2.401  14.512  1.00  0.00     0.208 C 
ENDROOT
BRANCH   1   9
HETATM    9  C2  UNL     1      -4.420   2.505  11.964  1.00  0.00     0.145 C 
HETATM   10  C1  UNL     1      -3.136   1.910  11.488  1.00  0.00     0.042 C 
BRANCH   9  11
HETATM   11  O1  UNL     1      -5.367   2.304  10.933  1.00  0.00    -0.393 OA
ATOM     12  H1  UNL     1      -5.046   2.775  10.172  1.00  0.00     0.210 HD
ENDBRANCH   9  11
ENDBRANCH   1   9
BRANCH   5  13
HETATM   13  O4  UNL     1      -7.117   0.433  16.857  1.00  0.00    -0.369 OA
ATOM     14  H4  UNL     1      -7.392   0.781  17.697  1.00  0.00     0.212 HD
ENDBRANCH   5  13
TORSDOF 3
ENDMDL
MODEL 4
REMARK VINA RESULT: -5.662870656      1.401      1.487
REMARK  3 active torsions:
REMARK  status: ('A' for Active; 'I' for Inactive)
REMARK    1  A    between atoms: C2_2  and  O1_3 
REMARK    2  A    between atoms: C2_2  and  C3_5 
REMARK    3  A    between atoms: C5_9  and  O4_10 
ROOT
HETATM    1  C3  UNL     1      -4.806   2.352  14.980  1.00  0.00     0.186 C 
HETATM    2  O2  UNL     1      -5.980   3.090  14.859  1.00  0.00    -0.348 OA
HETATM    3  C4  UNL     1      -5.300   4.121  14.168  1.00  0.00     0.295 C 
HETATM    4  O3  UNL     1      -5.532   4.011  12.838  1.00  0.00    -0.327 OA
HETATM    5  C5  UNL     1      -4.440   4.207  12.020  1.00  0.00     0.283 C 
HETATM    6  C6  UNL     1      -3.341   3.278  12.495  1.00  0.00     0.229 C 
HETATM    7  O5  UNL     1      -2.994   3.497  13.796  1.00  0.00    -0.373 OA
HETATM    8  C7  UNL     1      -4.026   3.589  14.685  1.00  0.00     0.208 C 
ENDROOT
BRANCH   1   9
HETATM    9  C2  UNL     1      -4.659   1.741  16.325  1.00  0.00     0.145 C 
HETATM   10  C1  UNL     1      -5.880   1.049  16.835  1.00  0.00     0.042 C 
BRANCH   9  11
HETATM   11  O1  UNL     1      -3.645   0.759  16.233  1.00  0.00    -0.393 OA
ATOM     12  H1  UNL     1      -3.193   0.754  17.069  1.00  0.00     0.210 HD
ENDBRANCH   9  11
ENDBRANCH   1   9
BRANCH   5  13
HETATM   13  O4  UNL     1      -4.808   3.790  10.732  1.00  0.00    -0.369 OA
ATOM     14  H4  UNL     1      -4.698   4.536  10.154  1.00  0.00     0.212 HD
ENDBRANCH   5  13
TORSDOF 3
ENDMDL
MODEL 5
REMARK VINA RESULT: -5.570694864      1.340      1.811
REMARK  3 active torsions:
REMARK  status: ('A' for Active; 'I' for Inactive)
REMARK    1  A    between atoms: C2_2  and  O1_3 
REMARK    2  A    between atoms: C2_2  and  C3_5 
REMARK    3  A    between atoms: C5_9  and  O4_10 
ROOT
HETATM    1  C3  UNL     1      -4.764   1.937  14.092  1.00  0.00     0.186 C 
HETATM    2  O2  UNL     1      -5.781   2.681  13.499  1.00  0.00    -0.348 OA
HETATM    3  C4  UNL     1      -5.040   2.803  12.300  1.00  0.00     0.295 C 
HETATM    4  O3  UNL     1      -5.500   1.917  11.384  1.00  0.00    -0.327 OA
HETATM    5  C5  UNL     1      -4.539   1.254  10.653  1.00  0.00     0.283 C 
HETATM    6  C6  UNL     1      -3.573   0.622  11.636  1.00  0.00     0.229 C 
HETATM    7  O5  UNL     1      -2.985   1.538  12.457  1.00  0.00    -0.373 OA
HETATM    8  C7  UNL     1      -3.822   2.439  13.049  1.00  0.00     0.208 C 
ENDROOT
BRANCH   1   9
HETATM    9  C2  UNL     1      -4.520   2.336  15.500  1.00  0.00     0.145 C 
HETATM   10  C1  UNL     1      -5.728   2.310  16.377  1.00  0.00     0.042 C 
BRANCH   9  11
HETATM   11  O1  UNL     1      -3.602   1.409  16.047  1.00  0.00    -0.393 OA
ATOM     12  H1  UNL     1      -4.104   0.642  16.295  1.00  0.00     0.210 HD
ENDBRANCH   9  11
ENDBRANCH   1   9
BRANCH   5  13
HETATM   13  O4  UNL     1      -5.183   0.209   9.974  1.00  0.00    -0.369 OA
ATOM     14  H4  UNL     1      -4.558  -0.149   9.353  1.00  0.00     0.212 HD
ENDBRANCH   5  13
TORSDOF 3
ENDMDL
