MODEL 1
REMARK VINA RESULT: -8.515190574      0.000      0.000
REMARK  6 active torsions:
REMARK  status: ('A' for Active; 'I' for Inactive)
REMARK    1  A    between atoms: O1_2  and  C2_3 
REMARK    2  A    between atoms: C4_5  and  N1_6 
REMARK    3  A    between atoms: N1_6  and  C5_8 
REMARK    4  A    between atoms: C11_18  and  N4_19 
REMARK       I    between atoms: N4_19  and  C12_21 
REMARK    5  A    between atoms: C16_27  and  O3_28 
REMARK    6  A    between atoms: C18_30  and  O4_31 
ROOT
HETATM    1  C5  UNL     1       9.691  -8.176   8.577  1.00  0.00     0.047 A 
HETATM    2  C6  UNL     1      10.338  -8.495   9.752  1.00  0.00     0.055 A 
HETATM    3  C7  UNL     1       9.701  -8.279  10.981  1.00  0.00     0.008 A 
HETATM    4  C8  UNL     1      10.378  -8.615  12.265  1.00  0.00     0.068 C 
HETATM    5  N2  UNL     1       8.463  -7.763  11.020  1.00  0.00    -0.358 N 
ATOM      6  H2  UNL     1       8.017  -7.614  11.925  1.00  0.00     0.166 HD
HETATM    7  C9  UNL     1       7.793  -7.437   9.901  1.00  0.00     0.060 A 
HETATM    8  C10 UNL     1       6.525  -6.910   9.978  1.00  0.00     0.120 A 
HETATM    9  N3  UNL     1       5.897  -6.600   8.832  1.00  0.00    -0.350 N 
ATOM     10  H3  UNL     1       4.956  -6.208   8.868  1.00  0.00     0.166 HD
HETATM   11  C11 UNL     1       6.490  -6.798   7.622  1.00  0.00     0.109 A 
HETATM   12  C13 UNL     1       7.760  -7.325   7.525  1.00  0.00     0.064 A 
HETATM   13  C14 UNL     1       8.420  -7.649   8.670  1.00  0.00     0.022 A 
ENDROOT
BRANCH   1  14
HETATM   14  N1  UNL     1      10.231  -8.354   7.420  1.00  0.00    -0.355 N 
ATOM     15  H1  UNL     1      10.212  -7.573   6.764  1.00  0.00     0.166 HD
BRANCH  14  16
HETATM   16  C4  UNL     1      10.841  -9.542   6.998  1.00  0.00     0.038 A 
HETATM   17  C3  UNL     1      10.599 -10.133   5.775  1.00  0.00     0.069 A 
HETATM   18  C2  UNL     1      11.210 -11.304   5.377  1.00  0.00     0.106 A 
HETATM   19  C18 UNL     1      12.108 -11.941   6.211  1.00  0.00     0.135 A 
HETATM   20  C16 UNL     1      12.362 -11.367   7.438  1.00  0.00     0.106 A 
HETATM   21  C15 UNL     1      11.740 -10.194   7.817  1.00  0.00     0.069 A 
BRANCH  18  22
HETATM   22  O1  UNL     1      10.927 -11.843   4.141  1.00  0.00    -0.353 OA
HETATM   23  C1  UNL     1       9.837 -12.723   4.011  1.00  0.00     0.210 C 
ENDBRANCH  18  22
BRANCH  19  24
HETATM   24  O4  UNL     1      12.709 -13.120   5.785  1.00  0.00    -0.351 OA
HETATM   25  C19 UNL     1      13.951 -13.129   5.101  1.00  0.00     0.210 C 
ENDBRANCH  19  24
BRANCH  20  26
HETATM   26  O3  UNL     1      13.270 -12.003   8.294  1.00  0.00    -0.353 OA
HETATM   27  C17 UNL     1      14.537 -11.400   8.470  1.00  0.00     0.210 C 
ENDBRANCH  20  26
ENDBRANCH  14  16
ENDBRANCH   1  14
BRANCH  11  28
HETATM   28  N4  UNL     1       5.862  -6.491   6.540  1.00  0.00    -0.297 N 
HETATM   29  C12 UNL     1       4.465  -6.283   6.587  1.00  0.00     0.334 C 
HETATM   30  N5  UNL     1       3.595  -7.376   6.361  1.00  0.00    -0.040 NA
HETATM   31  O2  UNL     1       3.984  -5.152   6.822  1.00  0.00    -0.251 OA
ATOM     32  H4  UNL     1       6.368  -6.400   5.659  1.00  0.00     0.171 HD
ENDBRANCH  11  28
TORSDOF 6
ENDMDL
MODEL 2
REMARK VINA RESULT: -8.508693715      0.052      2.351
REMARK  6 active torsions:
REMARK  status: ('A' for Active; 'I' for Inactive)
REMARK    1  A    between atoms: O1_2  and  C2_3 
REMARK    2  A    between atoms: C4_5  and  N1_6 
REMARK    3  A    between atoms: N1_6  and  C5_8 
REMARK    4  A    between atoms: C11_18  and  N4_19 
REMARK       I    between atoms: N4_19  and  C12_21 
REMARK    5  A    between atoms: C16_27  and  O3_28 
REMARK    6  A    between atoms: C18_30  and  O4_31 
ROOT
HETATM    1  C5  UNL     1       9.699  -8.202   8.580  1.00  0.00     0.047 A 
HETATM    2  C6  UNL     1      10.346  -8.517   9.756  1.00  0.00     0.055 A 
HETATM    3  C7  UNL     1       9.715  -8.285  10.985  1.00  0.00     0.008 A 
HETATM    4  C8  UNL     1      10.392  -8.617  12.270  1.00  0.00     0.068 C 
HETATM    5  N2  UNL     1       8.481  -7.758  11.023  1.00  0.00    -0.358 N 
ATOM      6  H2  UNL     1       8.039  -7.598  11.928  1.00  0.00     0.166 HD
HETATM    7  C9  UNL     1       7.812  -7.435   9.903  1.00  0.00     0.060 A 
HETATM    8  C10 UNL     1       6.548  -6.896   9.979  1.00  0.00     0.120 A 
HETATM    9  N3  UNL     1       5.920  -6.590   8.833  1.00  0.00    -0.350 N 
ATOM     10  H3  UNL     1       4.983  -6.189   8.868  1.00  0.00     0.166 HD
HETATM   11  C11 UNL     1       6.508  -6.803   7.622  1.00  0.00     0.109 A 
HETATM   12  C13 UNL     1       7.773  -7.342   7.527  1.00  0.00     0.064 A 
HETATM   13  C14 UNL     1       8.434  -7.663   8.672  1.00  0.00     0.022 A 
ENDROOT
BRANCH   1  14
HETATM   14  N1  UNL     1      10.235  -8.393   7.423  1.00  0.00    -0.355 N 
ATOM     15  H1  UNL     1      10.198  -7.626   6.752  1.00  0.00     0.166 HD
BRANCH  14  16
HETATM   16  C4  UNL     1      10.862  -9.579   7.021  1.00  0.00     0.038 A 
HETATM   17  C3  UNL     1      11.760 -10.272   7.807  1.00  0.00     0.069 A 
HETATM   18  C2  UNL     1      12.369 -11.439   7.394  1.00  0.00     0.106 A 
HETATM   19  C18 UNL     1      12.092 -11.967   6.148  1.00  0.00     0.135 A 
HETATM   20  C16 UNL     1      11.198 -11.289   5.348  1.00  0.00     0.106 A 
HETATM   21  C15 UNL     1      10.600 -10.122   5.781  1.00  0.00     0.069 A 
BRANCH  18  22
HETATM   22  O1  UNL     1      13.256 -12.085   8.226  1.00  0.00    -0.353 OA
HETATM   23  C1  UNL     1      14.522 -11.516   8.453  1.00  0.00     0.210 C 
ENDBRANCH  18  22
BRANCH  19  24
HETATM   24  O4  UNL     1      12.720 -13.145   5.757  1.00  0.00    -0.351 OA
HETATM   25  C19 UNL     1      13.918 -13.146   4.999  1.00  0.00     0.210 C 
ENDBRANCH  19  24
BRANCH  20  26
HETATM   26  O3  UNL     1      10.909 -11.813   4.081  1.00  0.00    -0.353 OA
HETATM   27  C17 UNL     1       9.836 -12.729   3.981  1.00  0.00     0.210 C 
ENDBRANCH  20  26
ENDBRANCH  14  16
ENDBRANCH   1  14
BRANCH  11  28
HETATM   28  N4  UNL     1       5.880  -6.500   6.540  1.00  0.00    -0.297 N 
HETATM   29  C12 UNL     1       4.483  -6.291   6.586  1.00  0.00     0.334 C 
HETATM   30  N5  UNL     1       3.613  -7.385   6.363  1.00  0.00    -0.040 NA
HETATM   31  O2  UNL     1       4.001  -5.160   6.818  1.00  0.00    -0.251 OA
ATOM     32  H4  UNL     1       6.385  -6.411   5.658  1.00  0.00     0.171 HD
ENDBRANCH  11  28
TORSDOF 6
ENDMDL
MODEL 3
REMARK VINA RESULT: -8.094240709      1.534      3.066
REMARK  6 active torsions:
REMARK  status: ('A' for Active; 'I' for Inactive)
REMARK    1  A    between atoms: O1_2  and  C2_3 
REMARK    2  A    between atoms: C4_5  and  N1_6 
REMARK    3  A    between atoms: N1_6  and  C5_8 
REMARK    4  A    between atoms: C11_18  and  N4_19 
REMARK       I    between atoms: N4_19  and  C12_21 
REMARK    5  A    between atoms: C16_27  and  O3_28 
REMARK    6  A    between atoms: C18_30  and  O4_31 
ROOT
HETATM    1  C5  UNL     1      10.721  -9.153   8.430  1.00  0.00     0.047 A 
HETATM    2  C6  UNL     1      11.942  -9.241   9.064  1.00  0.00     0.055 A 
HETATM    3  C7  UNL     1      12.066  -8.841  10.401  1.00  0.00     0.008 A 
HETATM    4  C8  UNL     1      13.374  -8.926  11.110  1.00  0.00     0.068 C 
HETATM    5  N2  UNL     1      10.999  -8.374  11.069  1.00  0.00    -0.358 N 
ATOM      6  H2  UNL     1      11.110  -8.089  12.042  1.00  0.00     0.166 HD
HETATM    7  C9  UNL     1       9.790  -8.271  10.492  1.00  0.00     0.060 A 
HETATM    8  C10 UNL     1       8.717  -7.787  11.207  1.00  0.00     0.120 A 
HETATM    9  N3  UNL     1       7.530  -7.702  10.587  1.00  0.00    -0.350 N 
ATOM     10  H3  UNL     1       6.723  -7.346  11.100  1.00  0.00     0.166 HD
HETATM   11  C11 UNL     1       7.378  -8.082   9.288  1.00  0.00     0.109 A 
HETATM   12  C13 UNL     1       8.440  -8.569   8.557  1.00  0.00     0.064 A 
HETATM   13  C14 UNL     1       9.657  -8.666   9.159  1.00  0.00     0.022 A 
ENDROOT
BRANCH   1  14
HETATM   14  N1  UNL     1      10.552  -9.506   7.201  1.00  0.00    -0.355 N 
ATOM     15  H1  UNL     1       9.956  -8.918   6.618  1.00  0.00     0.166 HD
BRANCH  14  16
HETATM   16  C4  UNL     1      11.128 -10.637   6.610  1.00  0.00     0.038 A 
HETATM   17  C3  UNL     1      11.917 -11.539   7.296  1.00  0.00     0.069 A 
HETATM   18  C2  UNL     1      12.477 -12.648   6.696  1.00  0.00     0.106 A 
HETATM   19  C18 UNL     1      12.260 -12.900   5.355  1.00  0.00     0.135 A 
HETATM   20  C16 UNL     1      11.476 -12.011   4.653  1.00  0.00     0.106 A 
HETATM   21  C15 UNL     1      10.925 -10.906   5.273  1.00  0.00     0.069 A 
BRANCH  18  22
HETATM   22  O1  UNL     1      13.254 -13.512   7.435  1.00  0.00    -0.353 OA
HETATM   23  C1  UNL     1      14.511 -13.080   7.894  1.00  0.00     0.210 C 
ENDBRANCH  18  22
BRANCH  19  24
HETATM   24  O4  UNL     1      12.836 -14.025   4.777  1.00  0.00    -0.351 OA
HETATM   25  C19 UNL     1      14.115 -13.989   4.166  1.00  0.00     0.210 C 
ENDBRANCH  19  24
BRANCH  20  26
HETATM   26  O3  UNL     1      11.249 -12.254   3.293  1.00  0.00    -0.353 OA
HETATM   27  C17 UNL     1      10.070 -12.951   2.940  1.00  0.00     0.210 C 
ENDBRANCH  20  26
ENDBRANCH  14  16
ENDBRANCH   1  14
BRANCH  11  28
HETATM   28  N4  UNL     1       6.225  -7.990   8.722  1.00  0.00    -0.297 N 
HETATM   29  C12 UNL     1       5.689  -6.712   8.447  1.00  0.00     0.334 C 
HETATM   30  N5  UNL     1       4.868  -6.084   9.415  1.00  0.00    -0.040 NA
HETATM   31  O2  UNL     1       5.924  -6.126   7.367  1.00  0.00    -0.251 OA
ATOM     32  H4  UNL     1       5.704  -8.832   8.474  1.00  0.00     0.171 HD
ENDBRANCH  11  28
TORSDOF 6
ENDMDL
MODEL 4
REMARK VINA RESULT: -8.074953841      1.543      2.038
REMARK  6 active torsions:
REMARK  status: ('A' for Active; 'I' for Inactive)
REMARK    1  A    between atoms: O1_2  and  C2_3 
REMARK    2  A    between atoms: C4_5  and  N1_6 
REMARK    3  A    between atoms: N1_6  and  C5_8 
REMARK    4  A    between atoms: C11_18  and  N4_19 
REMARK       I    between atoms: N4_19  and  C12_21 
REMARK    5  A    between atoms: C16_27  and  O3_28 
REMARK    6  A    between atoms: C18_30  and  O4_31 
ROOT
HETATM    1  C5  UNL     1      10.766  -9.100   8.383  1.00  0.00     0.047 A 
HETATM    2  C6  UNL     1      12.004  -9.174   8.986  1.00  0.00     0.055 A 
HETATM    3  C7  UNL     1      12.156  -8.780  10.322  1.00  0.00     0.008 A 
HETATM    4  C8  UNL     1      13.482  -8.849  10.996  1.00  0.00     0.068 C 
HETATM    5  N2  UNL     1      11.100  -8.330  11.018  1.00  0.00    -0.358 N 
ATOM      6  H2  UNL     1      11.231  -8.049  11.989  1.00  0.00     0.166 HD
HETATM    7  C9  UNL     1       9.875  -8.241  10.473  1.00  0.00     0.060 A 
HETATM    8  C10 UNL     1       8.814  -7.776  11.217  1.00  0.00     0.120 A 
HETATM    9  N3  UNL     1       7.610  -7.705  10.628  1.00  0.00    -0.350 N 
ATOM     10  H3  UNL     1       6.812  -7.363  11.163  1.00  0.00     0.166 HD
HETATM   11  C11 UNL     1       7.431  -8.080   9.331  1.00  0.00     0.109 A 
HETATM   12  C13 UNL     1       8.481  -8.549   8.571  1.00  0.00     0.064 A 
HETATM   13  C14 UNL     1       9.714  -8.632   9.141  1.00  0.00     0.022 A 
ENDROOT
BRANCH   1  14
HETATM   14  N1  UNL     1      10.571  -9.449   7.157  1.00  0.00    -0.355 N 
ATOM     15  H1  UNL     1       9.971  -8.854   6.586  1.00  0.00     0.166 HD
BRANCH  14  16
HETATM   16  C4  UNL     1      11.124 -10.586   6.554  1.00  0.00     0.038 A 
HETATM   17  C3  UNL     1      10.984 -10.884   5.214  1.00  0.00     0.069 A 
HETATM   18  C2  UNL     1      11.536 -12.008   4.637  1.00  0.00     0.106 A 
HETATM   19  C18 UNL     1      12.267 -12.897   5.402  1.00  0.00     0.135 A 
HETATM   20  C16 UNL     1      12.418 -12.617   6.743  1.00  0.00     0.106 A 
HETATM   21  C15 UNL     1      11.856 -11.485   7.300  1.00  0.00     0.069 A 
BRANCH  18  22
HETATM   22  O1  UNL     1      11.361 -12.250   3.292  1.00  0.00    -0.353 OA
HETATM   23  C1  UNL     1      10.152 -12.815   2.849  1.00  0.00     0.210 C 
ENDBRANCH  18  22
BRANCH  19  24
HETATM   24  O4  UNL     1      12.813 -14.023   4.795  1.00  0.00    -0.351 OA
HETATM   25  C19 UNL     1      14.130 -14.034   4.272  1.00  0.00     0.210 C 
ENDBRANCH  19  24
BRANCH  20  26
HETATM   26  O3  UNL     1      13.156 -13.510   7.530  1.00  0.00    -0.353 OA
HETATM   27  C17 UNL     1      14.351 -13.032   8.117  1.00  0.00     0.210 C 
ENDBRANCH  20  26
ENDBRANCH  14  16
ENDBRANCH   1  14
BRANCH  11  28
HETATM   28  N4  UNL     1       6.263  -8.002   8.794  1.00  0.00    -0.297 N 
HETATM   29  C12 UNL     1       5.711  -6.730   8.520  1.00  0.00     0.334 C 
HETATM   30  N5  UNL     1       4.912  -6.097   9.502  1.00  0.00    -0.040 NA
HETATM   31  O2  UNL     1       5.914  -6.154   7.428  1.00  0.00    -0.251 OA
ATOM     32  H4  UNL     1       5.741  -8.849   8.569  1.00  0.00     0.171 HD
ENDBRANCH  11  28
TORSDOF 6
ENDMDL
MODEL 5
REMARK VINA RESULT: -7.841789801      3.326      8.124
REMARK  6 active torsions:
REMARK  status: ('A' for Active; 'I' for Inactive)
REMARK    1  A    between atoms: O1_2  and  C2_3 
REMARK    2  A    between atoms: C4_5  and  N1_6 
REMARK    3  A    between atoms: N1_6  and  C5_8 
REMARK    4  A    between atoms: C11_18  and  N4_19 
REMARK       I    between atoms: N4_19  and  C12_21 
REMARK    5  A    between atoms: C16_27  and  O3_28 
REMARK    6  A    between atoms: C18_30  and  O4_31 
ROOT
HETATM    1  C5  UNL     1      11.235  -9.440   6.754  1.00  0.00     0.047 A 
HETATM    2  C6  UNL     1      10.766 -10.288   5.773  1.00  0.00     0.055 A 
HETATM    3  C7  UNL     1      11.295 -11.580   5.655  1.00  0.00     0.008 A 
HETATM    4  C8  UNL     1      10.806 -12.516   4.604  1.00  0.00     0.068 C 
HETATM    5  N2  UNL     1      12.256 -11.997   6.494  1.00  0.00    -0.358 N 
ATOM      6  H2  UNL     1      12.627 -12.941   6.391  1.00  0.00     0.166 HD
HETATM    7  C9  UNL     1      12.744 -11.206   7.465  1.00  0.00     0.060 A 
HETATM    8  C10 UNL     1      13.730 -11.666   8.307  1.00  0.00     0.120 A 
HETATM    9  N3  UNL     1      14.185 -10.838   9.261  1.00  0.00    -0.350 N 
ATOM     10  H3  UNL     1      14.916 -11.161   9.895  1.00  0.00     0.166 HD
HETATM   11  C11 UNL     1      13.691  -9.576   9.401  1.00  0.00     0.109 A 
HETATM   12  C13 UNL     1      12.703  -9.099   8.567  1.00  0.00     0.064 A 
HETATM   13  C14 UNL     1      12.223  -9.915   7.590  1.00  0.00     0.022 A 
ENDROOT
BRANCH   1  14
HETATM   14  N1  UNL     1      10.784  -8.242   6.906  1.00  0.00    -0.355 N 
ATOM     15  H1  UNL     1      11.227  -7.498   6.366  1.00  0.00     0.166 HD
BRANCH  14  16
HETATM   16  C4  UNL     1       9.730  -7.888   7.758  1.00  0.00     0.038 A 
HETATM   17  C3  UNL     1       9.678  -8.236   9.092  1.00  0.00     0.069 A 
HETATM   18  C2  UNL     1       8.631  -7.879   9.917  1.00  0.00     0.106 A 
HETATM   19  C18 UNL     1       7.573  -7.141   9.421  1.00  0.00     0.135 A 
HETATM   20  C16 UNL     1       7.607  -6.784   8.090  1.00  0.00     0.106 A 
HETATM   21  C15 UNL     1       8.665  -7.153   7.282  1.00  0.00     0.069 A 
BRANCH  18  22
HETATM   22  O1  UNL     1       8.637  -8.256  11.241  1.00  0.00    -0.353 OA
HETATM   23  C1  UNL     1       9.842  -8.686  11.825  1.00  0.00     0.210 C 
ENDBRANCH  18  22
BRANCH  19  24
HETATM   24  O4  UNL     1       6.532  -6.795  10.274  1.00  0.00    -0.351 OA
HETATM   25  C19 UNL     1       5.209  -7.267  10.080  1.00  0.00     0.210 C 
ENDBRANCH  19  24
BRANCH  20  26
HETATM   26  O3  UNL     1       6.541  -6.037   7.575  1.00  0.00    -0.353 OA
HETATM   27  C17 UNL     1       5.577  -6.721   6.798  1.00  0.00     0.210 C 
ENDBRANCH  20  26
ENDBRANCH  14  16
ENDBRANCH   1  14
BRANCH  11  28
HETATM   28  N4  UNL     1      14.147  -8.806  10.327  1.00  0.00    -0.297 N 
HETATM   29  C12 UNL     1      15.197  -9.265  11.153  1.00  0.00     0.334 C 
HETATM   30  N5  UNL     1      14.884  -9.937  12.360  1.00  0.00    -0.040 NA
HETATM   31  O2  UNL     1      16.396  -9.088  10.842  1.00  0.00    -0.251 OA
ATOM     32  H4  UNL     1      13.754  -7.874  10.462  1.00  0.00     0.171 HD
ENDBRANCH  11  28
TORSDOF 6
ENDMDL
