MODEL 1
REMARK VINA RESULT: -9.291269841      0.000      0.000
REMARK  5 active torsions:
REMARK  status: ('A' for Active; 'I' for Inactive)
REMARK    1  A    between atoms: C2_2  and  C3_3 
REMARK    2  A    between atoms: N2_8  and  C6_10 
REMARK    3  A    between atoms: C9_13  and  N3_14 
REMARK    4  A    between atoms: C13_18  and  N4_19 
REMARK    5  A    between atoms: N4_19  and  C14_20 
ROOT
HETATM    1  C3  UNL     1      12.005  -9.419   8.714  1.00  0.00    -0.002 A 
HETATM    2  C4  UNL     1      13.120 -10.084   8.334  1.00  0.00     0.100 A 
HETATM    3  N1  UNL     1      13.105 -11.050   7.413  1.00  0.00    -0.352 N 
ATOM      4  H1  UNL     1      13.987 -11.508   7.180  1.00  0.00     0.166 HD
HETATM    5  C5  UNL     1      11.993 -11.453   6.777  1.00  0.00     0.104 A 
HETATM    6  N2  UNL     1      11.947 -12.365   5.934  1.00  0.00    -0.370 N 
ATOM      7  H2  UNL     1      10.980 -12.449   5.620  1.00  0.00     0.161 HD
HETATM    8  C12 UNL     1      10.843 -10.779   7.154  1.00  0.00     0.093 A 
HETATM    9  C13 UNL     1      10.788  -9.755   8.114  1.00  0.00     0.122 A 
ENDROOT
BRANCH   9  10
HETATM   10  N4  UNL     1       9.682  -9.124   8.444  1.00  0.00    -0.370 NA
BRANCH  10  11
HETATM   11  C14 UNL     1       8.671  -8.552   8.742  1.00  0.00     0.259 A 
HETATM   12  N5  UNL     1       8.160  -8.529  10.013  1.00  0.00    -0.326 N 
HETATM   13  C15 UNL     1       7.071  -7.925  10.414  1.00  0.00     0.103 A 
ATOM     14  H5  UNL     1       8.686  -9.038  10.724  1.00  0.00     0.169 HD
HETATM   15  C16 UNL     1       6.344  -7.227   9.454  1.00  0.00     0.005 A 
HETATM   16  C17 UNL     1       6.802  -7.209   8.158  1.00  0.00     0.022 A 
HETATM   17  C21 UNL     1       5.143  -6.581  10.041  1.00  0.00     0.274 C 
HETATM   18  N6  UNL     1       7.921  -7.848   7.818  1.00  0.00    -0.319 N 
HETATM   19  C18 UNL     1       6.154  -6.505   7.001  1.00  0.00     0.059 C 
ATOM     20  H6  UNL     1       8.233  -7.816   6.848  1.00  0.00     0.170 HD
HETATM   21  C19 UNL     1       4.673  -6.791   6.925  1.00  0.00     0.033 C 
HETATM   22  C20 UNL     1       3.894  -6.192   8.077  1.00  0.00     0.233 C 
HETATM   23  N7  UNL     1       3.991  -7.002   9.266  1.00  0.00    -0.071 N 
ATOM     24  H72 UNL     1       3.131  -6.990   9.814  1.00  0.00     0.277 HD
ATOM     25  H71 UNL     1       4.012  -8.000   9.054  1.00  0.00     0.277 HD
ENDBRANCH  10  11
ENDBRANCH   9  10
BRANCH   1  26
HETATM   26  C2  UNL     1      12.118  -8.387   9.799  1.00  0.00     0.039 C 
HETATM   27  C1  UNL     1      13.158  -8.848  10.796  1.00  0.00     0.010 C 
ENDBRANCH   1  26
BRANCH   6  28
HETATM   28  C6  UNL     1      12.685 -13.303   5.261  1.00  0.00     0.105 C 
HETATM   29  C7  UNL     1      12.202 -14.082   4.092  1.00  0.00     0.029 C 
HETATM   30  C8  UNL     1      13.090 -13.310   3.127  1.00  0.00     0.029 C 
HETATM   31  C9  UNL     1      13.801 -12.729   4.339  1.00  0.00     0.101 C 
BRANCH  31  32
HETATM   32  N3  UNL     1      15.098 -13.182   4.576  1.00  0.00    -0.415 N 
HETATM   33  C10 UNL     1      15.903 -13.715   3.575  1.00  0.00     0.143 C 
HETATM   34  C11 UNL     1      15.803 -12.589   5.647  1.00  0.00     0.143 C 
ENDBRANCH  31  32
ENDBRANCH   6  28
TORSDOF 5
ENDMDL
MODEL 2
REMARK VINA RESULT: -9.164002804      1.063      1.211
REMARK  5 active torsions:
REMARK  status: ('A' for Active; 'I' for Inactive)
REMARK    1  A    between atoms: C2_2  and  C3_3 
REMARK    2  A    between atoms: N2_8  and  C6_10 
REMARK    3  A    between atoms: C9_13  and  N3_14 
REMARK    4  A    between atoms: C13_18  and  N4_19 
REMARK    5  A    between atoms: N4_19  and  C14_20 
ROOT
HETATM    1  C3  UNL     1      12.027  -9.329   8.730  1.00  0.00    -0.002 A 
HETATM    2  C4  UNL     1      13.152  -9.981   8.356  1.00  0.00     0.100 A 
HETATM    3  N1  UNL     1      13.148 -10.968   7.457  1.00  0.00    -0.352 N 
ATOM      4  H1  UNL     1      14.037 -11.414   7.227  1.00  0.00     0.166 HD
HETATM    5  C5  UNL     1      12.039 -11.406   6.839  1.00  0.00     0.104 A 
HETATM    6  N2  UNL     1      12.005 -12.337   6.017  1.00  0.00    -0.370 N 
ATOM      7  H2  UNL     1      11.037 -12.446   5.713  1.00  0.00     0.161 HD
HETATM    8  C12 UNL     1      10.879 -10.745   7.210  1.00  0.00     0.093 A 
HETATM    9  C13 UNL     1      10.813  -9.701   8.147  1.00  0.00     0.122 A 
ENDROOT
BRANCH   9  10
HETATM   10  N4  UNL     1       9.697  -9.084   8.471  1.00  0.00    -0.370 NA
BRANCH  10  11
HETATM   11  C14 UNL     1       8.678  -8.523   8.763  1.00  0.00     0.259 A 
HETATM   12  N5  UNL     1       8.154  -8.513  10.028  1.00  0.00    -0.326 N 
HETATM   13  C15 UNL     1       7.055  -7.921  10.422  1.00  0.00     0.103 A 
ATOM     14  H5  UNL     1       8.677  -9.022  10.741  1.00  0.00     0.169 HD
HETATM   15  C16 UNL     1       6.332  -7.223   9.458  1.00  0.00     0.005 A 
HETATM   16  C17 UNL     1       6.803  -7.193   8.168  1.00  0.00     0.022 A 
HETATM   17  C21 UNL     1       5.119  -6.591  10.037  1.00  0.00     0.274 C 
HETATM   18  N6  UNL     1       7.931  -7.819   7.835  1.00  0.00    -0.319 N 
HETATM   19  C18 UNL     1       6.162  -6.487   7.008  1.00  0.00     0.059 C 
ATOM     20  H6  UNL     1       8.253  -7.778   6.869  1.00  0.00     0.170 HD
HETATM   21  C19 UNL     1       4.683  -6.786   6.915  1.00  0.00     0.033 C 
HETATM   22  C20 UNL     1       3.887  -6.201   8.062  1.00  0.00     0.233 C 
HETATM   23  N7  UNL     1       3.979  -7.018   9.247  1.00  0.00    -0.071 N 
ATOM     24  H72 UNL     1       3.113  -7.016   9.786  1.00  0.00     0.277 HD
ATOM     25  H71 UNL     1       4.011  -8.014   9.029  1.00  0.00     0.277 HD
ENDBRANCH  10  11
ENDBRANCH   9  10
BRANCH   1  26
HETATM   26  C2  UNL     1      12.129  -8.271   9.790  1.00  0.00     0.039 C 
HETATM   27  C1  UNL     1      13.164  -8.703  10.805  1.00  0.00     0.010 C 
ENDBRANCH   1  26
BRANCH   6  28
HETATM   28  C6  UNL     1      12.756 -13.276   5.359  1.00  0.00     0.105 C 
HETATM   29  C7  UNL     1      13.464 -13.045   4.074  1.00  0.00     0.029 C 
HETATM   30  C8  UNL     1      14.828 -13.048   4.750  1.00  0.00     0.029 C 
HETATM   31  C9  UNL     1      14.142 -13.581   5.998  1.00  0.00     0.101 C 
BRANCH  31  32
HETATM   32  N3  UNL     1      14.396 -14.911   6.329  1.00  0.00    -0.415 N 
HETATM   33  C10 UNL     1      15.288 -15.705   5.615  1.00  0.00     0.143 C 
HETATM   34  C11 UNL     1      14.221 -15.286   7.679  1.00  0.00     0.143 C 
ENDBRANCH  31  32
ENDBRANCH   6  28
TORSDOF 5
ENDMDL
MODEL 3
REMARK VINA RESULT: -8.941828816      1.100      1.779
REMARK  5 active torsions:
REMARK  status: ('A' for Active; 'I' for Inactive)
REMARK    1  A    between atoms: C2_2  and  C3_3 
REMARK    2  A    between atoms: N2_8  and  C6_10 
REMARK    3  A    between atoms: C9_13  and  N3_14 
REMARK    4  A    between atoms: C13_18  and  N4_19 
REMARK    5  A    between atoms: N4_19  and  C14_20 
ROOT
HETATM    1  C3  UNL     1      11.667 -10.066   8.969  1.00  0.00    -0.002 A 
HETATM    2  C4  UNL     1      12.763 -10.751   8.568  1.00  0.00     0.100 A 
HETATM    3  N1  UNL     1      12.864 -11.307   7.359  1.00  0.00    -0.352 N 
ATOM      4  H1  UNL     1      13.722 -11.809   7.129  1.00  0.00     0.166 HD
HETATM    5  C5  UNL     1      11.898 -11.241   6.428  1.00  0.00     0.104 A 
HETATM    6  N2  UNL     1      11.957 -11.769   5.305  1.00  0.00    -0.370 N 
ATOM      7  H2  UNL     1      11.088 -11.552   4.815  1.00  0.00     0.161 HD
HETATM    8  C12 UNL     1      10.770 -10.540   6.823  1.00  0.00     0.093 A 
HETATM    9  C13 UNL     1      10.599  -9.933   8.078  1.00  0.00     0.122 A 
ENDROOT
BRANCH   9  10
HETATM   10  N4  UNL     1       9.519  -9.263   8.422  1.00  0.00    -0.370 NA
BRANCH  10  11
HETATM   11  C14 UNL     1       8.536  -8.651   8.731  1.00  0.00     0.259 A 
HETATM   12  N5  UNL     1       8.036  -8.612  10.005  1.00  0.00    -0.326 N 
HETATM   13  C15 UNL     1       6.976  -7.965  10.417  1.00  0.00     0.103 A 
ATOM     14  H5  UNL     1       8.545  -9.147  10.709  1.00  0.00     0.169 HD
HETATM   15  C16 UNL     1       6.273  -7.232   9.466  1.00  0.00     0.005 A 
HETATM   16  C17 UNL     1       6.721  -7.227   8.167  1.00  0.00     0.022 A 
HETATM   17  C21 UNL     1       5.104  -6.538  10.066  1.00  0.00     0.274 C 
HETATM   18  N6  UNL     1       7.810  -7.910   7.815  1.00  0.00    -0.319 N 
HETATM   19  C18 UNL     1       6.096  -6.489   7.018  1.00  0.00     0.059 C 
ATOM     20  H6  UNL     1       8.116  -7.887   6.843  1.00  0.00     0.170 HD
HETATM   21  C19 UNL     1       4.603  -6.712   6.952  1.00  0.00     0.033 C 
HETATM   22  C20 UNL     1       3.859  -6.086   8.113  1.00  0.00     0.233 C 
HETATM   23  N7  UNL     1       3.930  -6.906   9.297  1.00  0.00    -0.071 N 
ATOM     24  H72 UNL     1       3.075  -6.859   9.851  1.00  0.00     0.277 HD
ATOM     25  H71 UNL     1       3.907  -7.902   9.080  1.00  0.00     0.277 HD
ENDBRANCH  10  11
ENDBRANCH   9  10
BRANCH   1  26
HETATM   26  C2  UNL     1      11.629  -9.527  10.369  1.00  0.00     0.039 C 
HETATM   27  C1  UNL     1      12.381  -8.215  10.402  1.00  0.00     0.010 C 
ENDBRANCH   1  26
BRANCH   6  28
HETATM   28  C6  UNL     1      12.729 -12.528   4.465  1.00  0.00     0.105 C 
HETATM   29  C7  UNL     1      13.844 -13.408   4.903  1.00  0.00     0.029 C 
HETATM   30  C8  UNL     1      13.046 -14.672   4.620  1.00  0.00     0.029 C 
HETATM   31  C9  UNL     1      12.033 -13.798   3.894  1.00  0.00     0.101 C 
BRANCH  31  32
HETATM   32  N3  UNL     1      11.992 -13.915   2.506  1.00  0.00    -0.415 N 
HETATM   33  C10 UNL     1      12.493 -15.022   1.829  1.00  0.00     0.143 C 
HETATM   34  C11 UNL     1      10.959 -13.227   1.831  1.00  0.00     0.143 C 
ENDBRANCH  31  32
ENDBRANCH   6  28
TORSDOF 5
ENDMDL
MODEL 4
REMARK VINA RESULT: -8.935168820      2.952      9.631
REMARK  5 active torsions:
REMARK  status: ('A' for Active; 'I' for Inactive)
REMARK    1  A    between atoms: C2_2  and  C3_3 
REMARK    2  A    between atoms: N2_8  and  C6_10 
REMARK    3  A    between atoms: C9_13  and  N3_14 
REMARK    4  A    between atoms: C13_18  and  N4_19 
REMARK    5  A    between atoms: N4_19  and  C14_20 
ROOT
HETATM    1  C3  UNL     1       6.421  -7.126   9.605  1.00  0.00    -0.002 A 
HETATM    2  C4  UNL     1       5.134  -6.709   9.617  1.00  0.00     0.100 A 
HETATM    3  N1  UNL     1       4.435  -6.494   8.500  1.00  0.00    -0.352 N 
ATOM      4  H1  UNL     1       3.468  -6.179   8.589  1.00  0.00     0.166 HD
HETATM    5  C5  UNL     1       4.935  -6.670   7.266  1.00  0.00     0.104 A 
HETATM    6  N2  UNL     1       4.314  -6.454   6.211  1.00  0.00    -0.370 N 
ATOM      7  H2  UNL     1       4.938  -6.676   5.434  1.00  0.00     0.161 HD
HETATM    8  C12 UNL     1       6.252  -7.099   7.238  1.00  0.00     0.093 A 
HETATM    9  C13 UNL     1       7.042  -7.344   8.373  1.00  0.00     0.122 A 
ENDROOT
BRANCH   9  10
HETATM   10  N4  UNL     1       8.288  -7.763   8.316  1.00  0.00    -0.370 NA
BRANCH  10  11
HETATM   11  C14 UNL     1       9.423  -8.148   8.266  1.00  0.00     0.259 A 
HETATM   12  N5  UNL     1       9.953  -8.811   7.192  1.00  0.00    -0.326 N 
HETATM   13  C15 UNL     1      11.177  -9.254   7.064  1.00  0.00     0.103 A 
ATOM     14  H5  UNL     1       9.324  -8.977   6.405  1.00  0.00     0.169 HD
HETATM   15  C16 UNL     1      12.044  -9.033   8.129  1.00  0.00     0.005 A 
HETATM   16  C17 UNL     1      11.577  -8.372   9.240  1.00  0.00     0.022 A 
HETATM   17  C21 UNL     1      13.400  -9.572   7.851  1.00  0.00     0.274 C 
HETATM   18  N6  UNL     1      10.316  -7.947   9.304  1.00  0.00    -0.319 N 
HETATM   19  C18 UNL     1      12.370  -8.041  10.471  1.00  0.00     0.059 C 
ATOM     20  H6  UNL     1      10.000  -7.461  10.142  1.00  0.00     0.170 HD
HETATM   21  C19 UNL     1      13.143  -9.235  10.981  1.00  0.00     0.033 C 
HETATM   22  C20 UNL     1      14.257  -9.662  10.048  1.00  0.00     0.233 C 
HETATM   23  N7  UNL     1      13.760 -10.451   8.948  1.00  0.00    -0.071 N 
ATOM     24  H72 UNL     1      14.419 -11.176   8.664  1.00  0.00     0.277 HD
ATOM     25  H71 UNL     1      12.988 -11.058   9.226  1.00  0.00     0.277 HD
ENDBRANCH  10  11
ENDBRANCH   9  10
BRANCH   1  26
HETATM   26  C2  UNL     1       7.136  -7.285  10.915  1.00  0.00     0.039 C 
HETATM   27  C1  UNL     1       7.374  -8.759  11.159  1.00  0.00     0.010 C 
ENDBRANCH   1  26
BRANCH   6  28
HETATM   28  C6  UNL     1       3.122  -6.035   5.680  1.00  0.00     0.105 C 
HETATM   29  C7  UNL     1       1.784  -6.411   6.204  1.00  0.00     0.029 C 
HETATM   30  C8  UNL     1       1.537  -5.017   6.762  1.00  0.00     0.029 C 
HETATM   31  C9  UNL     1       2.753  -4.552   5.974  1.00  0.00     0.101 C 
BRANCH  31  32
HETATM   32  N3  UNL     1       2.505  -3.742   4.867  1.00  0.00    -0.415 N 
HETATM   33  C10 UNL     1       2.016  -2.444   4.979  1.00  0.00     0.143 C 
HETATM   34  C11 UNL     1       3.268  -3.986   3.703  1.00  0.00     0.143 C 
ENDBRANCH  31  32
ENDBRANCH   6  28
TORSDOF 5
ENDMDL
MODEL 5
REMARK VINA RESULT: -8.755603015      2.939      9.523
REMARK  5 active torsions:
REMARK  status: ('A' for Active; 'I' for Inactive)
REMARK    1  A    between atoms: C2_2  and  C3_3 
REMARK    2  A    between atoms: N2_8  and  C6_10 
REMARK    3  A    between atoms: C9_13  and  N3_14 
REMARK    4  A    between atoms: C13_18  and  N4_19 
REMARK    5  A    between atoms: N4_19  and  C14_20 
ROOT
HETATM    1  C3  UNL     1       6.262  -7.161   9.589  1.00  0.00    -0.002 A 
HETATM    2  C4  UNL     1       4.985  -6.716   9.631  1.00  0.00     0.100 A 
HETATM    3  N1  UNL     1       4.332  -6.294   8.546  1.00  0.00    -0.352 N 
ATOM      4  H1  UNL     1       3.371  -5.971   8.657  1.00  0.00     0.166 HD
HETATM    5  C5  UNL     1       4.871  -6.272   7.316  1.00  0.00     0.104 A 
HETATM    6  N2  UNL     1       4.294  -5.863   6.295  1.00  0.00    -0.370 N 
ATOM      7  H2  UNL     1       4.939  -5.968   5.511  1.00  0.00     0.161 HD
HETATM    8  C12 UNL     1       6.178  -6.729   7.256  1.00  0.00     0.093 A 
HETATM    9  C13 UNL     1       6.922  -7.185   8.357  1.00  0.00     0.122 A 
ENDROOT
BRANCH   9  10
HETATM   10  N4  UNL     1       8.159  -7.624   8.268  1.00  0.00    -0.370 NA
BRANCH  10  11
HETATM   11  C14 UNL     1       9.286  -8.026   8.191  1.00  0.00     0.259 A 
HETATM   12  N5  UNL     1       9.798  -8.639   7.079  1.00  0.00    -0.326 N 
HETATM   13  C15 UNL     1      11.014  -9.096   6.920  1.00  0.00     0.103 A 
ATOM     14  H5  UNL     1       9.163  -8.750   6.288  1.00  0.00     0.169 HD
HETATM   15  C16 UNL     1      11.890  -8.950   7.991  1.00  0.00     0.005 A 
HETATM   16  C17 UNL     1      11.440  -8.343   9.139  1.00  0.00     0.022 A 
HETATM   17  C21 UNL     1      13.235  -9.497   7.675  1.00  0.00     0.274 C 
HETATM   18  N6  UNL     1      10.188  -7.899   9.233  1.00  0.00    -0.319 N 
HETATM   19  C18 UNL     1      12.245  -8.094  10.382  1.00  0.00     0.059 C 
ATOM     20  H6  UNL     1       9.884  -7.454  10.099  1.00  0.00     0.170 HD
HETATM   21  C19 UNL     1      12.998  -9.329  10.820  1.00  0.00     0.033 C 
HETATM   22  C20 UNL     1      14.100  -9.723   9.859  1.00  0.00     0.233 C 
HETATM   23  N7  UNL     1      13.583 -10.441   8.720  1.00  0.00    -0.071 N 
ATOM     24  H72 UNL     1      14.227 -11.161   8.393  1.00  0.00     0.277 HD
ATOM     25  H71 UNL     1      12.802 -11.049   8.968  1.00  0.00     0.277 HD
ENDBRANCH  10  11
ENDBRANCH   9  10
BRANCH   1  26
HETATM   26  C2  UNL     1       6.927  -7.561  10.874  1.00  0.00     0.039 C 
HETATM   27  C1  UNL     1       7.223  -9.043  10.824  1.00  0.00     0.010 C 
ENDBRANCH   1  26
BRANCH   6  28
HETATM   28  C6  UNL     1       3.131  -5.326   5.807  1.00  0.00     0.105 C 
HETATM   29  C7  UNL     1       2.953  -3.903   5.418  1.00  0.00     0.029 C 
HETATM   30  C8  UNL     1       2.918  -4.243   3.936  1.00  0.00     0.029 C 
HETATM   31  C9  UNL     1       2.795  -5.706   4.335  1.00  0.00     0.101 C 
BRANCH  31  32
HETATM   32  N3  UNL     1       1.557  -6.309   4.116  1.00  0.00    -0.415 N 
HETATM   33  C10 UNL     1       0.669  -5.868   3.139  1.00  0.00     0.143 C 
HETATM   34  C11 UNL     1       1.436  -7.676   4.450  1.00  0.00     0.143 C 
ENDBRANCH  31  32
ENDBRANCH   6  28
TORSDOF 5
ENDMDL
