MODEL 1
REMARK VINA RESULT: -6.421061836      0.000      0.000
REMARK  11 active torsions:
REMARK  status: ('A' for Active; 'I' for Inactive)
REMARK    1  A    between atoms: O1_1  and  C1_3 
REMARK    2  A    between atoms: C3_6  and  O3_7 
REMARK    3  A    between atoms: O3_7  and  C4_8 
REMARK    4  A    between atoms: C4_8  and  C5_9 
REMARK    5  A    between atoms: C5_9  and  C6_10 
REMARK    6  A    between atoms: C6_10  and  C7_11 
REMARK    7  A    between atoms: C7_11  and  C8_12 
REMARK    8  A    between atoms: C8_12  and  C9_13 
REMARK    9  A    between atoms: C9_13  and  C10_14 
REMARK   10  A    between atoms: C16_23  and  O5_24 
REMARK   11  A    between atoms: C17_26  and  O6_27 
ROOT
HETATM    1  C4  UNL     1       8.258   1.515  -2.661  1.00  0.00     0.171 C 
ENDROOT
BRANCH   1   2
HETATM    2  O3  UNL     1       8.401   2.036  -1.383  1.00  0.00    -0.359 OA
BRANCH   2   3
HETATM    3  C3  UNL     1       9.703   1.827  -0.959  1.00  0.00     0.290 C 
HETATM    4  O2  UNL     1      10.053   0.503  -1.213  1.00  0.00    -0.356 OA
HETATM    5  C2  UNL     1      11.324   0.190  -0.788  1.00  0.00     0.205 C 
HETATM    6  C1  UNL     1      12.079   1.364  -0.211  1.00  0.00     0.173 C 
HETATM    7  C17 UNL     1      11.297   1.973   0.912  1.00  0.00     0.182 C 
HETATM    8  C16 UNL     1       9.857   2.069   0.530  1.00  0.00     0.204 C 
BRANCH   6   9
HETATM    9  O1  UNL     1      13.302   0.860   0.258  1.00  0.00    -0.391 OA
ATOM     10  H1  UNL     1      13.980   1.422  -0.100  1.00  0.00     0.210 HD
ENDBRANCH   6   9
BRANCH   7  11
HETATM   11  O6  UNL     1      11.775   3.282   1.122  1.00  0.00    -0.390 OA
ATOM     12  H6  UNL     1      12.628   3.356   0.709  1.00  0.00     0.210 HD
ENDBRANCH   7  11
BRANCH   8  13
HETATM   13  O5  UNL     1       9.047   1.162   1.242  1.00  0.00    -0.388 OA
ATOM     14  H5  UNL     1       9.331   0.273   1.062  1.00  0.00     0.210 HD
ENDBRANCH   8  13
ENDBRANCH   2   3
ENDBRANCH   1   2
BRANCH   1  15
HETATM   15  C5  UNL     1       6.974   1.952  -3.317  1.00  0.00     0.026 C 
BRANCH  15  16
HETATM   16  C6  UNL     1       6.796   1.312  -4.668  1.00  0.00     0.002 C 
BRANCH  16  17
HETATM   17  C7  UNL     1       5.542   0.502  -4.772  1.00  0.00     0.000 C 
BRANCH  17  18
HETATM   18  C8  UNL     1       5.749  -0.959  -4.501  1.00  0.00     0.006 C 
BRANCH  18  19
HETATM   19  C9  UNL     1       5.541  -1.286  -3.054  1.00  0.00     0.052 C 
BRANCH  19  20
HETATM   20  C10 UNL     1       6.861  -1.774  -2.509  1.00  0.00    -0.011 C 
HETATM   21  N1  UNL     1       7.800  -2.313  -3.172  1.00  0.00    -0.395 N 
HETATM   22  C11 UNL     1       8.922  -2.661  -2.337  1.00  0.00     0.126 C 
ATOM     23  H1  UNL     1       7.765  -2.481  -4.178  1.00  0.00     0.159 HD
HETATM   24  C12 UNL     1       8.354  -2.649  -0.935  1.00  0.00     0.039 C 
HETATM   25  C13 UNL     1       7.581  -3.932  -0.631  1.00  0.00     0.174 C 
HETATM   26  C15 UNL     1       7.216  -1.667  -1.086  1.00  0.00     0.062 C 
HETATM   27  O4  UNL     1       6.671  -3.441   0.332  1.00  0.00    -0.390 OA
HETATM   28  C14 UNL     1       6.169  -2.272  -0.177  1.00  0.00     0.178 C 
ENDBRANCH  19  20
ENDBRANCH  18  19
ENDBRANCH  17  18
ENDBRANCH  16  17
ENDBRANCH  15  16
ENDBRANCH   1  15
TORSDOF 11
ENDMDL
MODEL 2
REMARK VINA RESULT: -6.252824901      1.079      1.541
REMARK  11 active torsions:
REMARK  status: ('A' for Active; 'I' for Inactive)
REMARK    1  A    between atoms: O1_1  and  C1_3 
REMARK    2  A    between atoms: C3_6  and  O3_7 
REMARK    3  A    between atoms: O3_7  and  C4_8 
REMARK    4  A    between atoms: C4_8  and  C5_9 
REMARK    5  A    between atoms: C5_9  and  C6_10 
REMARK    6  A    between atoms: C6_10  and  C7_11 
REMARK    7  A    between atoms: C7_11  and  C8_12 
REMARK    8  A    between atoms: C8_12  and  C9_13 
REMARK    9  A    between atoms: C9_13  and  C10_14 
REMARK   10  A    between atoms: C16_23  and  O5_24 
REMARK   11  A    between atoms: C17_26  and  O6_27 
ROOT
HETATM    1  C4  UNL     1       8.463   1.560  -2.473  1.00  0.00     0.171 C 
ENDROOT
BRANCH   1   2
HETATM    2  O3  UNL     1       8.642   1.996  -1.168  1.00  0.00    -0.359 OA
BRANCH   2   3
HETATM    3  C3  UNL     1       9.440   1.084  -0.498  1.00  0.00     0.290 C 
HETATM    4  O2  UNL     1       8.881   0.826   0.751  1.00  0.00    -0.356 OA
HETATM    5  C2  UNL     1       9.629  -0.046   1.509  1.00  0.00     0.205 C 
HETATM    6  C1  UNL     1      10.845  -0.583   0.792  1.00  0.00     0.173 C 
HETATM    7  C17 UNL     1      11.701   0.550   0.317  1.00  0.00     0.182 C 
HETATM    8  C16 UNL     1      10.842   1.617  -0.276  1.00  0.00     0.204 C 
BRANCH   6   9
HETATM    9  O1  UNL     1      11.542  -1.369   1.724  1.00  0.00    -0.391 OA
ATOM     10  H1  UNL     1      11.981  -0.765   2.311  1.00  0.00     0.210 HD
ENDBRANCH   6   9
BRANCH   7  11
HETATM   11  O6  UNL     1      12.549   0.065  -0.700  1.00  0.00    -0.390 OA
ATOM     12  H6  UNL     1      12.515   0.673  -1.430  1.00  0.00     0.210 HD
ENDBRANCH   7  11
BRANCH   8  13
HETATM   13  O5  UNL     1      10.786   2.774   0.527  1.00  0.00    -0.388 OA
ATOM     14  H5  UNL     1      11.604   2.873   1.000  1.00  0.00     0.210 HD
ENDBRANCH   8  13
ENDBRANCH   2   3
ENDBRANCH   1   2
BRANCH   1  15
HETATM   15  C5  UNL     1       7.081   1.859  -2.992  1.00  0.00     0.026 C 
BRANCH  15  16
HETATM   16  C6  UNL     1       6.939   1.478  -4.443  1.00  0.00     0.002 C 
BRANCH  16  17
HETATM   17  C7  UNL     1       5.677   0.730  -4.732  1.00  0.00     0.000 C 
BRANCH  17  18
HETATM   18  C8  UNL     1       5.843  -0.761  -4.696  1.00  0.00     0.006 C 
BRANCH  18  19
HETATM   19  C9  UNL     1       5.471  -1.326  -3.360  1.00  0.00     0.052 C 
BRANCH  19  20
HETATM   20  C10 UNL     1       6.750  -1.731  -2.671  1.00  0.00    -0.011 C 
HETATM   21  N1  UNL     1       7.763  -2.271  -3.212  1.00  0.00    -0.395 N 
HETATM   22  C11 UNL     1       8.815  -2.526  -2.260  1.00  0.00     0.126 C 
ATOM     23  H1  UNL     1       7.826  -2.498  -4.205  1.00  0.00     0.159 HD
HETATM   24  C12 UNL     1       8.120  -2.454  -0.919  1.00  0.00     0.039 C 
HETATM   25  C13 UNL     1       7.365  -3.746  -0.607  1.00  0.00     0.174 C 
HETATM   26  C15 UNL     1       6.969  -1.528  -1.231  1.00  0.00     0.062 C 
HETATM   27  O4  UNL     1       6.355  -3.235   0.239  1.00  0.00    -0.390 OA
HETATM   28  C14 UNL     1       5.864  -2.118  -0.384  1.00  0.00     0.178 C 
ENDBRANCH  19  20
ENDBRANCH  18  19
ENDBRANCH  17  18
ENDBRANCH  16  17
ENDBRANCH  15  16
ENDBRANCH   1  15
TORSDOF 11
ENDMDL
MODEL 3
REMARK VINA RESULT: -6.186633708      2.749      5.437
REMARK  11 active torsions:
REMARK  status: ('A' for Active; 'I' for Inactive)
REMARK    1  A    between atoms: O1_1  and  C1_3 
REMARK    2  A    between atoms: C3_6  and  O3_7 
REMARK    3  A    between atoms: O3_7  and  C4_8 
REMARK    4  A    between atoms: C4_8  and  C5_9 
REMARK    5  A    between atoms: C5_9  and  C6_10 
REMARK    6  A    between atoms: C6_10  and  C7_11 
REMARK    7  A    between atoms: C7_11  and  C8_12 
REMARK    8  A    between atoms: C8_12  and  C9_13 
REMARK    9  A    between atoms: C9_13  and  C10_14 
REMARK   10  A    between atoms: C16_23  and  O5_24 
REMARK   11  A    between atoms: C17_26  and  O6_27 
ROOT
HETATM    1  C4  UNL     1       7.146  -0.084  -0.440  1.00  0.00     0.171 C 
ENDROOT
BRANCH   1   2
HETATM    2  O3  UNL     1       6.732   0.869  -1.361  1.00  0.00    -0.359 OA
BRANCH   2   3
HETATM    3  C3  UNL     1       6.343   0.226  -2.524  1.00  0.00     0.290 C 
HETATM    4  O2  UNL     1       6.936  -1.034  -2.563  1.00  0.00    -0.356 OA
HETATM    5  C2  UNL     1       6.636  -1.736  -3.709  1.00  0.00     0.205 C 
HETATM    6  C1  UNL     1       5.676  -1.019  -4.628  1.00  0.00     0.173 C 
HETATM    7  C17 UNL     1       6.219   0.332  -4.981  1.00  0.00     0.182 C 
HETATM    8  C16 UNL     1       6.783   0.984  -3.762  1.00  0.00     0.204 C 
BRANCH   6   9
HETATM    9  O1  UNL     1       5.554  -1.816  -5.777  1.00  0.00    -0.391 OA
ATOM     10  H1  UNL     1       5.632  -1.230  -6.521  1.00  0.00     0.210 HD
ENDBRANCH   6   9
BRANCH   7  11
HETATM   11  O6  UNL     1       5.152   1.129  -5.441  1.00  0.00    -0.390 OA
ATOM     12  H6  UNL     1       5.302   1.325  -6.358  1.00  0.00     0.210 HD
ENDBRANCH   7  11
BRANCH   8  13
HETATM   13  O5  UNL     1       8.190   1.062  -3.792  1.00  0.00    -0.388 OA
ATOM     14  H5  UNL     1       8.529   0.452  -4.437  1.00  0.00     0.210 HD
ENDBRANCH   8  13
ENDBRANCH   2   3
ENDBRANCH   1   2
BRANCH   1  15
HETATM   15  C5  UNL     1       8.294   0.401   0.407  1.00  0.00     0.026 C 
BRANCH  15  16
HETATM   16  C6  UNL     1       9.459   0.842  -0.438  1.00  0.00     0.002 C 
BRANCH  16  17
HETATM   17  C7  UNL     1      10.175  -0.299  -1.090  1.00  0.00     0.000 C 
BRANCH  17  18
HETATM   18  C8  UNL     1      10.900  -1.184  -0.120  1.00  0.00     0.006 C 
BRANCH  18  19
HETATM   19  C9  UNL     1      10.801  -2.627  -0.509  1.00  0.00     0.052 C 
BRANCH  19  20
HETATM   20  C10 UNL     1       9.440  -3.116  -0.082  1.00  0.00    -0.011 C 
HETATM   21  N1  UNL     1       9.005  -3.201   1.108  1.00  0.00    -0.395 N 
HETATM   22  C11 UNL     1       7.657  -3.709   1.157  1.00  0.00     0.126 C 
ATOM     23  H1  UNL     1       9.546  -2.939   1.933  1.00  0.00     0.159 HD
HETATM   24  C12 UNL     1       7.459  -4.355  -0.196  1.00  0.00     0.039 C 
HETATM   25  C13 UNL     1       8.104  -5.740  -0.257  1.00  0.00     0.174 C 
HETATM   26  C15 UNL     1       8.422  -3.562  -1.046  1.00  0.00     0.062 C 
HETATM   27  O4  UNL     1       8.371  -5.819  -1.643  1.00  0.00    -0.390 OA
HETATM   28  C14 UNL     1       8.941  -4.622  -1.991  1.00  0.00     0.178 C 
ENDBRANCH  19  20
ENDBRANCH  18  19
ENDBRANCH  17  18
ENDBRANCH  16  17
ENDBRANCH  15  16
ENDBRANCH   1  15
TORSDOF 11
ENDMDL
MODEL 4
REMARK VINA RESULT: -6.164627116      2.394      5.222
REMARK  11 active torsions:
REMARK  status: ('A' for Active; 'I' for Inactive)
REMARK    1  A    between atoms: O1_1  and  C1_3 
REMARK    2  A    between atoms: C3_6  and  O3_7 
REMARK    3  A    between atoms: O3_7  and  C4_8 
REMARK    4  A    between atoms: C4_8  and  C5_9 
REMARK    5  A    between atoms: C5_9  and  C6_10 
REMARK    6  A    between atoms: C6_10  and  C7_11 
REMARK    7  A    between atoms: C7_11  and  C8_12 
REMARK    8  A    between atoms: C8_12  and  C9_13 
REMARK    9  A    between atoms: C9_13  and  C10_14 
REMARK   10  A    between atoms: C16_23  and  O5_24 
REMARK   11  A    between atoms: C17_26  and  O6_27 
ROOT
HETATM    1  C4  UNL     1       5.589  -1.156  -1.765  1.00  0.00     0.171 C 
ENDROOT
BRANCH   1   2
HETATM    2  O3  UNL     1       6.386  -2.192  -1.295  1.00  0.00    -0.359 OA
BRANCH   2   3
HETATM    3  C3  UNL     1       6.288  -2.239   0.086  1.00  0.00     0.290 C 
HETATM    4  O2  UNL     1       7.557  -2.079   0.634  1.00  0.00    -0.356 OA
HETATM    5  C2  UNL     1       7.564  -2.150   2.009  1.00  0.00     0.205 C 
HETATM    6  C1  UNL     1       6.191  -2.312   2.616  1.00  0.00     0.173 C 
HETATM    7  C17 UNL     1       5.516  -3.520   2.042  1.00  0.00     0.182 C 
HETATM    8  C16 UNL     1       5.739  -3.569   0.566  1.00  0.00     0.204 C 
BRANCH   6   9
HETATM    9  O1  UNL     1       6.382  -2.465   3.998  1.00  0.00    -0.391 OA
ATOM     10  H1  UNL     1       5.963  -1.720   4.413  1.00  0.00     0.210 HD
ENDBRANCH   6   9
BRANCH   7  11
HETATM   11  O6  UNL     1       4.130  -3.397   2.264  1.00  0.00    -0.390 OA
ATOM     12  H6  UNL     1       3.737  -3.023   1.484  1.00  0.00     0.210 HD
ENDBRANCH   7  11
BRANCH   8  13
HETATM   13  O5  UNL     1       6.615  -4.605   0.186  1.00  0.00    -0.388 OA
ATOM     14  H5  UNL     1       6.205  -5.446   0.357  1.00  0.00     0.210 HD
ENDBRANCH   8  13
ENDBRANCH   2   3
ENDBRANCH   1   2
BRANCH   1  15
HETATM   15  C5  UNL     1       5.604  -1.060  -3.268  1.00  0.00     0.026 C 
BRANCH  15  16
HETATM   16  C6  UNL     1       6.341   0.167  -3.738  1.00  0.00     0.002 C 
BRANCH  16  17
HETATM   17  C7  UNL     1       6.858   1.006  -2.612  1.00  0.00     0.000 C 
BRANCH  17  18
HETATM   18  C8  UNL     1       8.355   1.106  -2.579  1.00  0.00     0.006 C 
BRANCH  18  19
HETATM   19  C9  UNL     1       8.914   0.579  -1.294  1.00  0.00     0.052 C 
BRANCH  19  20
HETATM   20  C10 UNL     1       9.650  -0.699  -1.614  1.00  0.00    -0.011 C 
HETATM   21  N1  UNL     1       9.188  -1.701  -2.240  1.00  0.00    -0.395 N 
HETATM   22  C11 UNL     1      10.163  -2.755  -2.372  1.00  0.00     0.126 C 
ATOM     23  H1  UNL     1       8.237  -1.756  -2.607  1.00  0.00     0.159 HD
HETATM   24  C12 UNL     1      11.205  -2.422  -1.327  1.00  0.00     0.039 C 
HETATM   25  C13 UNL     1      10.757  -2.852   0.069  1.00  0.00     0.174 C 
HETATM   26  C15 UNL     1      11.049  -0.924  -1.221  1.00  0.00     0.062 C 
HETATM   27  O4  UNL     1      11.474  -1.918   0.849  1.00  0.00    -0.390 OA
HETATM   28  C14 UNL     1      11.283  -0.698   0.256  1.00  0.00     0.178 C 
ENDBRANCH  19  20
ENDBRANCH  18  19
ENDBRANCH  17  18
ENDBRANCH  16  17
ENDBRANCH  15  16
ENDBRANCH   1  15
TORSDOF 11
ENDMDL
MODEL 5
REMARK VINA RESULT: -6.143155708      2.470      6.045
REMARK  11 active torsions:
REMARK  status: ('A' for Active; 'I' for Inactive)
REMARK    1  A    between atoms: O1_1  and  C1_3 
REMARK    2  A    between atoms: C3_6  and  O3_7 
REMARK    3  A    between atoms: O3_7  and  C4_8 
REMARK    4  A    between atoms: C4_8  and  C5_9 
REMARK    5  A    between atoms: C5_9  and  C6_10 
REMARK    6  A    between atoms: C6_10  and  C7_11 
REMARK    7  A    between atoms: C7_11  and  C8_12 
REMARK    8  A    between atoms: C8_12  and  C9_13 
REMARK    9  A    between atoms: C9_13  and  C10_14 
REMARK   10  A    between atoms: C16_23  and  O5_24 
REMARK   11  A    between atoms: C17_26  and  O6_27 
ROOT
HETATM    1  C4  UNL     1       6.126  -0.407  -0.277  1.00  0.00     0.171 C 
ENDROOT
BRANCH   1   2
HETATM    2  O3  UNL     1       6.616   0.410  -1.286  1.00  0.00    -0.359 OA
BRANCH   2   3
HETATM    3  C3  UNL     1       6.301  -0.155  -2.511  1.00  0.00     0.290 C 
HETATM    4  O2  UNL     1       6.978  -1.365  -2.637  1.00  0.00    -0.356 OA
HETATM    5  C2  UNL     1       6.754  -1.985  -3.846  1.00  0.00     0.205 C 
HETATM    6  C1  UNL     1       5.772  -1.255  -4.731  1.00  0.00     0.173 C 
HETATM    7  C17 UNL     1       6.232   0.153  -4.953  1.00  0.00     0.182 C 
HETATM    8  C16 UNL     1       6.720   0.734  -3.667  1.00  0.00     0.204 C 
BRANCH   6   9
HETATM    9  O1  UNL     1       5.733  -1.957  -5.946  1.00  0.00    -0.391 OA
ATOM     10  H1  UNL     1       5.470  -1.331  -6.611  1.00  0.00     0.210 HD
ENDBRANCH   6   9
BRANCH   7  11
HETATM   11  O6  UNL     1       5.125   0.916  -5.377  1.00  0.00    -0.390 OA
ATOM     12  H6  UNL     1       5.091   0.886  -6.326  1.00  0.00     0.210 HD
ENDBRANCH   7  11
BRANCH   8  13
HETATM   13  O5  UNL     1       8.118   0.905  -3.647  1.00  0.00    -0.388 OA
ATOM     14  H5  UNL     1       8.535   0.168  -4.079  1.00  0.00     0.210 HD
ENDBRANCH   8  13
ENDBRANCH   2   3
ENDBRANCH   1   2
BRANCH   1  15
HETATM   15  C5  UNL     1       7.000  -0.387   0.950  1.00  0.00     0.026 C 
BRANCH  15  16
HETATM   16  C6  UNL     1       7.338  -1.780   1.412  1.00  0.00     0.002 C 
BRANCH  16  17
HETATM   17  C7  UNL     1       7.872  -2.647   0.316  1.00  0.00     0.000 C 
BRANCH  17  18
HETATM   18  C8  UNL     1       9.351  -2.884   0.407  1.00  0.00     0.006 C 
BRANCH  18  19
HETATM   19  C9  UNL     1      10.073  -2.323  -0.779  1.00  0.00     0.052 C 
BRANCH  19  20
HETATM   20  C10 UNL     1      10.142  -0.827  -0.597  1.00  0.00    -0.011 C 
HETATM   21  N1  UNL     1       9.704   0.054  -1.399  1.00  0.00    -0.395 N 
HETATM   22  C11 UNL     1       9.934   1.392  -0.914  1.00  0.00     0.126 C 
ATOM     23  H1  UNL     1       9.243  -0.160  -2.284  1.00  0.00     0.159 HD
HETATM   24  C12 UNL     1      11.000   1.219   0.146  1.00  0.00     0.039 C 
HETATM   25  C13 UNL     1      12.390   1.078  -0.473  1.00  0.00     0.174 C 
HETATM   26  C15 UNL     1      10.747  -0.202   0.589  1.00  0.00     0.062 C 
HETATM   27  O4  UNL     1      13.024   0.315   0.533  1.00  0.00    -0.390 OA
HETATM   28  C14 UNL     1      12.153  -0.693   0.853  1.00  0.00     0.178 C 
ENDBRANCH  19  20
ENDBRANCH  18  19
ENDBRANCH  17  18
ENDBRANCH  16  17
ENDBRANCH  15  16
ENDBRANCH   1  15
TORSDOF 11
ENDMDL
