MODEL 1
REMARK VINA RESULT: -8.137202080      0.000      0.000
REMARK  6 active torsions:
REMARK  status: ('A' for Active; 'I' for Inactive)
REMARK    1  A    between atoms: C2_2  and  C4_4 
REMARK    2  A    between atoms: C4_4  and  N1_5 
REMARK    3  A    between atoms: C4_4  and  C25_31 
REMARK    4  A    between atoms: N1_5  and  C5_7 
REMARK    5  A    between atoms: C14_16  and  O1_17 
REMARK    6  A    between atoms: C19_23  and  O2_24 
ROOT
HETATM    1  C5  UNL     1      16.679  -3.316  11.651  1.00  0.00     0.078 C 
HETATM    2  C6  UNL     1      17.036  -4.704  11.132  1.00  0.00     0.030 C 
HETATM    3  C7  UNL     1      16.048  -5.606  11.857  1.00  0.00    -0.004 C 
HETATM    4  C8  UNL     1      16.791  -6.817  12.300  1.00  0.00     0.006 C 
HETATM    5  C9  UNL     1      16.219  -7.586  13.425  1.00  0.00     0.010 C 
HETATM    6  C10 UNL     1      15.005  -6.999  14.071  1.00  0.00    -0.035 C 
HETATM    7  C11 UNL     1      13.812  -7.444  13.237  1.00  0.00     0.016 C 
HETATM    8  C12 UNL     1      14.765  -7.606  15.428  1.00  0.00     0.007 C 
HETATM    9  C13 UNL     1      13.349  -7.359  15.914  1.00  0.00     0.038 C 
HETATM   10  C14 UNL     1      13.105  -8.401  17.014  1.00  0.00     0.118 C 
HETATM   11  C15 UNL     1      14.153  -8.217  18.064  1.00  0.00     0.032 C 
HETATM   12  C16 UNL     1      14.968  -6.992  17.808  1.00  0.00     0.014 C 
HETATM   13  C17 UNL     1      15.720  -7.197  16.497  1.00  0.00    -0.013 C 
HETATM   14  C18 UNL     1      16.730  -8.315  16.809  1.00  0.00     0.018 C 
HETATM   15  C19 UNL     1      16.521  -5.978  16.201  1.00  0.00     0.127 C 
HETATM   16  C20 UNL     1      15.723  -4.989  15.425  1.00  0.00     0.038 C 
HETATM   17  C21 UNL     1      15.052  -5.487  14.190  1.00  0.00     0.005 C 
HETATM   18  C22 UNL     1      15.401  -4.804  12.920  1.00  0.00    -0.034 C 
HETATM   19  C23 UNL     1      14.175  -4.111  12.293  1.00  0.00     0.016 C 
HETATM   20  C24 UNL     1      16.421  -3.655  13.082  1.00  0.00     0.034 C 
ENDROOT
BRANCH   1  21
HETATM   21  N1  UNL     1      17.558  -2.319  11.298  1.00  0.00    -0.412 N 
ATOM     22  H1  UNL     1      17.852  -1.687  12.043  1.00  0.00     0.154 HD
BRANCH  21  23
HETATM   23  C4  UNL     1      18.088  -2.079  10.036  1.00  0.00     0.083 C 
BRANCH  23  24
HETATM   24  C2  UNL     1      19.552  -1.812  10.056  1.00  0.00     0.000 C 
HETATM   25  C1  UNL     1      20.262  -1.949   8.734  1.00  0.00     0.011 C 
HETATM   26  C3  UNL     1      20.344  -2.670  11.034  1.00  0.00     0.011 C 
ENDBRANCH  23  24
BRANCH  23  27
HETATM   27  C25 UNL     1      17.327  -1.078   9.207  1.00  0.00     0.000 C 
HETATM   28  C26 UNL     1      15.861  -1.245   9.130  1.00  0.00     0.011 C 
HETATM   29  C27 UNL     1      17.581   0.357   9.692  1.00  0.00     0.011 C 
ENDBRANCH  23  27
ENDBRANCH  21  23
ENDBRANCH   1  21
BRANCH  15  30
HETATM   30  O2  UNL     1      16.809  -5.374  17.452  1.00  0.00    -0.395 OA
ATOM     31  H2  UNL     1      17.707  -5.603  17.661  1.00  0.00     0.210 HD
ENDBRANCH  15  30
BRANCH  10  32
HETATM   32  O1  UNL     1      11.809  -8.366  17.486  1.00  0.00    -0.396 OA
ATOM     33  H1  UNL     1      11.633  -9.067  18.102  1.00  0.00     0.210 HD
ENDBRANCH  10  32
TORSDOF 6
ENDMDL
MODEL 2
REMARK VINA RESULT: -8.048120021      0.550      1.719
REMARK  6 active torsions:
REMARK  status: ('A' for Active; 'I' for Inactive)
REMARK    1  A    between atoms: C2_2  and  C4_4 
REMARK    2  A    between atoms: C4_4  and  N1_5 
REMARK    3  A    between atoms: C4_4  and  C25_31 
REMARK    4  A    between atoms: N1_5  and  C5_7 
REMARK    5  A    between atoms: C14_16  and  O1_17 
REMARK    6  A    between atoms: C19_23  and  O2_24 
ROOT
HETATM    1  C5  UNL     1      17.156  -3.196  11.749  1.00  0.00     0.078 C 
HETATM    2  C6  UNL     1      17.505  -4.581  11.214  1.00  0.00     0.030 C 
HETATM    3  C7  UNL     1      16.435  -5.467  11.835  1.00  0.00    -0.004 C 
HETATM    4  C8  UNL     1      17.100  -6.716  12.294  1.00  0.00     0.006 C 
HETATM    5  C9  UNL     1      16.419  -7.496  13.348  1.00  0.00     0.010 C 
HETATM    6  C10 UNL     1      15.180  -6.885  13.919  1.00  0.00    -0.035 C 
HETATM    7  C11 UNL     1      14.040  -7.262  12.984  1.00  0.00     0.016 C 
HETATM    8  C12 UNL     1      14.816  -7.521  15.235  1.00  0.00     0.007 C 
HETATM    9  C13 UNL     1      13.377  -7.238  15.620  1.00  0.00     0.038 C 
HETATM   10  C14 UNL     1      13.015  -8.301  16.666  1.00  0.00     0.118 C 
HETATM   11  C15 UNL     1      13.985  -8.185  17.796  1.00  0.00     0.032 C 
HETATM   12  C16 UNL     1      14.858  -6.984  17.640  1.00  0.00     0.014 C 
HETATM   13  C17 UNL     1      15.701  -7.178  16.384  1.00  0.00    -0.013 C 
HETATM   14  C18 UNL     1      16.646  -8.340  16.736  1.00  0.00     0.018 C 
HETATM   15  C19 UNL     1      16.563  -5.981  16.188  1.00  0.00     0.127 C 
HETATM   16  C20 UNL     1      15.860  -4.941  15.385  1.00  0.00     0.038 C 
HETATM   17  C21 UNL     1      15.268  -5.380  14.089  1.00  0.00     0.005 C 
HETATM   18  C22 UNL     1      15.736  -4.673  12.870  1.00  0.00    -0.034 C 
HETATM   19  C23 UNL     1      14.585  -3.919  12.175  1.00  0.00     0.016 C 
HETATM   20  C24 UNL     1      16.779  -3.567  13.145  1.00  0.00     0.034 C 
ENDROOT
BRANCH   1  21
HETATM   21  N1  UNL     1      18.092  -2.222  11.494  1.00  0.00    -0.412 N 
ATOM     22  H1  UNL     1      18.802  -2.074  12.212  1.00  0.00     0.154 HD
BRANCH  21  23
HETATM   23  C4  UNL     1      18.177  -1.417  10.364  1.00  0.00     0.083 C 
BRANCH  23  24
HETATM   24  C2  UNL     1      16.848  -0.969   9.862  1.00  0.00     0.000 C 
HETATM   25  C1  UNL     1      16.164  -1.901   8.897  1.00  0.00     0.011 C 
HETATM   26  C3  UNL     1      16.849   0.394   9.182  1.00  0.00     0.011 C 
ENDBRANCH  23  24
BRANCH  23  27
HETATM   27  C25 UNL     1      19.060  -1.951   9.268  1.00  0.00     0.000 C 
HETATM   28  C26 UNL     1      19.636  -0.966   8.329  1.00  0.00     0.011 C 
HETATM   29  C27 UNL     1      20.239  -2.752   9.841  1.00  0.00     0.011 C 
ENDBRANCH  23  27
ENDBRANCH  21  23
ENDBRANCH   1  21
BRANCH  15  30
HETATM   30  O2  UNL     1      16.774  -5.424  17.475  1.00  0.00    -0.395 OA
ATOM     31  H2  UNL     1      17.454  -4.768  17.376  1.00  0.00     0.210 HD
ENDBRANCH  15  30
BRANCH  10  32
HETATM   32  O1  UNL     1      11.688  -8.234  17.039  1.00  0.00    -0.396 OA
ATOM     33  H1  UNL     1      11.329  -9.090  17.239  1.00  0.00     0.210 HD
ENDBRANCH  10  32
TORSDOF 6
ENDMDL
MODEL 3
REMARK VINA RESULT: -7.984977767      1.756      3.033
REMARK  6 active torsions:
REMARK  status: ('A' for Active; 'I' for Inactive)
REMARK    1  A    between atoms: C2_2  and  C4_4 
REMARK    2  A    between atoms: C4_4  and  N1_5 
REMARK    3  A    between atoms: C4_4  and  C25_31 
REMARK    4  A    between atoms: N1_5  and  C5_7 
REMARK    5  A    between atoms: C14_16  and  O1_17 
REMARK    6  A    between atoms: C19_23  and  O2_24 
ROOT
HETATM    1  C5  UNL     1      16.446  -2.835  10.870  1.00  0.00     0.078 C 
HETATM    2  C6  UNL     1      15.012  -2.387  11.126  1.00  0.00     0.030 C 
HETATM    3  C7  UNL     1      14.683  -3.036  12.463  1.00  0.00    -0.004 C 
HETATM    4  C8  UNL     1      13.301  -3.578  12.369  1.00  0.00     0.006 C 
HETATM    5  C9  UNL     1      12.935  -4.661  13.305  1.00  0.00     0.010 C 
HETATM    6  C10 UNL     1      14.035  -5.172  14.179  1.00  0.00    -0.035 C 
HETATM    7  C11 UNL     1      14.106  -4.238  15.378  1.00  0.00     0.016 C 
HETATM    8  C12 UNL     1      13.684  -6.514  14.765  1.00  0.00     0.007 C 
HETATM    9  C13 UNL     1      14.558  -6.855  15.957  1.00  0.00     0.038 C 
HETATM   10  C14 UNL     1      13.802  -7.952  16.720  1.00  0.00     0.118 C 
HETATM   11  C15 UNL     1      13.575  -9.093  15.782  1.00  0.00     0.032 C 
HETATM   12  C16 UNL     1      14.300  -8.886  14.492  1.00  0.00     0.014 C 
HETATM   13  C17 UNL     1      13.701  -7.659  13.811  1.00  0.00    -0.013 C 
HETATM   14  C18 UNL     1      12.276  -8.095  13.427  1.00  0.00     0.018 C 
HETATM   15  C19 UNL     1      14.423  -7.413  12.534  1.00  0.00     0.127 C 
HETATM   16  C20 UNL     1      15.610  -6.539  12.750  1.00  0.00     0.038 C 
HETATM   17  C21 UNL     1      15.378  -5.258  13.477  1.00  0.00     0.005 C 
HETATM   18  C22 UNL     1      15.755  -4.011  12.767  1.00  0.00    -0.034 C 
HETATM   19  C23 UNL     1      16.873  -3.252  13.508  1.00  0.00     0.016 C 
HETATM   20  C24 UNL     1      16.348  -4.243  11.359  1.00  0.00     0.034 C 
ENDROOT
BRANCH   1  21
HETATM   21  N1  UNL     1      16.932  -2.544   9.617  1.00  0.00    -0.412 N 
ATOM     22  H1  UNL     1      16.262  -2.586   8.849  1.00  0.00     0.154 HD
BRANCH  21  23
HETATM   23  C4  UNL     1      18.237  -2.199   9.284  1.00  0.00     0.083 C 
BRANCH  23  24
HETATM   24  C2  UNL     1      19.241  -2.683  10.270  1.00  0.00     0.000 C 
HETATM   25  C1  UNL     1      19.581  -1.728  11.383  1.00  0.00     0.011 C 
HETATM   26  C3  UNL     1      20.578  -3.098   9.668  1.00  0.00     0.011 C 
ENDBRANCH  23  24
BRANCH  23  27
HETATM   27  C25 UNL     1      18.436  -0.753   8.915  1.00  0.00     0.000 C 
HETATM   28  C26 UNL     1      19.376  -0.463   7.812  1.00  0.00     0.011 C 
HETATM   29  C27 UNL     1      17.105  -0.081   8.546  1.00  0.00     0.011 C 
ENDBRANCH  23  27
ENDBRANCH  21  23
ENDBRANCH   1  21
BRANCH  15  30
HETATM   30  O2  UNL     1      14.919  -8.671  12.104  1.00  0.00    -0.395 OA
ATOM     31  H2  UNL     1      15.242  -9.112  12.881  1.00  0.00     0.210 HD
ENDBRANCH  15  30
BRANCH  10  32
HETATM   32  O1  UNL     1      14.432  -8.295  17.898  1.00  0.00    -0.396 OA
ATOM     33  H1  UNL     1      13.821  -8.368  18.623  1.00  0.00     0.210 HD
ENDBRANCH  10  32
TORSDOF 6
ENDMDL
MODEL 4
REMARK VINA RESULT: -7.975930328      1.898      3.554
REMARK  6 active torsions:
REMARK  status: ('A' for Active; 'I' for Inactive)
REMARK    1  A    between atoms: C2_2  and  C4_4 
REMARK    2  A    between atoms: C4_4  and  N1_5 
REMARK    3  A    between atoms: C4_4  and  C25_31 
REMARK    4  A    between atoms: N1_5  and  C5_7 
REMARK    5  A    between atoms: C14_16  and  O1_17 
REMARK    6  A    between atoms: C19_23  and  O2_24 
ROOT
HETATM    1  C5  UNL     1      17.171  -4.570  11.816  1.00  0.00     0.078 C 
HETATM    2  C6  UNL     1      16.764  -3.768  13.047  1.00  0.00     0.030 C 
HETATM    3  C7  UNL     1      16.484  -4.847  14.083  1.00  0.00    -0.004 C 
HETATM    4  C8  UNL     1      15.248  -4.456  14.813  1.00  0.00     0.006 C 
HETATM    5  C9  UNL     1      14.496  -5.531  15.492  1.00  0.00     0.010 C 
HETATM    6  C10 UNL     1      15.003  -6.921  15.279  1.00  0.00    -0.035 C 
HETATM    7  C11 UNL     1      16.115  -7.138  16.295  1.00  0.00     0.016 C 
HETATM    8  C12 UNL     1      13.956  -7.942  15.641  1.00  0.00     0.007 C 
HETATM    9  C13 UNL     1      14.558  -9.320  15.844  1.00  0.00     0.038 C 
HETATM   10  C14 UNL     1      13.518 -10.107  16.653  1.00  0.00     0.118 C 
HETATM   11  C15 UNL     1      12.237 -10.106  15.883  1.00  0.00     0.032 C 
HETATM   12  C16 UNL     1      12.423  -9.517  14.523  1.00  0.00     0.014 C 
HETATM   13  C17 UNL     1      12.807  -8.051  14.698  1.00  0.00    -0.013 C 
HETATM   14  C18 UNL     1      11.541  -7.391  15.272  1.00  0.00     0.018 C 
HETATM   15  C19 UNL     1      13.025  -7.444  13.357  1.00  0.00     0.127 C 
HETATM   16  C20 UNL     1      14.437  -7.616  12.915  1.00  0.00     0.038 C 
HETATM   17  C21 UNL     1      15.498  -7.178  13.868  1.00  0.00     0.005 C 
HETATM   18  C22 UNL     1      16.450  -6.150  13.379  1.00  0.00    -0.034 C 
HETATM   19  C23 UNL     1      17.893  -6.688  13.335  1.00  0.00     0.016 C 
HETATM   20  C24 UNL     1      16.190  -5.691  11.927  1.00  0.00     0.034 C 
ENDROOT
BRANCH   1  21
HETATM   21  N1  UNL     1      17.294  -3.838  10.659  1.00  0.00    -0.412 N 
ATOM     22  H1  UNL     1      17.517  -4.359   9.812  1.00  0.00     0.154 HD
BRANCH  21  23
HETATM   23  C4  UNL     1      17.148  -2.462  10.520  1.00  0.00     0.083 C 
BRANCH  23  24
HETATM   24  C2  UNL     1      15.877  -2.072   9.850  1.00  0.00     0.000 C 
HETATM   25  C1  UNL     1      15.904  -0.766   9.101  1.00  0.00     0.011 C 
HETATM   26  C3  UNL     1      14.668  -1.987  10.773  1.00  0.00     0.011 C 
ENDBRANCH  23  24
BRANCH  23  27
HETATM   27  C25 UNL     1      18.346  -1.751   9.949  1.00  0.00     0.000 C 
HETATM   28  C26 UNL     1      18.948  -0.681  10.772  1.00  0.00     0.011 C 
HETATM   29  C27 UNL     1      19.475  -2.737   9.617  1.00  0.00     0.011 C 
ENDBRANCH  23  27
ENDBRANCH  21  23
ENDBRANCH   1  21
BRANCH  15  30
HETATM   30  O2  UNL     1      12.224  -8.182  12.447  1.00  0.00    -0.395 OA
ATOM     31  H2  UNL     1      12.211  -7.685  11.638  1.00  0.00     0.210 HD
ENDBRANCH  15  30
BRANCH  10  32
HETATM   32  O1  UNL     1      13.974 -11.360  17.007  1.00  0.00    -0.396 OA
ATOM     33  H1  UNL     1      14.011 -11.475  17.949  1.00  0.00     0.210 HD
ENDBRANCH  10  32
TORSDOF 6
ENDMDL
MODEL 5
REMARK VINA RESULT: -7.930945064      1.674      3.385
REMARK  6 active torsions:
REMARK  status: ('A' for Active; 'I' for Inactive)
REMARK    1  A    between atoms: C2_2  and  C4_4 
REMARK    2  A    between atoms: C4_4  and  N1_5 
REMARK    3  A    between atoms: C4_4  and  C25_31 
REMARK    4  A    between atoms: N1_5  and  C5_7 
REMARK    5  A    between atoms: C14_16  and  O1_17 
REMARK    6  A    between atoms: C19_23  and  O2_24 
ROOT
HETATM    1  C5  UNL     1      16.912  -2.843  11.023  1.00  0.00     0.078 C 
HETATM    2  C6  UNL     1      15.478  -2.340  11.142  1.00  0.00     0.030 C 
HETATM    3  C7  UNL     1      14.994  -2.987  12.431  1.00  0.00    -0.004 C 
HETATM    4  C8  UNL     1      13.608  -3.473  12.194  1.00  0.00     0.006 C 
HETATM    5  C9  UNL     1      13.109  -4.548  13.076  1.00  0.00     0.010 C 
HETATM    6  C10 UNL     1      14.097  -5.110  14.049  1.00  0.00    -0.035 C 
HETATM    7  C11 UNL     1      14.084  -4.189  15.260  1.00  0.00     0.016 C 
HETATM    8  C12 UNL     1      13.638  -6.442  14.581  1.00  0.00     0.007 C 
HETATM    9  C13 UNL     1      14.375  -6.827  15.849  1.00  0.00     0.038 C 
HETATM   10  C14 UNL     1      13.506  -7.899  16.520  1.00  0.00     0.118 C 
HETATM   11  C15 UNL     1      13.329  -9.023  15.550  1.00  0.00     0.032 C 
HETATM   12  C16 UNL     1      14.185  -8.834  14.341  1.00  0.00     0.014 C 
HETATM   13  C17 UNL     1      13.705  -7.579  13.619  1.00  0.00    -0.013 C 
HETATM   14  C18 UNL     1      12.309  -7.954  13.091  1.00  0.00     0.018 C 
HETATM   15  C19 UNL     1      14.559  -7.350  12.422  1.00  0.00     0.127 C 
HETATM   16  C20 UNL     1      15.751  -6.526  12.766  1.00  0.00     0.038 C 
HETATM   17  C21 UNL     1      15.498  -5.243  13.482  1.00  0.00     0.005 C 
HETATM   18  C22 UNL     1      15.992  -4.006  12.827  1.00  0.00    -0.034 C 
HETATM   19  C23 UNL     1      17.059  -3.298  13.685  1.00  0.00     0.016 C 
HETATM   20  C24 UNL     1      16.712  -4.250  11.482  1.00  0.00     0.034 C 
ENDROOT
BRANCH   1  21
HETATM   21  N1  UNL     1      17.530  -2.561   9.827  1.00  0.00    -0.412 N 
ATOM     22  H1  UNL     1      17.253  -3.128   9.026  1.00  0.00     0.154 HD
BRANCH  21  23
HETATM   23  C4  UNL     1      18.493  -1.586   9.592  1.00  0.00     0.083 C 
BRANCH  23  24
HETATM   24  C2  UNL     1      17.926  -0.320   9.052  1.00  0.00     0.000 C 
HETATM   25  C1  UNL     1      17.626   0.750  10.069  1.00  0.00     0.011 C 
HETATM   26  C3  UNL     1      16.644  -0.487   8.247  1.00  0.00     0.011 C 
ENDBRANCH  23  24
BRANCH  23  27
HETATM   27  C25 UNL     1      19.698  -2.056   8.822  1.00  0.00     0.000 C 
HETATM   28  C26 UNL     1      20.436  -1.041   8.042  1.00  0.00     0.011 C 
HETATM   29  C27 UNL     1      20.723  -2.730   9.746  1.00  0.00     0.011 C 
ENDBRANCH  23  27
ENDBRANCH  21  23
ENDBRANCH   1  21
BRANCH  15  30
HETATM   30  O2  UNL     1      15.046  -8.623  12.029  1.00  0.00    -0.395 OA
ATOM     31  H2  UNL     1      14.285  -9.182  11.925  1.00  0.00     0.210 HD
ENDBRANCH  15  30
BRANCH  10  32
HETATM   32  O1  UNL     1      14.002  -8.277  17.751  1.00  0.00    -0.396 OA
ATOM     33  H1  UNL     1      14.828  -7.853  17.950  1.00  0.00     0.210 HD
ENDBRANCH  10  32
TORSDOF 6
ENDMDL
