MODEL 1
REMARK VINA RESULT: -8.621130214      0.000      0.000
REMARK  7 active torsions:
REMARK  status: ('A' for Active; 'I' for Inactive)
REMARK    1  A    between atoms: C2_2  and  C4_4 
REMARK    2  A    between atoms: C5_5  and  C6_6 
REMARK    3  A    between atoms: C6_6  and  C7_7 
REMARK    4  A    between atoms: C6_6  and  C10_10 
REMARK    5  A    between atoms: C14_14  and  O1_15 
REMARK    6  A    between atoms: C26_28  and  O2_29 
REMARK    7  A    between atoms: C28_32  and  O3_33 
ROOT
HETATM    1  C10 UNL     1      15.448  -4.258  13.059  1.00  0.00     0.023 C 
HETATM    2  C11 UNL     1      16.370  -5.392  12.817  1.00  0.00     0.023 C 
HETATM    3  C12 UNL     1      16.029  -6.627  13.658  1.00  0.00     0.018 C 
HETATM    4  C13 UNL     1      17.068  -7.603  13.065  1.00  0.00     0.021 C 
HETATM    5  C14 UNL     1      14.716  -7.214  13.402  1.00  0.00     0.158 C 
HETATM    6  C15 UNL     1      14.081  -7.880  14.571  1.00  0.00    -0.049 C 
HETATM    7  C16 UNL     1      12.738  -8.025  14.586  1.00  0.00    -0.016 C 
HETATM    8  C17 UNL     1      12.067  -8.685  15.728  1.00  0.00     0.008 C 
HETATM    9  C18 UNL     1      10.732  -9.250  15.386  1.00  0.00     0.014 C 
HETATM   10  C19 UNL     1      13.055  -9.756  16.181  1.00  0.00    -0.011 C 
HETATM   11  C20 UNL     1      12.452 -10.745  17.108  1.00  0.00     0.010 C 
HETATM   12  C21 UNL     1      14.192  -8.962  16.789  1.00  0.00     0.014 C 
HETATM   13  C22 UNL     1      14.954  -8.346  15.634  1.00  0.00     0.028 C 
HETATM   14  C23 UNL     1      15.941  -7.329  16.070  1.00  0.00    -0.008 C 
HETATM   15  C24 UNL     1      15.431  -6.745  17.401  1.00  0.00     0.018 C 
HETATM   16  C25 UNL     1      17.160  -8.142  16.570  1.00  0.00     0.018 C 
HETATM   17  C26 UNL     1      16.325  -6.274  15.097  1.00  0.00     0.078 C 
HETATM   18  C27 UNL     1      15.948  -4.873  15.464  1.00  0.00     0.071 C 
HETATM   19  C28 UNL     1      15.121  -4.096  14.497  1.00  0.00     0.126 C 
ENDROOT
BRANCH   1  20
HETATM   20  C6  UNL     1      15.694  -3.045  12.267  1.00  0.00     0.017 C 
BRANCH  20  21
HETATM   21  C5  UNL     1      14.372  -2.618  11.662  1.00  0.00    -0.025 C 
HETATM   22  C4  UNL     1      13.557  -1.776  12.235  1.00  0.00    -0.026 C 
BRANCH  22  23
HETATM   23  C2  UNL     1      12.282  -1.421  11.558  1.00  0.00    -0.001 C 
HETATM   24  C1  UNL     1      12.641  -0.552  10.369  1.00  0.00     0.013 C 
HETATM   25  C3  UNL     1      11.338  -0.678  12.490  1.00  0.00     0.013 C 
ENDBRANCH  22  23
ENDBRANCH  20  21
BRANCH  20  26
HETATM   26  C7  UNL     1      16.663  -2.976  11.183  1.00  0.00    -0.015 C 
HETATM   27  C8  UNL     1      16.300  -2.205   9.941  1.00  0.00     0.010 C 
HETATM   28  C9  UNL     1      18.101  -2.702  11.573  1.00  0.00     0.010 C 
ENDBRANCH  20  26
ENDBRANCH   1  20
BRANCH  19  29
HETATM   29  O3  UNL     1      13.735  -4.265  14.781  1.00  0.00    -0.395 OA
ATOM     30  H3  UNL     1      13.358  -5.035  14.369  1.00  0.00     0.210 HD
ENDBRANCH  19  29
BRANCH   5  31
HETATM   31  O1  UNL     1      14.755  -8.249  12.421  1.00  0.00    -0.390 OA
ATOM     32  H1  UNL     1      13.891  -8.555  12.174  1.00  0.00     0.210 HD
ENDBRANCH   5  31
BRANCH  17  33
HETATM   33  O2  UNL     1      17.753  -6.264  15.106  1.00  0.00    -0.388 OA
ATOM     34  H2  UNL     1      17.946  -6.716  15.919  1.00  0.00     0.210 HD
ENDBRANCH  17  33
TORSDOF 7
ENDMDL
MODEL 2
REMARK VINA RESULT: -8.443742182      1.117      2.668
REMARK  7 active torsions:
REMARK  status: ('A' for Active; 'I' for Inactive)
REMARK    1  A    between atoms: C2_2  and  C4_4 
REMARK    2  A    between atoms: C5_5  and  C6_6 
REMARK    3  A    between atoms: C6_6  and  C7_7 
REMARK    4  A    between atoms: C6_6  and  C10_10 
REMARK    5  A    between atoms: C14_14  and  O1_15 
REMARK    6  A    between atoms: C26_28  and  O2_29 
REMARK    7  A    between atoms: C28_32  and  O3_33 
ROOT
HETATM    1  C10 UNL     1      14.279  -3.940  12.467  1.00  0.00     0.023 C 
HETATM    2  C11 UNL     1      15.612  -4.572  12.330  1.00  0.00     0.023 C 
HETATM    3  C12 UNL     1      15.811  -5.755  13.284  1.00  0.00     0.018 C 
HETATM    4  C13 UNL     1      17.194  -6.225  12.781  1.00  0.00     0.021 C 
HETATM    5  C14 UNL     1      14.896  -6.876  13.090  1.00  0.00     0.158 C 
HETATM    6  C15 UNL     1      14.571  -7.649  14.319  1.00  0.00    -0.049 C 
HETATM    7  C16 UNL     1      13.426  -8.364  14.352  1.00  0.00    -0.016 C 
HETATM    8  C17 UNL     1      13.067  -9.151  15.555  1.00  0.00     0.008 C 
HETATM    9  C18 UNL     1      12.124 -10.269  15.272  1.00  0.00     0.014 C 
HETATM   10  C19 UNL     1      14.404  -9.638  16.102  1.00  0.00    -0.011 C 
HETATM   11  C20 UNL     1      14.257 -10.707  17.121  1.00  0.00     0.010 C 
HETATM   12  C21 UNL     1      15.059  -8.377  16.628  1.00  0.00     0.014 C 
HETATM   13  C22 UNL     1      15.519  -7.593  15.417  1.00  0.00     0.028 C 
HETATM   14  C23 UNL     1      15.947  -6.214  15.752  1.00  0.00    -0.008 C 
HETATM   15  C24 UNL     1      15.184  -5.798  17.024  1.00  0.00     0.018 C 
HETATM   16  C25 UNL     1      17.378  -6.365  16.322  1.00  0.00     0.018 C 
HETATM   17  C26 UNL     1      15.870  -5.184  14.682  1.00  0.00     0.078 C 
HETATM   18  C27 UNL     1      14.906  -4.064  14.917  1.00  0.00     0.071 C 
HETATM   19  C28 UNL     1      13.861  -3.814  13.884  1.00  0.00     0.126 C 
ENDROOT
BRANCH   1  20
HETATM   20  C6  UNL     1      14.002  -2.815  11.563  1.00  0.00     0.017 C 
BRANCH  20  21
HETATM   21  C5  UNL     1      15.334  -2.252  11.111  1.00  0.00    -0.025 C 
HETATM   22  C4  UNL     1      15.742  -2.276   9.872  1.00  0.00    -0.026 C 
BRANCH  22  23
HETATM   23  C2  UNL     1      17.067  -1.697   9.530  1.00  0.00    -0.001 C 
HETATM   24  C1  UNL     1      17.965  -1.908  10.734  1.00  0.00     0.013 C 
HETATM   25  C3  UNL     1      16.966  -0.217   9.200  1.00  0.00     0.013 C 
ENDBRANCH  22  23
ENDBRANCH  20  21
BRANCH  20  26
HETATM   26  C7  UNL     1      13.196  -1.662  11.940  1.00  0.00    -0.015 C 
HETATM   27  C8  UNL     1      13.254  -0.430  11.076  1.00  0.00     0.010 C 
HETATM   28  C9  UNL     1      11.769  -1.940  12.368  1.00  0.00     0.010 C 
ENDBRANCH  20  26
ENDBRANCH   1  20
BRANCH  19  29
HETATM   29  O3  UNL     1      12.677  -4.547  14.188  1.00  0.00    -0.395 OA
ATOM     30  H3  UNL     1      12.736  -5.033  15.002  1.00  0.00     0.210 HD
ENDBRANCH  19  29
BRANCH   5  31
HETATM   31  O1  UNL     1      15.419  -7.870  12.210  1.00  0.00    -0.390 OA
ATOM     32  H1  UNL     1      14.744  -8.307  11.706  1.00  0.00     0.210 HD
ENDBRANCH   5  31
BRANCH  17  33
HETATM   33  O2  UNL     1      17.149  -4.550  14.685  1.00  0.00    -0.388 OA
ATOM     34  H2  UNL     1      17.700  -5.223  14.300  1.00  0.00     0.210 HD
ENDBRANCH  17  33
TORSDOF 7
ENDMDL
MODEL 3
REMARK VINA RESULT: -8.425914026      2.082      4.095
REMARK  7 active torsions:
REMARK  status: ('A' for Active; 'I' for Inactive)
REMARK    1  A    between atoms: C2_2  and  C4_4 
REMARK    2  A    between atoms: C5_5  and  C6_6 
REMARK    3  A    between atoms: C6_6  and  C7_7 
REMARK    4  A    between atoms: C6_6  and  C10_10 
REMARK    5  A    between atoms: C14_14  and  O1_15 
REMARK    6  A    between atoms: C26_28  and  O2_29 
REMARK    7  A    between atoms: C28_32  and  O3_33 
ROOT
HETATM    1  C10 UNL     1      17.561  -3.356  12.282  1.00  0.00     0.023 C 
HETATM    2  C11 UNL     1      16.267  -2.744  12.667  1.00  0.00     0.023 C 
HETATM    3  C12 UNL     1      15.435  -3.642  13.590  1.00  0.00     0.018 C 
HETATM    4  C13 UNL     1      14.276  -2.662  13.878  1.00  0.00     0.021 C 
HETATM    5  C14 UNL     1      16.047  -3.950  14.880  1.00  0.00     0.158 C 
HETATM    6  C15 UNL     1      15.681  -5.272  15.456  1.00  0.00    -0.049 C 
HETATM    7  C16 UNL     1      16.512  -5.842  16.354  1.00  0.00    -0.016 C 
HETATM    8  C17 UNL     1      16.182  -7.155  16.954  1.00  0.00     0.008 C 
HETATM    9  C18 UNL     1      16.853  -7.395  18.262  1.00  0.00     0.014 C 
HETATM   10  C19 UNL     1      14.662  -7.148  17.069  1.00  0.00    -0.011 C 
HETATM   11  C20 UNL     1      14.142  -8.235  17.936  1.00  0.00     0.010 C 
HETATM   12  C21 UNL     1      14.191  -7.234  15.632  1.00  0.00     0.014 C 
HETATM   13  C22 UNL     1      14.433  -5.872  15.016  1.00  0.00     0.028 C 
HETATM   14  C23 UNL     1      14.267  -5.866  13.543  1.00  0.00    -0.008 C 
HETATM   15  C24 UNL     1      14.569  -7.293  13.047  1.00  0.00     0.018 C 
HETATM   16  C25 UNL     1      12.737  -5.808  13.313  1.00  0.00     0.018 C 
HETATM   17  C26 UNL     1      14.995  -4.829  12.767  1.00  0.00     0.078 C 
HETATM   18  C27 UNL     1      16.043  -5.331  11.824  1.00  0.00     0.071 C 
HETATM   19  C28 UNL     1      17.429  -4.801  11.973  1.00  0.00     0.126 C 
ENDROOT
BRANCH   1  20
HETATM   20  C6  UNL     1      18.429  -2.543  11.419  1.00  0.00     0.017 C 
BRANCH  20  21
HETATM   21  C5  UNL     1      17.534  -1.675  10.558  1.00  0.00    -0.025 C 
HETATM   22  C4  UNL     1      16.607  -2.153   9.775  1.00  0.00    -0.026 C 
BRANCH  22  23
HETATM   23  C2  UNL     1      15.780  -1.217   8.969  1.00  0.00    -0.001 C 
HETATM   24  C1  UNL     1      16.678  -0.057   8.583  1.00  0.00     0.013 C 
HETATM   25  C3  UNL     1      14.575  -0.715   9.749  1.00  0.00     0.013 C 
ENDBRANCH  22  23
ENDBRANCH  20  21
BRANCH  20  26
HETATM   26  C7  UNL     1      19.417  -3.109  10.513  1.00  0.00    -0.015 C 
HETATM   27  C8  UNL     1      19.778  -2.341   9.269  1.00  0.00     0.010 C 
HETATM   28  C9  UNL     1      20.661  -3.701  11.146  1.00  0.00     0.010 C 
ENDBRANCH  20  26
ENDBRANCH   1  20
BRANCH  19  29
HETATM   29  O3  UNL     1      18.188  -5.634  12.845  1.00  0.00    -0.395 OA
ATOM     30  H3  UNL     1      18.259  -5.287  13.727  1.00  0.00     0.210 HD
ENDBRANCH  19  29
BRANCH   5  31
HETATM   31  O1  UNL     1      15.668  -3.033  15.905  1.00  0.00    -0.390 OA
ATOM     32  H1  UNL     1      14.781  -3.175  16.215  1.00  0.00     0.210 HD
ENDBRANCH   5  31
BRANCH  17  33
HETATM   33  O2  UNL     1      14.010  -4.244  11.914  1.00  0.00    -0.388 OA
ATOM     34  H2  UNL     1      14.487  -4.158  11.097  1.00  0.00     0.210 HD
ENDBRANCH  17  33
TORSDOF 7
ENDMDL
MODEL 4
REMARK VINA RESULT: -8.277546443      1.434      3.037
REMARK  7 active torsions:
REMARK  status: ('A' for Active; 'I' for Inactive)
REMARK    1  A    between atoms: C2_2  and  C4_4 
REMARK    2  A    between atoms: C5_5  and  C6_6 
REMARK    3  A    between atoms: C6_6  and  C7_7 
REMARK    4  A    between atoms: C6_6  and  C10_10 
REMARK    5  A    between atoms: C14_14  and  O1_15 
REMARK    6  A    between atoms: C26_28  and  O2_29 
REMARK    7  A    between atoms: C28_32  and  O3_33 
ROOT
HETATM    1  C10 UNL     1      14.928  -3.884  11.672  1.00  0.00     0.023 C 
HETATM    2  C11 UNL     1      16.232  -4.552  11.891  1.00  0.00     0.023 C 
HETATM    3  C12 UNL     1      16.159  -5.670  12.938  1.00  0.00     0.018 C 
HETATM    4  C13 UNL     1      17.603  -6.203  12.804  1.00  0.00     0.021 C 
HETATM    5  C14 UNL     1      15.275  -6.782  12.603  1.00  0.00     0.158 C 
HETATM    6  C15 UNL     1      14.643  -7.462  13.766  1.00  0.00    -0.049 C 
HETATM    7  C16 UNL     1      13.497  -8.149  13.573  1.00  0.00    -0.016 C 
HETATM    8  C17 UNL     1      12.838  -8.843  14.704  1.00  0.00     0.008 C 
HETATM    9  C18 UNL     1      11.947  -9.958  14.277  1.00  0.00     0.014 C 
HETATM   10  C19 UNL     1      13.992  -9.319  15.580  1.00  0.00    -0.011 C 
HETATM   11  C20 UNL     1      13.573 -10.312  16.600  1.00  0.00     0.010 C 
HETATM   12  C21 UNL     1      14.551  -8.040  16.166  1.00  0.00     0.014 C 
HETATM   13  C22 UNL     1      15.310  -7.350  15.051  1.00  0.00     0.028 C 
HETATM   14  C23 UNL     1      15.698  -5.960  15.391  1.00  0.00    -0.008 C 
HETATM   15  C24 UNL     1      14.675  -5.442  16.420  1.00  0.00     0.018 C 
HETATM   16  C25 UNL     1      16.951  -6.103  16.290  1.00  0.00     0.018 C 
HETATM   17  C26 UNL     1      15.911  -5.006  14.272  1.00  0.00     0.078 C 
HETATM   18  C27 UNL     1      14.961  -3.852  14.203  1.00  0.00     0.071 C 
HETATM   19  C28 UNL     1      14.195  -3.652  12.940  1.00  0.00     0.126 C 
ENDROOT
BRANCH   1  20
HETATM   20  C6  UNL     1      14.911  -2.818  10.660  1.00  0.00     0.017 C 
BRANCH  20  21
HETATM   21  C5  UNL     1      16.275  -2.158  10.667  1.00  0.00    -0.025 C 
HETATM   22  C4  UNL     1      17.103  -2.208   9.660  1.00  0.00    -0.026 C 
BRANCH  22  23
HETATM   23  C2  UNL     1      18.420  -1.527   9.766  1.00  0.00    -0.001 C 
HETATM   24  C1  UNL     1      18.622  -0.755   8.476  1.00  0.00     0.013 C 
HETATM   25  C3  UNL     1      19.552  -2.521   9.970  1.00  0.00     0.013 C 
ENDBRANCH  22  23
ENDBRANCH  20  21
BRANCH  20  26
HETATM   26  C7  UNL     1      13.947  -1.727  10.661  1.00  0.00    -0.015 C 
HETATM   27  C8  UNL     1      14.350  -0.409  10.052  1.00  0.00     0.010 C 
HETATM   28  C9  UNL     1      12.525  -2.075  10.270  1.00  0.00     0.010 C 
ENDBRANCH  20  26
ENDBRANCH   1  20
BRANCH  19  29
HETATM   29  O3  UNL     1      12.947  -4.337  13.002  1.00  0.00    -0.395 OA
ATOM     30  H3  UNL     1      12.689  -4.567  13.887  1.00  0.00     0.210 HD
ENDBRANCH  19  29
BRANCH   5  31
HETATM   31  O1  UNL     1      15.952  -7.845  11.934  1.00  0.00    -0.390 OA
ATOM     32  H1  UNL     1      16.862  -7.644  11.751  1.00  0.00     0.210 HD
ENDBRANCH   5  31
BRANCH  17  33
HETATM   33  O2  UNL     1      17.177  -4.400  14.536  1.00  0.00    -0.388 OA
ATOM     34  H2  UNL     1      17.250  -4.507  15.477  1.00  0.00     0.210 HD
ENDBRANCH  17  33
TORSDOF 7
ENDMDL
MODEL 5
REMARK VINA RESULT: -8.218454728      1.942      7.202
REMARK  7 active torsions:
REMARK  status: ('A' for Active; 'I' for Inactive)
REMARK    1  A    between atoms: C2_2  and  C4_4 
REMARK    2  A    between atoms: C5_5  and  C6_6 
REMARK    3  A    between atoms: C6_6  and  C7_7 
REMARK    4  A    between atoms: C6_6  and  C10_10 
REMARK    5  A    between atoms: C14_14  and  O1_15 
REMARK    6  A    between atoms: C26_28  and  O2_29 
REMARK    7  A    between atoms: C28_32  and  O3_33 
ROOT
HETATM    1  C10 UNL     1      16.175  -7.557  15.990  1.00  0.00     0.023 C 
HETATM    2  C11 UNL     1      15.120  -7.964  15.033  1.00  0.00     0.023 C 
HETATM    3  C12 UNL     1      14.860  -6.912  13.950  1.00  0.00     0.018 C 
HETATM    4  C13 UNL     1      13.847  -7.706  13.096  1.00  0.00     0.021 C 
HETATM    5  C14 UNL     1      15.995  -6.618  13.079  1.00  0.00     0.158 C 
HETATM    6  C15 UNL     1      16.045  -5.228  12.550  1.00  0.00    -0.049 C 
HETATM    7  C16 UNL     1      17.234  -4.726  12.153  1.00  0.00    -0.016 C 
HETATM    8  C17 UNL     1      17.327  -3.349  11.617  1.00  0.00     0.008 C 
HETATM    9  C18 UNL     1      18.515  -3.130  10.747  1.00  0.00     0.014 C 
HETATM   10  C19 UNL     1      16.012  -3.142  10.873  1.00  0.00    -0.011 C 
HETATM   11  C20 UNL     1      16.026  -1.948   9.993  1.00  0.00     0.010 C 
HETATM   12  C21 UNL     1      14.979  -3.074  11.979  1.00  0.00     0.014 C 
HETATM   13  C22 UNL     1      14.796  -4.489  12.487  1.00  0.00     0.028 C 
HETATM   14  C23 UNL     1      14.012  -4.554  13.743  1.00  0.00    -0.008 C 
HETATM   15  C24 UNL     1      14.211  -3.212  14.473  1.00  0.00     0.018 C 
HETATM   16  C25 UNL     1      12.535  -4.417  13.301  1.00  0.00     0.018 C 
HETATM   17  C26 UNL     1      14.228  -5.723  14.636  1.00  0.00     0.078 C 
HETATM   18  C27 UNL     1      14.812  -5.423  15.980  1.00  0.00     0.071 C 
HETATM   19  C28 UNL     1      16.067  -6.128  16.370  1.00  0.00     0.126 C 
ENDROOT
BRANCH   1  20
HETATM   20  C6  UNL     1      16.502  -8.528  17.043  1.00  0.00     0.017 C 
BRANCH  20  21
HETATM   21  C5  UNL     1      15.504  -8.337  18.167  1.00  0.00    -0.025 C 
HETATM   22  C4  UNL     1      14.350  -8.943  18.215  1.00  0.00    -0.026 C 
BRANCH  22  23
HETATM   23  C2  UNL     1      13.440  -8.688  19.362  1.00  0.00    -0.001 C 
HETATM   24  C1  UNL     1      13.665  -7.250  19.792  1.00  0.00     0.013 C 
HETATM   25  C3  UNL     1      13.714  -9.634  20.520  1.00  0.00     0.013 C 
ENDBRANCH  22  23
ENDBRANCH  20  21
BRANCH  20  26
HETATM   26  C7  UNL     1      17.806  -8.608  17.685  1.00  0.00    -0.015 C 
HETATM   27  C8  UNL     1      19.027  -8.243  16.882  1.00  0.00     0.010 C 
HETATM   28  C9  UNL     1      17.909  -8.044  19.088  1.00  0.00     0.010 C 
ENDBRANCH  20  26
ENDBRANCH   1  20
BRANCH  19  29
HETATM   29  O3  UNL     1      17.206  -5.358  15.995  1.00  0.00    -0.395 OA
ATOM     30  H3  UNL     1      16.992  -4.619  15.437  1.00  0.00     0.210 HD
ENDBRANCH  19  29
BRANCH   5  31
HETATM   31  O1  UNL     1      16.005  -7.415  11.896  1.00  0.00    -0.390 OA
ATOM     32  H1  UNL     1      16.735  -8.022  11.867  1.00  0.00     0.210 HD
ENDBRANCH   5  31
BRANCH  17  33
HETATM   33  O2  UNL     1      12.920  -6.216  14.926  1.00  0.00    -0.388 OA
ATOM     34  H2  UNL     1      12.461  -5.419  15.165  1.00  0.00     0.210 HD
ENDBRANCH  17  33
TORSDOF 7
ENDMDL
