MODEL 1
REMARK VINA RESULT: -5.332175509      0.000      0.000
REMARK  7 active torsions:
REMARK  status: ('A' for Active; 'I' for Inactive)
REMARK    1  A    between atoms: C2_2  and  N1_3 
REMARK    2  A    between atoms: N1_3  and  C3_6 
REMARK    3  A    between atoms: C3_6  and  C4_7 
REMARK    4  A    between atoms: C4_7  and  N2_8 
REMARK    5  A    between atoms: N2_8  and  C5_10 
REMARK    6  A    between atoms: C7_15  and  C8_16 
REMARK    7  A    between atoms: C8_16  and  N4_17 
ROOT
HETATM    1  C5  UNL     1      57.691  30.658  48.203  1.00  0.00     0.139 C 
HETATM    2  C6  UNL     1      58.785  29.714  48.561  1.00  0.00     0.260 C 
HETATM    3  N3  UNL     1      59.742  30.525  47.828  1.00  0.00    -0.064 N 
ATOM      4  H31 UNL     1      60.389  30.073  47.182  1.00  0.00     0.277 HD
ATOM      5  H32 UNL     1      60.519  30.956  48.328  1.00  0.00     0.277 HD
HETATM    6  C7  UNL     1      58.687  31.365  47.300  1.00  0.00     0.248 C 
ENDROOT
BRANCH   6   7
HETATM    7  C8  UNL     1      58.944  32.785  47.812  1.00  0.00     0.184 C 
HETATM    8  C9  UNL     1      58.254  33.760  46.928  1.00  0.00     0.220 C 
HETATM    9  O1  UNL     1      59.146  33.994  45.843  1.00  0.00    -0.319 OA
HETATM   10  C10 UNL     1      60.374  33.347  46.079  1.00  0.00     0.261 C 
HETATM   11  O2  UNL     1      61.248  33.046  45.234  1.00  0.00    -0.265 OA
HETATM   12  C11 UNL     1      60.414  33.094  47.549  1.00  0.00     0.154 C 
BRANCH   7  13
HETATM   13  N4  UNL     1      58.596  32.881  49.180  1.00  0.00    -0.066 N 
ATOM     14  H43 UNL     1      58.802  32.021  49.687  1.00  0.00     0.275 HD
ATOM     15  H42 UNL     1      59.219  33.508  49.689  1.00  0.00     0.275 HD
ATOM     16  H41 UNL     1      57.618  33.155  49.276  1.00  0.00     0.275 HD
ENDBRANCH   7  13
ENDBRANCH   6   7
BRANCH   1  17
HETATM   17  N2  UNL     1      56.547  30.090  47.601  1.00  0.00    -0.392 N 
ATOM     18  H2  UNL     1      56.425  30.094  46.589  1.00  0.00     0.159 HD
BRANCH  17  19
HETATM   19  C4  UNL     1      55.587  29.521  48.448  1.00  0.00     0.083 C 
BRANCH  19  20
HETATM   20  C3  UNL     1      54.385  30.313  48.818  1.00  0.00     0.276 C 
BRANCH  20  21
HETATM   21  N1  UNL     1      54.168  30.288  50.276  1.00  0.00    -0.071 N 
ATOM     22  H12 UNL     1      53.443  29.614  50.522  1.00  0.00     0.277 HD
ATOM     23  H11 UNL     1      53.715  31.146  50.588  1.00  0.00     0.277 HD
BRANCH  21  24
HETATM   24  C2  UNL     1      55.356  30.045  51.025  1.00  0.00     0.228 C 
HETATM   25  C1  UNL     1      55.797  31.195  51.877  1.00  0.00     0.034 C 
ENDBRANCH  21  24
ENDBRANCH  20  21
ENDBRANCH  19  20
ENDBRANCH  17  19
ENDBRANCH   1  17
TORSDOF 7
ENDMDL
MODEL 2
REMARK VINA RESULT: -4.608393896      0.996      1.076
REMARK  7 active torsions:
REMARK  status: ('A' for Active; 'I' for Inactive)
REMARK    1  A    between atoms: C2_2  and  N1_3 
REMARK    2  A    between atoms: N1_3  and  C3_6 
REMARK    3  A    between atoms: C3_6  and  C4_7 
REMARK    4  A    between atoms: C4_7  and  N2_8 
REMARK    5  A    between atoms: N2_8  and  C5_10 
REMARK    6  A    between atoms: C7_15  and  C8_16 
REMARK    7  A    between atoms: C8_16  and  N4_17 
ROOT
HETATM    1  C5  UNL     1      58.041  31.686  48.299  1.00  0.00     0.139 C 
HETATM    2  C6  UNL     1      58.868  30.596  48.887  1.00  0.00     0.260 C 
HETATM    3  N3  UNL     1      59.886  30.804  47.871  1.00  0.00    -0.064 N 
ATOM      4  H31 UNL     1      60.270  29.999  47.376  1.00  0.00     0.277 HD
ATOM      5  H32 UNL     1      60.822  31.095  48.153  1.00  0.00     0.277 HD
HETATM    6  C7  UNL     1      59.040  31.737  47.157  1.00  0.00     0.248 C 
ENDROOT
BRANCH   6   7
HETATM    7  C8  UNL     1      59.763  33.087  47.151  1.00  0.00     0.184 C 
HETATM    8  C9  UNL     1      58.834  34.142  46.671  1.00  0.00     0.220 C 
HETATM    9  O1  UNL     1      58.906  34.101  45.249  1.00  0.00    -0.319 OA
HETATM   10  C10 UNL     1      59.912  33.203  44.842  1.00  0.00     0.261 C 
HETATM   11  O2  UNL     1      60.037  32.661  43.721  1.00  0.00    -0.265 OA
HETATM   12  C11 UNL     1      60.797  33.033  46.031  1.00  0.00     0.154 C 
BRANCH   7  13
HETATM   13  N4  UNL     1      60.335  33.339  48.421  1.00  0.00    -0.066 N 
ATOM     14  H43 UNL     1      61.238  32.879  48.529  1.00  0.00     0.275 HD
ATOM     15  H42 UNL     1      60.647  34.306  48.512  1.00  0.00     0.275 HD
ATOM     16  H41 UNL     1      59.682  33.078  49.159  1.00  0.00     0.275 HD
ENDBRANCH   7  13
ENDBRANCH   6   7
BRANCH   1  17
HETATM   17  N2  UNL     1      56.704  31.358  47.989  1.00  0.00    -0.392 N 
ATOM     18  H2  UNL     1      56.104  32.007  47.481  1.00  0.00     0.159 HD
BRANCH  17  19
HETATM   19  C4  UNL     1      56.232  30.106  48.406  1.00  0.00     0.083 C 
BRANCH  19  20
HETATM   20  C3  UNL     1      54.770  29.901  48.576  1.00  0.00     0.276 C 
BRANCH  20  21
HETATM   21  N1  UNL     1      54.354  30.209  49.956  1.00  0.00    -0.071 N 
ATOM     22  H12 UNL     1      53.515  29.686  50.206  1.00  0.00     0.277 HD
ATOM     23  H11 UNL     1      53.987  31.158  50.019  1.00  0.00     0.277 HD
BRANCH  21  24
HETATM   24  C2  UNL     1      55.382  30.002  50.921  1.00  0.00     0.228 C 
HETATM   25  C1  UNL     1      55.651  31.184  51.802  1.00  0.00     0.034 C 
ENDBRANCH  21  24
ENDBRANCH  20  21
ENDBRANCH  19  20
ENDBRANCH  17  19
ENDBRANCH   1  17
TORSDOF 7
ENDMDL
MODEL 3
REMARK VINA RESULT: -3.341001220      3.126      6.023
REMARK  7 active torsions:
REMARK  status: ('A' for Active; 'I' for Inactive)
REMARK    1  A    between atoms: C2_2  and  N1_3 
REMARK    2  A    between atoms: N1_3  and  C3_6 
REMARK    3  A    between atoms: C3_6  and  C4_7 
REMARK    4  A    between atoms: C4_7  and  N2_8 
REMARK    5  A    between atoms: N2_8  and  C5_10 
REMARK    6  A    between atoms: C7_15  and  C8_16 
REMARK    7  A    between atoms: C8_16  and  N4_17 
ROOT
HETATM    1  C5  UNL     1      57.300  31.049  47.667  1.00  0.00     0.139 C 
HETATM    2  C6  UNL     1      58.328  29.974  47.604  1.00  0.00     0.260 C 
HETATM    3  N3  UNL     1      57.856  29.432  48.867  1.00  0.00    -0.064 N 
ATOM      4  H31 UNL     1      58.532  29.195  49.593  1.00  0.00     0.277 HD
ATOM      5  H32 UNL     1      57.474  28.487  48.894  1.00  0.00     0.277 HD
HETATM    6  C7  UNL     1      56.970  30.560  49.065  1.00  0.00     0.248 C 
ENDROOT
BRANCH   6   7
HETATM    7  C8  UNL     1      55.542  30.008  49.104  1.00  0.00     0.184 C 
HETATM    8  C9  UNL     1      54.607  31.087  49.516  1.00  0.00     0.220 C 
HETATM    9  O1  UNL     1      54.637  31.101  50.940  1.00  0.00    -0.319 OA
HETATM   10  C10 UNL     1      55.405  30.021  51.417  1.00  0.00     0.261 C 
HETATM   11  O2  UNL     1      55.927  29.902  52.549  1.00  0.00    -0.265 OA
HETATM   12  C11 UNL     1      55.467  29.048  50.288  1.00  0.00     0.154 C 
BRANCH   7  13
HETATM   13  N4  UNL     1      55.223  29.391  47.872  1.00  0.00    -0.066 N 
ATOM     14  H43 UNL     1      56.050  29.243  47.294  1.00  0.00     0.275 HD
ATOM     15  H42 UNL     1      54.948  28.416  47.993  1.00  0.00     0.275 HD
ATOM     16  H41 UNL     1      54.508  29.930  47.383  1.00  0.00     0.275 HD
ENDBRANCH   7  13
ENDBRANCH   6   7
BRANCH   1  17
HETATM   17  N2  UNL     1      57.771  32.373  47.528  1.00  0.00    -0.392 N 
ATOM     18  H2  UNL     1      57.390  32.998  46.818  1.00  0.00     0.159 HD
BRANCH  17  19
HETATM   19  C4  UNL     1      58.782  32.795  48.403  1.00  0.00     0.083 C 
BRANCH  19  20
HETATM   20  C3  UNL     1      60.050  33.330  47.843  1.00  0.00     0.276 C 
BRANCH  20  21
HETATM   21  N1  UNL     1      60.569  32.447  46.783  1.00  0.00    -0.071 N 
ATOM     22  H12 UNL     1      59.924  31.676  46.607  1.00  0.00     0.277 HD
ATOM     23  H11 UNL     1      61.376  31.920  47.115  1.00  0.00     0.277 HD
BRANCH  21  24
HETATM   24  C2  UNL     1      60.878  33.131  45.572  1.00  0.00     0.228 C 
HETATM   25  C1  UNL     1      59.750  33.188  44.588  1.00  0.00     0.034 C 
ENDBRANCH  21  24
ENDBRANCH  20  21
ENDBRANCH  19  20
ENDBRANCH  17  19
ENDBRANCH   1  17
TORSDOF 7
ENDMDL
MODEL 4
REMARK VINA RESULT: -2.258430259      3.000      6.122
REMARK  7 active torsions:
REMARK  status: ('A' for Active; 'I' for Inactive)
REMARK    1  A    between atoms: C2_2  and  N1_3 
REMARK    2  A    between atoms: N1_3  and  C3_6 
REMARK    3  A    between atoms: C3_6  and  C4_7 
REMARK    4  A    between atoms: C4_7  and  N2_8 
REMARK    5  A    between atoms: N2_8  and  C5_10 
REMARK    6  A    between atoms: C7_15  and  C8_16 
REMARK    7  A    between atoms: C8_16  and  N4_17 
ROOT
HETATM    1  C5  UNL     1      58.385  32.374  48.082  1.00  0.00     0.139 C 
HETATM    2  C6  UNL     1      58.817  32.821  49.435  1.00  0.00     0.260 C 
HETATM    3  N3  UNL     1      57.739  32.061  50.044  1.00  0.00    -0.064 N 
ATOM      4  H31 UNL     1      57.154  32.504  50.753  1.00  0.00     0.277 HD
ATOM      5  H32 UNL     1      57.964  31.300  50.684  1.00  0.00     0.277 HD
HETATM    6  C7  UNL     1      57.170  31.753  48.749  1.00  0.00     0.248 C 
ENDROOT
BRANCH   6   7
HETATM    7  C8  UNL     1      57.207  30.230  48.592  1.00  0.00     0.184 C 
HETATM    8  C9  UNL     1      56.310  29.826  47.478  1.00  0.00     0.220 C 
HETATM    9  O1  UNL     1      55.007  29.733  48.046  1.00  0.00    -0.319 OA
HETATM   10  C10 UNL     1      55.076  29.909  49.442  1.00  0.00     0.261 C 
HETATM   11  O2  UNL     1      54.142  30.224  50.214  1.00  0.00    -0.265 OA
HETATM   12  C11 UNL     1      56.497  29.640  49.808  1.00  0.00     0.154 C 
BRANCH   7  13
HETATM   13  N4  UNL     1      58.544  29.784  48.464  1.00  0.00    -0.066 N 
ATOM     14  H43 UNL     1      58.862  29.809  47.495  1.00  0.00     0.275 HD
ATOM     15  H42 UNL     1      59.207  30.451  48.858  1.00  0.00     0.275 HD
ATOM     16  H41 UNL     1      58.646  28.856  48.875  1.00  0.00     0.275 HD
ENDBRANCH   7  13
ENDBRANCH   6   7
BRANCH   1  17
HETATM   17  N2  UNL     1      58.162  33.391  47.129  1.00  0.00    -0.392 N 
ATOM     18  H2  UNL     1      57.226  33.754  46.952  1.00  0.00     0.159 HD
BRANCH  17  19
HETATM   19  C4  UNL     1      59.277  33.882  46.436  1.00  0.00     0.083 C 
BRANCH  19  20
HETATM   20  C3  UNL     1      60.464  33.005  46.255  1.00  0.00     0.276 C 
BRANCH  20  21
HETATM   21  N1  UNL     1      60.723  32.761  44.824  1.00  0.00    -0.071 N 
ATOM     22  H12 UNL     1      60.933  31.777  44.658  1.00  0.00     0.277 HD
ATOM     23  H11 UNL     1      61.612  33.175  44.544  1.00  0.00     0.277 HD
BRANCH  21  24
HETATM   24  C2  UNL     1      59.670  33.202  43.971  1.00  0.00     0.228 C 
HETATM   25  C1  UNL     1      59.657  32.556  42.620  1.00  0.00     0.034 C 
ENDBRANCH  21  24
ENDBRANCH  20  21
ENDBRANCH  19  20
ENDBRANCH  17  19
ENDBRANCH   1  17
TORSDOF 7
ENDMDL
MODEL 5
REMARK VINA RESULT: -2.182402423      1.241      1.908
REMARK  7 active torsions:
REMARK  status: ('A' for Active; 'I' for Inactive)
REMARK    1  A    between atoms: C2_2  and  N1_3 
REMARK    2  A    between atoms: N1_3  and  C3_6 
REMARK    3  A    between atoms: C3_6  and  C4_7 
REMARK    4  A    between atoms: C4_7  and  N2_8 
REMARK    5  A    between atoms: N2_8  and  C5_10 
REMARK    6  A    between atoms: C7_15  and  C8_16 
REMARK    7  A    between atoms: C8_16  and  N4_17 
ROOT
HETATM    1  C5  UNL     1      58.567  31.846  48.812  1.00  0.00     0.139 C 
HETATM    2  C6  UNL     1      59.232  30.532  48.596  1.00  0.00     0.260 C 
HETATM    3  N3  UNL     1      59.613  30.932  47.252  1.00  0.00    -0.064 N 
ATOM      4  H31 UNL     1      59.453  30.290  46.476  1.00  0.00     0.277 HD
ATOM      5  H32 UNL     1      60.602  30.998  47.012  1.00  0.00     0.277 HD
HETATM    6  C7  UNL     1      58.825  32.142  47.346  1.00  0.00     0.248 C 
ENDROOT
BRANCH   6   7
HETATM    7  C8  UNL     1      59.792  33.321  47.210  1.00  0.00     0.184 C 
HETATM    8  C9  UNL     1      59.082  34.476  46.602  1.00  0.00     0.220 C 
HETATM    9  O1  UNL     1      59.142  34.268  45.195  1.00  0.00    -0.319 OA
HETATM   10  C10 UNL     1      59.957  33.157  44.905  1.00  0.00     0.261 C 
HETATM   11  O2  UNL     1      59.974  32.482  43.851  1.00  0.00    -0.265 OA
HETATM   12  C11 UNL     1      60.796  32.951  46.122  1.00  0.00     0.154 C 
BRANCH   7  13
HETATM   13  N4  UNL     1      60.405  33.596  48.456  1.00  0.00    -0.066 N 
ATOM     14  H43 UNL     1      60.306  34.575  48.722  1.00  0.00     0.275 HD
ATOM     15  H42 UNL     1      59.894  33.176  49.232  1.00  0.00     0.275 HD
ATOM     16  H41 UNL     1      61.382  33.302  48.439  1.00  0.00     0.275 HD
ENDBRANCH   7  13
ENDBRANCH   6   7
BRANCH   1  17
HETATM   17  N2  UNL     1      57.226  31.804  49.248  1.00  0.00    -0.392 N 
ATOM     18  H2  UNL     1      56.466  32.141  48.657  1.00  0.00     0.159 HD
BRANCH  17  19
HETATM   19  C4  UNL     1      56.977  31.281  50.525  1.00  0.00     0.083 C 
BRANCH  19  20
HETATM   20  C3  UNL     1      55.583  31.257  51.041  1.00  0.00     0.276 C 
BRANCH  20  21
HETATM   21  N1  UNL     1      54.931  29.972  50.730  1.00  0.00    -0.071 N 
ATOM     22  H12 UNL     1      53.916  30.077  50.715  1.00  0.00     0.277 HD
ATOM     23  H11 UNL     1      55.022  29.323  51.511  1.00  0.00     0.277 HD
BRANCH  21  24
HETATM   24  C2  UNL     1      55.393  29.375  49.522  1.00  0.00     0.228 C 
HETATM   25  C1  UNL     1      54.694  29.854  48.287  1.00  0.00     0.034 C 
ENDBRANCH  21  24
ENDBRANCH  20  21
ENDBRANCH  19  20
ENDBRANCH  17  19
ENDBRANCH   1  17
TORSDOF 7
ENDMDL
