MODEL 1
REMARK VINA RESULT: -8.122517174      0.000      0.000
REMARK  1 active torsions:
REMARK  status: ('A' for Active; 'I' for Inactive)
REMARK       I    between atoms: C2_2  and  N1_4 
REMARK    1  A    between atoms: N1_4  and  N2_6 
ROOT
HETATM    1  N2  UNL     1      79.786  43.244  70.721  1.00  0.00    -0.286 N 
ATOM      2  H2  UNL     1      79.851  42.976  71.703  1.00  0.00     0.188 HD
HETATM    3  C3  UNL     1      79.445  42.349  69.857  1.00  0.00     0.098 C 
HETATM    4  C4  UNL     1      79.174  41.000  70.366  1.00  0.00     0.078 C 
HETATM    5  C5  UNL     1      78.101  40.967  71.434  1.00  0.00     0.007 C 
HETATM    6  C6  UNL     1      77.857  39.532  71.851  1.00  0.00     0.000 C 
HETATM    7  C7  UNL     1      76.402  39.317  72.189  1.00  0.00     0.000 C 
HETATM    8  C8  UNL     1      75.890  37.994  71.730  1.00  0.00     0.000 C 
HETATM    9  C9  UNL     1      75.946  37.761  70.268  1.00  0.00     0.000 C 
HETATM   10  C10 UNL     1      74.697  38.178  69.525  1.00  0.00     0.000 C 
HETATM   11  C11 UNL     1      75.053  38.701  68.126  1.00  0.00     0.000 C 
HETATM   12  C12 UNL     1      75.418  40.140  68.210  1.00  0.00     0.000 C 
HETATM   13  C13 UNL     1      76.683  40.478  67.411  1.00  0.00     0.009 C 
HETATM   14  C14 UNL     1      77.032  41.912  67.809  1.00  0.00     0.103 C 
HETATM   15  C15 UNL     1      78.461  42.200  67.540  1.00  0.00     0.223 C 
HETATM   16  O2  UNL     1      78.912  41.942  66.394  1.00  0.00    -0.273 OA
HETATM   17  N3  UNL     1      79.364  42.753  68.495  1.00  0.00    -0.316 N 
ATOM     18  H3  UNL     1      79.996  43.489  68.180  1.00  0.00     0.170 HD
ENDROOT
BRANCH   1  19
HETATM   19  N1  UNL     1      80.070  44.565  70.368  1.00  0.00    -0.269 N 
HETATM   20  C2  UNL     1      81.204  45.265  70.824  1.00  0.00     0.232 C 
HETATM   21  C1  UNL     1      81.464  46.666  70.423  1.00  0.00     0.119 C 
HETATM   22  O1  UNL     1      82.056  44.733  71.599  1.00  0.00    -0.272 OA
ATOM     23  H1  UNL     1      79.422  45.048  69.745  1.00  0.00     0.190 HD
ENDBRANCH   1  19
TORSDOF 1
ENDMDL
MODEL 2
REMARK VINA RESULT: -6.848392632      1.886      2.376
REMARK  1 active torsions:
REMARK  status: ('A' for Active; 'I' for Inactive)
REMARK       I    between atoms: C2_2  and  N1_4 
REMARK    1  A    between atoms: N1_4  and  N2_6 
ROOT
HETATM    1  N2  UNL     1      79.246  40.908  71.601  1.00  0.00    -0.286 N 
ATOM      2  H2  UNL     1      79.183  40.560  72.557  1.00  0.00     0.188 HD
HETATM    3  C3  UNL     1      78.794  40.171  70.643  1.00  0.00     0.098 C 
HETATM    4  C4  UNL     1      78.216  38.875  71.016  1.00  0.00     0.078 C 
HETATM    5  C5  UNL     1      77.083  38.989  72.013  1.00  0.00     0.007 C 
HETATM    6  C6  UNL     1      76.521  37.610  72.289  1.00  0.00     0.000 C 
HETATM    7  C7  UNL     1      75.032  37.680  72.524  1.00  0.00     0.000 C 
HETATM    8  C8  UNL     1      74.296  36.532  71.922  1.00  0.00     0.000 C 
HETATM    9  C9  UNL     1      74.410  36.402  70.450  1.00  0.00     0.000 C 
HETATM   10  C10 UNL     1      73.332  37.126  69.677  1.00  0.00     0.000 C 
HETATM   11  C11 UNL     1      73.889  37.665  68.352  1.00  0.00     0.000 C 
HETATM   12  C12 UNL     1      74.533  38.984  68.583  1.00  0.00     0.000 C 
HETATM   13  C13 UNL     1      75.896  39.108  67.889  1.00  0.00     0.009 C 
HETATM   14  C14 UNL     1      76.501  40.403  68.431  1.00  0.00     0.103 C 
HETATM   15  C15 UNL     1      77.975  40.404  68.270  1.00  0.00     0.223 C 
HETATM   16  O2  UNL     1      78.447  40.143  67.134  1.00  0.00    -0.273 OA
HETATM   17  N3  UNL     1      78.898  40.683  69.320  1.00  0.00    -0.316 N 
ATOM     18  H3  UNL     1      79.689  41.291  69.107  1.00  0.00     0.170 HD
ENDROOT
BRANCH   1  19
HETATM   19  N1  UNL     1      79.820  42.162  71.381  1.00  0.00    -0.269 N 
HETATM   20  C2  UNL     1      79.121  43.249  70.821  1.00  0.00     0.232 C 
HETATM   21  C1  UNL     1      79.771  44.561  70.606  1.00  0.00     0.119 C 
HETATM   22  O1  UNL     1      77.905  43.158  70.472  1.00  0.00    -0.272 OA
ATOM     23  H1  UNL     1      80.797  42.298  71.642  1.00  0.00     0.190 HD
ENDBRANCH   1  19
TORSDOF 1
ENDMDL
MODEL 3
REMARK VINA RESULT: -6.834422698      4.188      6.866
REMARK  1 active torsions:
REMARK  status: ('A' for Active; 'I' for Inactive)
REMARK       I    between atoms: C2_2  and  N1_4 
REMARK    1  A    between atoms: N1_4  and  N2_6 
ROOT
HETATM    1  N2  UNL     1      75.391  38.147  72.011  1.00  0.00    -0.286 N 
ATOM      2  H2  UNL     1      75.952  38.431  72.814  1.00  0.00     0.188 HD
HETATM    3  C3  UNL     1      75.301  38.950  71.004  1.00  0.00     0.098 C 
HETATM    4  C4  UNL     1      76.023  40.223  71.101  1.00  0.00     0.078 C 
HETATM    5  C5  UNL     1      77.506  40.052  71.355  1.00  0.00     0.007 C 
HETATM    6  C6  UNL     1      78.168  41.414  71.381  1.00  0.00     0.000 C 
HETATM    7  C7  UNL     1      79.560  41.341  70.803  1.00  0.00     0.000 C 
HETATM    8  C8  UNL     1      79.908  42.532  69.977  1.00  0.00     0.000 C 
HETATM    9  C9  UNL     1      79.049  42.760  68.791  1.00  0.00     0.000 C 
HETATM   10  C10 UNL     1      79.549  42.098  67.527  1.00  0.00     0.000 C 
HETATM   11  C11 UNL     1      78.370  41.644  66.655  1.00  0.00     0.000 C 
HETATM   12  C12 UNL     1      77.903  40.306  67.106  1.00  0.00     0.000 C 
HETATM   13  C13 UNL     1      76.375  40.218  67.217  1.00  0.00     0.009 C 
HETATM   14  C14 UNL     1      76.104  38.885  67.913  1.00  0.00     0.103 C 
HETATM   15  C15 UNL     1      74.762  38.882  68.542  1.00  0.00     0.223 C 
HETATM   16  O2  UNL     1      73.775  39.215  67.836  1.00  0.00    -0.273 OA
HETATM   17  N3  UNL     1      74.510  38.527  69.900  1.00  0.00    -0.316 N 
ATOM     18  H3  UNL     1      73.708  37.928  70.093  1.00  0.00     0.170 HD
ENDROOT
BRANCH   1  19
HETATM   19  N1  UNL     1      74.753  36.906  72.045  1.00  0.00    -0.269 N 
HETATM   20  C2  UNL     1      73.566  36.662  72.763  1.00  0.00     0.232 C 
HETATM   21  C1  UNL     1      72.924  35.328  72.771  1.00  0.00     0.119 C 
HETATM   22  O1  UNL     1      72.989  37.570  73.436  1.00  0.00    -0.272 OA
ATOM     23  H1  UNL     1      75.168  36.135  71.522  1.00  0.00     0.190 HD
ENDBRANCH   1  19
TORSDOF 1
ENDMDL
MODEL 4
REMARK VINA RESULT: -6.763974013      1.383      1.810
REMARK  1 active torsions:
REMARK  status: ('A' for Active; 'I' for Inactive)
REMARK       I    between atoms: C2_2  and  N1_4 
REMARK    1  A    between atoms: N1_4  and  N2_6 
ROOT
HETATM    1  N2  UNL     1      78.460  42.072  71.213  1.00  0.00    -0.286 N 
ATOM      2  H2  UNL     1      78.467  41.846  72.207  1.00  0.00     0.188 HD
HETATM    3  C3  UNL     1      78.184  41.137  70.367  1.00  0.00     0.098 C 
HETATM    4  C4  UNL     1      77.898  39.807  70.916  1.00  0.00     0.078 C 
HETATM    5  C5  UNL     1      76.760  39.803  71.914  1.00  0.00     0.007 C 
HETATM    6  C6  UNL     1      76.506  38.383  72.375  1.00  0.00     0.000 C 
HETATM    7  C7  UNL     1      75.036  38.161  72.631  1.00  0.00     0.000 C 
HETATM    8  C8  UNL     1      74.569  36.814  72.197  1.00  0.00     0.000 C 
HETATM    9  C9  UNL     1      74.719  36.521  70.752  1.00  0.00     0.000 C 
HETATM   10  C10 UNL     1      73.515  36.890  69.915  1.00  0.00     0.000 C 
HETATM   11  C11 UNL     1      73.952  37.360  68.521  1.00  0.00     0.000 C 
HETATM   12  C12 UNL     1      74.294  38.806  68.567  1.00  0.00     0.000 C 
HETATM   13  C13 UNL     1      75.604  39.129  67.835  1.00  0.00     0.009 C 
HETATM   14  C14 UNL     1      75.910  40.582  68.193  1.00  0.00     0.103 C 
HETATM   15  C15 UNL     1      77.350  40.879  68.002  1.00  0.00     0.223 C 
HETATM   16  O2  UNL     1      77.875  40.581  66.899  1.00  0.00    -0.273 OA
HETATM   17  N3  UNL     1      78.185  41.484  68.988  1.00  0.00    -0.316 N 
ATOM     18  H3  UNL     1      78.827  42.215  68.682  1.00  0.00     0.170 HD
ENDROOT
BRANCH   1  19
HETATM   19  N1  UNL     1      78.751  43.381  70.823  1.00  0.00    -0.269 N 
HETATM   20  C2  UNL     1      80.056  43.911  70.791  1.00  0.00     0.232 C 
HETATM   21  C1  UNL     1      80.316  45.306  70.371  1.00  0.00     0.119 C 
HETATM   22  O1  UNL     1      81.069  43.222  71.120  1.00  0.00    -0.272 OA
ATOM     23  H1  UNL     1      77.977  43.985  70.546  1.00  0.00     0.190 HD
ENDBRANCH   1  19
TORSDOF 1
ENDMDL
MODEL 5
REMARK VINA RESULT: -6.291492912      4.401      7.551
REMARK  1 active torsions:
REMARK  status: ('A' for Active; 'I' for Inactive)
REMARK       I    between atoms: C2_2  and  N1_4 
REMARK    1  A    between atoms: N1_4  and  N2_6 
ROOT
HETATM    1  N2  UNL     1      74.022  36.778  69.866  1.00  0.00    -0.286 N 
ATOM      2  H2  UNL     1      73.398  37.077  69.117  1.00  0.00     0.188 HD
HETATM    3  C3  UNL     1      75.239  37.207  69.866  1.00  0.00     0.098 C 
HETATM    4  C4  UNL     1      75.628  38.103  68.772  1.00  0.00     0.078 C 
HETATM    5  C5  UNL     1      74.760  39.339  68.672  1.00  0.00     0.007 C 
HETATM    6  C6  UNL     1      75.276  40.223  67.555  1.00  0.00     0.000 C 
HETATM    7  C7  UNL     1      75.088  41.680  67.900  1.00  0.00     0.000 C 
HETATM    8  C8  UNL     1      76.231  42.531  67.461  1.00  0.00     0.000 C 
HETATM    9  C9  UNL     1      77.543  42.197  68.062  1.00  0.00     0.000 C 
HETATM   10  C10 UNL     1      77.850  42.947  69.339  1.00  0.00     0.000 C 
HETATM   11  C11 UNL     1      78.669  42.069  70.296  1.00  0.00     0.000 C 
HETATM   12  C12 UNL     1      77.752  41.206  71.087  1.00  0.00     0.000 C 
HETATM   13  C13 UNL     1      78.230  39.750  71.166  1.00  0.00     0.009 C 
HETATM   14  C14 UNL     1      77.065  38.984  71.792  1.00  0.00     0.103 C 
HETATM   15  C15 UNL     1      77.153  37.539  71.473  1.00  0.00     0.223 C 
HETATM   16  O2  UNL     1      78.238  36.947  71.701  1.00  0.00    -0.273 OA
HETATM   17  N3  UNL     1      76.085  36.771  70.923  1.00  0.00    -0.316 N 
ATOM     18  H3  UNL     1      75.917  35.844  71.313  1.00  0.00     0.170 HD
ENDROOT
BRANCH   1  19
HETATM   19  N1  UNL     1      73.524  35.920  70.849  1.00  0.00    -0.269 N 
HETATM   20  C2  UNL     1      73.393  36.284  72.203  1.00  0.00     0.232 C 
HETATM   21  C1  UNL     1      72.860  35.340  73.212  1.00  0.00     0.119 C 
HETATM   22  O1  UNL     1      73.723  37.434  72.626  1.00  0.00    -0.272 OA
ATOM     23  H1  UNL     1      73.240  34.980  70.571  1.00  0.00     0.190 HD
ENDBRANCH   1  19
TORSDOF 1
ENDMDL
