MODEL 1
REMARK VINA RESULT: -7.162774022      0.000      0.000
REMARK  2 active torsions:
REMARK  status: ('A' for Active; 'I' for Inactive)
REMARK    1  A    between atoms: C2_2  and  N1_4 
REMARK       I    between atoms: N1_4  and  C4_6 
REMARK       I    between atoms: C4_6  and  N2_8 
REMARK    2  A    between atoms: C8_13  and  O3_14 
ROOT
HETATM    1  N1  UNL     1      76.061  39.255  71.628  1.00  0.00    -0.339 N 
ATOM      2  H1  UNL     1      76.816  39.343  72.308  1.00  0.00     0.164 HD
HETATM    3  C4  UNL     1      76.282  39.704  70.321  1.00  0.00     0.324 C 
HETATM    4  O1  UNL     1      75.313  39.592  69.508  1.00  0.00    -0.247 OA
HETATM    5  N2  UNL     1      77.487  40.262  69.874  1.00  0.00    -0.285 N 
HETATM    6  C5  UNL     1      78.657  40.122  70.667  1.00  0.00     0.107 A 
HETATM    7  C6  UNL     1      79.471  41.254  70.861  1.00  0.00     0.004 A 
HETATM    8  C7  UNL     1      80.506  40.820  71.642  1.00  0.00     0.155 A 
HETATM    9  O2  UNL     1      80.339  39.530  71.903  1.00  0.00    -0.298 OA
HETATM   10  C8  UNL     1      79.247  39.070  71.341  1.00  0.00     0.211 A 
HETATM   11  C9  UNL     1      78.979  42.462  70.184  1.00  0.00    -0.014 C 
HETATM   12  C10 UNL     1      77.861  43.141  70.908  1.00  0.00     0.020 C 
HETATM   13  C11 UNL     1      80.140  43.440  70.098  1.00  0.00     0.020 C 
HETATM   14  C12 UNL     1      78.621  42.081  68.759  1.00  0.00     0.044 C 
HETATM   15  C13 UNL     1      77.585  41.026  68.622  1.00  0.00     0.036 C 
HETATM   16  C14 UNL     1      78.034  40.034  67.571  1.00  0.00     0.039 C 
HETATM   17  C15 UNL     1      76.265  41.623  68.199  1.00  0.00     0.039 C 
ENDROOT
BRANCH   1  18
HETATM   18  C2  UNL     1      74.796  38.666  72.061  1.00  0.00     0.078 C 
HETATM   19  C1  UNL     1      74.937  37.166  72.034  1.00  0.00     0.032 C 
HETATM   20  C3  UNL     1      74.483  39.058  73.498  1.00  0.00     0.032 C 
ENDBRANCH   1  18
BRANCH  10  21
HETATM   21  O3  UNL     1      78.712  37.767  71.367  1.00  0.00    -0.339 OA
ATOM     22  H3  UNL     1      77.811  37.575  71.601  1.00  0.00     0.220 HD
ENDBRANCH  10  21
TORSDOF 2
ENDMDL
MODEL 2
REMARK VINA RESULT: -6.302327077      2.234      5.019
REMARK  2 active torsions:
REMARK  status: ('A' for Active; 'I' for Inactive)
REMARK    1  A    between atoms: C2_2  and  N1_4 
REMARK       I    between atoms: N1_4  and  C4_6 
REMARK       I    between atoms: C4_6  and  N2_8 
REMARK    2  A    between atoms: C8_13  and  O3_14 
ROOT
HETATM    1  N1  UNL     1      78.097  41.651  70.241  1.00  0.00    -0.339 N 
ATOM      2  H1  UNL     1      78.134  42.064  69.308  1.00  0.00     0.164 HD
HETATM    3  C4  UNL     1      77.356  40.478  70.425  1.00  0.00     0.324 C 
HETATM    4  O1  UNL     1      77.320  40.006  71.602  1.00  0.00    -0.247 OA
HETATM    5  N2  UNL     1      76.663  39.818  69.402  1.00  0.00    -0.285 N 
HETATM    6  C5  UNL     1      76.930  40.153  68.048  1.00  0.00     0.107 A 
HETATM    7  C6  UNL     1      75.839  40.335  67.177  1.00  0.00     0.004 A 
HETATM    8  C7  UNL     1      76.396  40.635  65.966  1.00  0.00     0.155 A 
HETATM    9  O2  UNL     1      77.717  40.635  66.085  1.00  0.00    -0.298 OA
HETATM   10  C8  UNL     1      78.082  40.352  67.312  1.00  0.00     0.211 A 
HETATM   11  C9  UNL     1      74.530  40.139  67.817  1.00  0.00    -0.014 C 
HETATM   12  C10 UNL     1      74.078  41.309  68.629  1.00  0.00     0.020 C 
HETATM   13  C11 UNL     1      73.512  39.919  66.709  1.00  0.00     0.020 C 
HETATM   14  C12 UNL     1      74.594  38.849  68.614  1.00  0.00     0.044 C 
HETATM   15  C13 UNL     1      75.632  38.806  69.675  1.00  0.00     0.036 C 
HETATM   16  C14 UNL     1      76.342  37.470  69.610  1.00  0.00     0.039 C 
HETATM   17  C15 UNL     1      75.009  38.962  71.041  1.00  0.00     0.039 C 
ENDROOT
BRANCH   1  18
HETATM   18  C2  UNL     1      78.819  42.311  71.326  1.00  0.00     0.078 C 
HETATM   19  C1  UNL     1      79.935  41.403  71.774  1.00  0.00     0.032 C 
HETATM   20  C3  UNL     1      79.463  43.601  70.838  1.00  0.00     0.032 C 
ENDBRANCH   1  18
BRANCH  10  21
HETATM   21  O3  UNL     1      79.378  40.247  67.854  1.00  0.00    -0.339 OA
ATOM     22  H3  UNL     1      79.773  39.422  68.112  1.00  0.00     0.220 HD
ENDBRANCH  10  21
TORSDOF 2
ENDMDL
MODEL 3
REMARK VINA RESULT: -6.043634400      0.910      1.197
REMARK  2 active torsions:
REMARK  status: ('A' for Active; 'I' for Inactive)
REMARK    1  A    between atoms: C2_2  and  N1_4 
REMARK       I    between atoms: N1_4  and  C4_6 
REMARK       I    between atoms: C4_6  and  N2_8 
REMARK    2  A    between atoms: C8_13  and  O3_14 
ROOT
HETATM    1  N1  UNL     1      76.204  39.057  72.466  1.00  0.00    -0.339 N 
ATOM      2  H1  UNL     1      77.130  39.177  72.877  1.00  0.00     0.164 HD
HETATM    3  C4  UNL     1      76.037  39.324  71.103  1.00  0.00     0.324 C 
HETATM    4  O1  UNL     1      74.867  39.178  70.633  1.00  0.00    -0.247 OA
HETATM    5  N2  UNL     1      77.069  39.739  70.251  1.00  0.00    -0.285 N 
HETATM    6  C5  UNL     1      78.418  39.620  70.678  1.00  0.00     0.107 A 
HETATM    7  C6  UNL     1      79.284  40.709  70.466  1.00  0.00     0.004 A 
HETATM    8  C7  UNL     1      80.492  40.306  70.964  1.00  0.00     0.155 A 
HETATM    9  O2  UNL     1      80.374  39.073  71.438  1.00  0.00    -0.298 OA
HETATM   10  C8  UNL     1      79.153  38.622  71.290  1.00  0.00     0.211 A 
HETATM   11  C9  UNL     1      78.646  41.854  69.802  1.00  0.00    -0.014 C 
HETATM   12  C10 UNL     1      77.815  42.692  70.719  1.00  0.00     0.020 C 
HETATM   13  C11 UNL     1      79.756  42.732  69.246  1.00  0.00     0.020 C 
HETATM   14  C12 UNL     1      77.869  41.324  68.612  1.00  0.00     0.044 C 
HETATM   15  C13 UNL     1      76.810  40.334  68.931  1.00  0.00     0.036 C 
HETATM   16  C14 UNL     1      76.896  39.190  67.943  1.00  0.00     0.039 C 
HETATM   17  C15 UNL     1      75.441  40.961  68.834  1.00  0.00     0.039 C 
ENDROOT
BRANCH   1  18
HETATM   18  C2  UNL     1      75.110  38.614  73.328  1.00  0.00     0.078 C 
HETATM   19  C1  UNL     1      74.094  39.724  73.413  1.00  0.00     0.032 C 
HETATM   20  C3  UNL     1      74.404  37.408  72.724  1.00  0.00     0.032 C 
ENDBRANCH   1  18
BRANCH  10  21
HETATM   21  O3  UNL     1      78.614  37.372  71.652  1.00  0.00    -0.339 OA
ATOM     22  H3  UNL     1      77.832  37.272  72.182  1.00  0.00     0.220 HD
ENDBRANCH  10  21
TORSDOF 2
ENDMDL
MODEL 4
REMARK VINA RESULT: -5.668096882      2.174      5.302
REMARK  2 active torsions:
REMARK  status: ('A' for Active; 'I' for Inactive)
REMARK    1  A    between atoms: C2_2  and  N1_4 
REMARK       I    between atoms: N1_4  and  C4_6 
REMARK       I    between atoms: C4_6  and  N2_8 
REMARK    2  A    between atoms: C8_13  and  O3_14 
ROOT
HETATM    1  N1  UNL     1      78.212  39.429  71.038  1.00  0.00    -0.339 N 
ATOM      2  H1  UNL     1      77.900  38.878  71.838  1.00  0.00     0.164 HD
HETATM    3  C4  UNL     1      77.306  39.675  70.001  1.00  0.00     0.324 C 
HETATM    4  O1  UNL     1      77.736  40.350  69.016  1.00  0.00    -0.247 OA
HETATM    5  N2  UNL     1      75.981  39.220  69.990  1.00  0.00    -0.285 N 
HETATM    6  C5  UNL     1      75.400  38.731  71.191  1.00  0.00     0.107 A 
HETATM    7  C6  UNL     1      74.660  37.536  71.136  1.00  0.00     0.004 A 
HETATM    8  C7  UNL     1      74.227  37.325  72.416  1.00  0.00     0.155 A 
HETATM    9  O2  UNL     1      74.666  38.310  73.188  1.00  0.00    -0.298 OA
HETATM   10  C8  UNL     1      75.372  39.174  72.499  1.00  0.00     0.211 A 
HETATM   11  C9  UNL     1      74.584  36.945  69.792  1.00  0.00    -0.014 C 
HETATM   12  C10 UNL     1      75.817  36.200  69.395  1.00  0.00     0.020 C 
HETATM   13  C11 UNL     1      73.425  35.961  69.793  1.00  0.00     0.020 C 
HETATM   14  C12 UNL     1      74.217  38.052  68.821  1.00  0.00     0.044 C 
HETATM   15  C13 UNL     1      75.167  39.192  68.766  1.00  0.00     0.036 C 
HETATM   16  C14 UNL     1      74.378  40.485  68.770  1.00  0.00     0.039 C 
HETATM   17  C15 UNL     1      76.004  39.134  67.511  1.00  0.00     0.039 C 
ENDROOT
BRANCH   1  18
HETATM   18  C2  UNL     1      79.586  39.927  71.026  1.00  0.00     0.078 C 
HETATM   19  C1  UNL     1      79.614  41.257  71.735  1.00  0.00     0.032 C 
HETATM   20  C3  UNL     1      80.505  38.991  71.798  1.00  0.00     0.032 C 
ENDBRANCH   1  18
BRANCH  10  21
HETATM   21  O3  UNL     1      76.007  40.354  72.934  1.00  0.00    -0.339 OA
ATOM     22  H3  UNL     1      76.547  40.896  72.371  1.00  0.00     0.220 HD
ENDBRANCH  10  21
TORSDOF 2
ENDMDL
MODEL 5
REMARK VINA RESULT: -5.536674558      2.301      5.302
REMARK  2 active torsions:
REMARK  status: ('A' for Active; 'I' for Inactive)
REMARK    1  A    between atoms: C2_2  and  N1_4 
REMARK       I    between atoms: N1_4  and  C4_6 
REMARK       I    between atoms: C4_6  and  N2_8 
REMARK    2  A    between atoms: C8_13  and  O3_14 
ROOT
HETATM    1  N1  UNL     1      75.793  40.410  68.552  1.00  0.00    -0.339 N 
ATOM      2  H1  UNL     1      74.947  39.839  68.554  1.00  0.00     0.164 HD
HETATM    3  C4  UNL     1      76.785  40.139  69.501  1.00  0.00     0.324 C 
HETATM    4  O1  UNL     1      77.814  40.882  69.477  1.00  0.00    -0.247 OA
HETATM    5  N2  UNL     1      76.701  39.119  70.458  1.00  0.00    -0.285 N 
HETATM    6  C5  UNL     1      75.716  38.106  70.313  1.00  0.00     0.107 A 
HETATM    7  C6  UNL     1      74.968  37.734  71.446  1.00  0.00     0.004 A 
HETATM    8  C7  UNL     1      74.123  36.753  71.010  1.00  0.00     0.155 A 
HETATM    9  O2  UNL     1      74.337  36.541  69.718  1.00  0.00    -0.298 OA
HETATM   10  C8  UNL     1      75.280  37.327  69.258  1.00  0.00     0.211 A 
HETATM   11  C9  UNL     1      75.332  38.472  72.665  1.00  0.00    -0.014 C 
HETATM   12  C10 UNL     1      74.749  39.846  72.730  1.00  0.00     0.020 C 
HETATM   13  C11 UNL     1      74.797  37.682  73.849  1.00  0.00     0.020 C 
HETATM   14  C12 UNL     1      76.845  38.460  72.778  1.00  0.00     0.044 C 
HETATM   15  C13 UNL     1      77.574  39.073  71.639  1.00  0.00     0.036 C 
HETATM   16  C14 UNL     1      78.730  38.172  71.258  1.00  0.00     0.039 C 
HETATM   17  C15 UNL     1      78.116  40.430  72.017  1.00  0.00     0.039 C 
ENDROOT
BRANCH   1  18
HETATM   18  C2  UNL     1      75.915  41.475  67.558  1.00  0.00     0.078 C 
HETATM   19  C1  UNL     1      76.355  40.858  66.255  1.00  0.00     0.032 C 
HETATM   20  C3  UNL     1      74.566  42.133  67.307  1.00  0.00     0.032 C 
ENDBRANCH   1  18
BRANCH  10  21
HETATM   21  O3  UNL     1      75.808  37.418  67.955  1.00  0.00    -0.339 OA
ATOM     22  H3  UNL     1      75.699  36.741  67.298  1.00  0.00     0.220 HD
ENDBRANCH  10  21
TORSDOF 2
ENDMDL
