MODEL 1
REMARK VINA RESULT: -7.535231054      0.000      0.000
REMARK  9 active torsions:
REMARK  status: ('A' for Active; 'I' for Inactive)
REMARK    1  A    between atoms: C1_4  and  C2_5 
REMARK    2  A    between atoms: C2_5  and  O1_6 
REMARK    3  A    between atoms: O1_6  and  C3_7 
REMARK    4  A    between atoms: C4_10  and  N3_11 
REMARK    5  A    between atoms: C5_16  and  N5_17 
REMARK    6  A    between atoms: C6_20  and  N6_21 
REMARK    7  A    between atoms: N7_23  and  N8_25 
REMARK    8  A    between atoms: N8_25  and  C7_27 
REMARK    9  A    between atoms: C8_33  and  N11_34 
ROOT
HETATM    1  C3  UNL     1      20.217  46.375  47.249  1.00  0.00     0.190 A 
HETATM    2  N2  UNL     1      19.583  45.202  47.022  1.00  0.00    -0.168 N 
ATOM      3  H2  UNL     1      20.137  44.358  46.871  1.00  0.00     0.186 HD
HETATM    4  C4  UNL     1      18.240  45.121  46.989  1.00  0.00     0.679 A 
HETATM    5  N4  UNL     1      17.470  46.203  47.181  1.00  0.00    -0.175 N 
ATOM      6  H4  UNL     1      16.452  46.140  47.155  1.00  0.00     0.186 HD
HETATM    7  C5  UNL     1      18.096  47.385  47.410  1.00  0.00     0.147 A 
HETATM    8  C6  UNL     1      19.459  47.508  47.451  1.00  0.00     0.145 A 
ENDROOT
BRANCH   8   9
HETATM    9  N6  UNL     1      20.089  48.759  47.694  1.00  0.00    -0.279 N 
HETATM   10  N7  UNL     1      20.770  49.411  46.882  1.00  0.00    -0.240 N 
ATOM     11  H7  UNL     1      21.154  50.295  47.215  1.00  0.00     0.208 HD
ATOM     12  H6  UNL     1      19.971  49.162  48.623  1.00  0.00     0.189 HD
BRANCH  10  13
HETATM   13  N8  UNL     1      21.061  49.064  45.574  1.00  0.00    -0.266 N 
ATOM     14  H8  UNL     1      21.777  48.356  45.414  1.00  0.00     0.190 HD
BRANCH  13  15
HETATM   15  C7  UNL     1      20.482  49.578  44.548  1.00  0.00     0.189 A 
HETATM   16  N9  UNL     1      19.387  50.354  44.461  1.00  0.00    -0.221 N 
HETATM   17  O2  UNL     1      19.169  50.641  43.209  1.00  0.00    -0.153 OA
ATOM     18  H9  UNL     1      18.819  50.668  45.248  1.00  0.00     0.198 HD
HETATM   19  N10 UNL     1      20.062  50.096  42.452  1.00  0.00    -0.222 N 
HETATM   20  C8  UNL     1      20.914  49.415  43.248  1.00  0.00     0.169 A 
ATOM     21  H10 UNL     1      20.115  50.168  41.435  1.00  0.00     0.198 HD
BRANCH  20  22
HETATM   22  N11 UNL     1      21.937  48.741  42.840  1.00  0.00    -0.381 N 
ATOM     23 2H11 UNL     1      22.831  49.143  42.557  1.00  0.00     0.157 HD
ATOM     24 1H11 UNL     1      22.012  47.729  42.736  1.00  0.00     0.157 HD
ENDBRANCH  20  22
ENDBRANCH  13  15
ENDBRANCH  10  13
ENDBRANCH   8   9
BRANCH   1  25
HETATM   25  O1  UNL     1      21.610  46.415  47.274  1.00  0.00    -0.328 OA
BRANCH  25  26
HETATM   26  C2  UNL     1      22.365  45.831  48.336  1.00  0.00     0.221 C 
BRANCH  26  27
HETATM   27  C1  UNL     1      21.754  46.205  49.617  1.00  0.00     0.079 C 
HETATM   28  N1  UNL     1      22.032  47.285  50.248  1.00  0.00    -0.409 N 
ATOM     29  H12 UNL     1      22.718  47.908  49.822  1.00  0.00     0.155 HD
ATOM     30  H11 UNL     1      21.608  47.545  51.139  1.00  0.00     0.155 HD
ENDBRANCH  26  27
ENDBRANCH  25  26
ENDBRANCH   1  25
BRANCH   7  31
HETATM   31  N5  UNL     1      17.397  48.441  47.598  1.00  0.00    -0.383 N 
ATOM     32  H52 UNL     1      16.844  48.498  48.454  1.00  0.00     0.157 HD
ATOM     33  H51 UNL     1      17.412  49.184  46.899  1.00  0.00     0.157 HD
ENDBRANCH   7  31
BRANCH   4  34
HETATM   34  N3  UNL     1      17.655  43.968  46.767  1.00  0.00    -0.234 N 
ATOM     35  H32 UNL     1      17.479  43.689  45.801  1.00  0.00     0.174 HD
ATOM     36  H31 UNL     1      17.387  43.371  47.550  1.00  0.00     0.174 HD
ENDBRANCH   4  34
TORSDOF 9
ENDMDL
MODEL 2
REMARK VINA RESULT: -7.066424360      4.970      7.713
REMARK  9 active torsions:
REMARK  status: ('A' for Active; 'I' for Inactive)
REMARK    1  A    between atoms: C1_4  and  C2_5 
REMARK    2  A    between atoms: C2_5  and  O1_6 
REMARK    3  A    between atoms: O1_6  and  C3_7 
REMARK    4  A    between atoms: C4_10  and  N3_11 
REMARK    5  A    between atoms: C5_16  and  N5_17 
REMARK    6  A    between atoms: C6_20  and  N6_21 
REMARK    7  A    between atoms: N7_23  and  N8_25 
REMARK    8  A    between atoms: N8_25  and  C7_27 
REMARK    9  A    between atoms: C8_33  and  N11_34 
ROOT
HETATM    1  C3  UNL     1      14.345  45.379  48.454  1.00  0.00     0.190 A 
HETATM    2  N2  UNL     1      13.938  44.986  49.682  1.00  0.00    -0.168 N 
ATOM      3  H2  UNL     1      14.588  44.479  50.283  1.00  0.00     0.186 HD
HETATM    4  C4  UNL     1      12.696  45.247  50.131  1.00  0.00     0.679 A 
HETATM    5  N4  UNL     1      11.806  45.910  49.377  1.00  0.00    -0.175 N 
ATOM      6  H4  UNL     1      10.865  46.107  49.718  1.00  0.00     0.186 HD
HETATM    7  C5  UNL     1      12.204  46.309  48.143  1.00  0.00     0.147 A 
HETATM    8  C6  UNL     1      13.458  46.062  47.651  1.00  0.00     0.145 A 
ENDROOT
BRANCH   8   9
HETATM    9  N6  UNL     1      13.848  46.492  46.353  1.00  0.00    -0.279 N 
HETATM   10  N7  UNL     1      13.813  45.814  45.310  1.00  0.00    -0.240 N 
ATOM     11  H7  UNL     1      14.130  46.273  44.456  1.00  0.00     0.208 HD
ATOM     12  H6  UNL     1      14.190  47.449  46.268  1.00  0.00     0.189 HD
BRANCH  10  13
HETATM   13  N8  UNL     1      13.388  44.502  45.187  1.00  0.00    -0.266 N 
ATOM     14  H8  UNL     1      12.455  44.334  44.813  1.00  0.00     0.190 HD
BRANCH  13  15
HETATM   15  C7  UNL     1      14.100  43.483  45.515  1.00  0.00     0.189 A 
HETATM   16  N9  UNL     1      15.434  43.339  45.596  1.00  0.00    -0.221 N 
HETATM   17  O2  UNL     1      15.707  42.122  45.972  1.00  0.00    -0.153 OA
ATOM     18  H9  UNL     1      16.122  44.066  45.397  1.00  0.00     0.198 HD
HETATM   19  N10 UNL     1      14.623  41.442  46.146  1.00  0.00    -0.222 N 
HETATM   20  C8  UNL     1      13.581  42.255  45.871  1.00  0.00     0.169 A 
ATOM     21  H10 UNL     1      14.565  40.466  46.439  1.00  0.00     0.198 HD
BRANCH  20  22
HETATM   22  N11 UNL     1      12.337  41.918  45.936  1.00  0.00    -0.381 N 
ATOM     23 2H11 UNL     1      11.732  42.053  46.747  1.00  0.00     0.157 HD
ATOM     24 1H11 UNL     1      11.775  41.474  45.209  1.00  0.00     0.157 HD
ENDBRANCH  20  22
ENDBRANCH  13  15
ENDBRANCH  10  13
ENDBRANCH   8   9
BRANCH   1  25
HETATM   25  O1  UNL     1      15.639  45.086  48.027  1.00  0.00    -0.328 OA
BRANCH  25  26
HETATM   26  C2  UNL     1      16.782  45.742  48.576  1.00  0.00     0.221 C 
BRANCH  26  27
HETATM   27  C1  UNL     1      17.185  46.832  47.679  1.00  0.00     0.079 C 
HETATM   28  N1  UNL     1      16.828  48.052  47.839  1.00  0.00    -0.409 N 
ATOM     29  H12 UNL     1      16.231  48.260  48.639  1.00  0.00     0.155 HD
ATOM     30  H11 UNL     1      17.108  48.809  47.215  1.00  0.00     0.155 HD
ENDBRANCH  26  27
ENDBRANCH  25  26
ENDBRANCH   1  25
BRANCH   7  31
HETATM   31  N5  UNL     1      11.384  46.945  47.392  1.00  0.00    -0.383 N 
ATOM     32  H52 UNL     1      10.439  46.570  47.296  1.00  0.00     0.157 HD
ATOM     33  H51 UNL     1      11.693  47.793  46.917  1.00  0.00     0.157 HD
ENDBRANCH   7  31
BRANCH   4  34
HETATM   34  N3  UNL     1      12.333  44.853  51.328  1.00  0.00    -0.234 N 
ATOM     35  H32 UNL     1      12.083  45.561  52.020  1.00  0.00     0.174 HD
ATOM     36  H31 UNL     1      12.304  43.858  51.553  1.00  0.00     0.174 HD
ENDBRANCH   4  34
TORSDOF 9
ENDMDL
MODEL 3
REMARK VINA RESULT: -7.046537742      5.140      7.679
REMARK  9 active torsions:
REMARK  status: ('A' for Active; 'I' for Inactive)
REMARK    1  A    between atoms: C1_4  and  C2_5 
REMARK    2  A    between atoms: C2_5  and  O1_6 
REMARK    3  A    between atoms: O1_6  and  C3_7 
REMARK    4  A    between atoms: C4_10  and  N3_11 
REMARK    5  A    between atoms: C5_16  and  N5_17 
REMARK    6  A    between atoms: C6_20  and  N6_21 
REMARK    7  A    between atoms: N7_23  and  N8_25 
REMARK    8  A    between atoms: N8_25  and  C7_27 
REMARK    9  A    between atoms: C8_33  and  N11_34 
ROOT
HETATM    1  C3  UNL     1      15.016  47.129  48.316  1.00  0.00     0.190 A 
HETATM    2  N2  UNL     1      15.493  47.174  49.581  1.00  0.00    -0.168 N 
ATOM      3  H2  UNL     1      16.496  47.283  49.730  1.00  0.00     0.186 HD
HETATM    4  C4  UNL     1      14.676  47.078  50.646  1.00  0.00     0.679 A 
HETATM    5  N4  UNL     1      13.350  46.932  50.499  1.00  0.00    -0.175 N 
ATOM      6  H4  UNL     1      12.732  46.859  51.307  1.00  0.00     0.186 HD
HETATM    7  C5  UNL     1      12.861  46.886  49.234  1.00  0.00     0.147 A 
HETATM    8  C6  UNL     1      13.659  46.981  48.126  1.00  0.00     0.145 A 
ENDROOT
BRANCH   8   9
HETATM    9  N6  UNL     1      13.119  46.930  46.811  1.00  0.00    -0.279 N 
HETATM   10  N7  UNL     1      12.958  45.908  46.120  1.00  0.00    -0.240 N 
ATOM     11  H7  UNL     1      12.556  46.044  45.192  1.00  0.00     0.208 HD
ATOM     12  H6  UNL     1      12.837  47.817  46.394  1.00  0.00     0.189 HD
BRANCH  10  13
HETATM   13  N8  UNL     1      13.266  44.607  46.477  1.00  0.00    -0.266 N 
ATOM     14  H8  UNL     1      13.292  44.376  47.470  1.00  0.00     0.190 HD
BRANCH  13  15
HETATM   15  C7  UNL     1      13.520  43.671  45.633  1.00  0.00     0.189 A 
HETATM   16  N9  UNL     1      14.209  43.700  44.479  1.00  0.00    -0.221 N 
HETATM   17  O2  UNL     1      14.208  42.507  43.955  1.00  0.00    -0.153 OA
ATOM     18  H9  UNL     1      14.660  44.522  44.078  1.00  0.00     0.198 HD
HETATM   19  N10 UNL     1      13.553  41.680  44.699  1.00  0.00    -0.222 N 
HETATM   20  C8  UNL     1      13.099  42.364  45.771  1.00  0.00     0.169 A 
ATOM     21  H10 UNL     1      13.405  40.688  44.512  1.00  0.00     0.198 HD
BRANCH  20  22
HETATM   22  N11 UNL     1      12.399  41.863  46.733  1.00  0.00    -0.381 N 
ATOM     23 2H11 UNL     1      11.441  42.128  46.964  1.00  0.00     0.157 HD
ATOM     24 1H11 UNL     1      12.683  41.142  47.397  1.00  0.00     0.157 HD
ENDBRANCH  20  22
ENDBRANCH  13  15
ENDBRANCH  10  13
ENDBRANCH   8   9
BRANCH   1  25
HETATM   25  O1  UNL     1      15.896  47.232  47.241  1.00  0.00    -0.328 OA
BRANCH  25  26
HETATM   26  C2  UNL     1      17.133  46.519  47.206  1.00  0.00     0.221 C 
BRANCH  26  27
HETATM   27  C1  UNL     1      16.870  45.123  46.836  1.00  0.00     0.079 C 
HETATM   28  N1  UNL     1      17.520  44.128  47.313  1.00  0.00    -0.409 N 
ATOM     29  H12 UNL     1      18.257  44.334  47.986  1.00  0.00     0.155 HD
ATOM     30  H11 UNL     1      17.337  43.157  47.056  1.00  0.00     0.155 HD
ENDBRANCH  26  27
ENDBRANCH  25  26
ENDBRANCH   1  25
BRANCH   7  31
HETATM   31  N5  UNL     1      11.601  46.748  49.051  1.00  0.00    -0.383 N 
ATOM     32  H52 UNL     1      10.978  47.027  49.810  1.00  0.00     0.157 HD
ATOM     33  H51 UNL     1      11.261  46.369  48.167  1.00  0.00     0.157 HD
ENDBRANCH   7  31
BRANCH   4  34
HETATM   34  N3  UNL     1      15.170  47.125  51.860  1.00  0.00    -0.234 N 
ATOM     35  H32 UNL     1      16.086  47.552  51.997  1.00  0.00     0.174 HD
ATOM     36  H31 UNL     1      14.640  46.741  52.644  1.00  0.00     0.174 HD
ENDBRANCH   4  34
TORSDOF 9
ENDMDL
MODEL 4
REMARK VINA RESULT: -7.005380544      3.037      6.132
REMARK  9 active torsions:
REMARK  status: ('A' for Active; 'I' for Inactive)
REMARK    1  A    between atoms: C1_4  and  C2_5 
REMARK    2  A    between atoms: C2_5  and  O1_6 
REMARK    3  A    between atoms: O1_6  and  C3_7 
REMARK    4  A    between atoms: C4_10  and  N3_11 
REMARK    5  A    between atoms: C5_16  and  N5_17 
REMARK    6  A    between atoms: C6_20  and  N6_21 
REMARK    7  A    between atoms: N7_23  and  N8_25 
REMARK    8  A    between atoms: N8_25  and  C7_27 
REMARK    9  A    between atoms: C8_33  and  N11_34 
ROOT
HETATM    1  C3  UNL     1      18.013  47.206  47.480  1.00  0.00     0.190 A 
HETATM    2  N2  UNL     1      18.591  48.397  47.204  1.00  0.00    -0.168 N 
ATOM      3  H2  UNL     1      18.011  49.236  47.173  1.00  0.00     0.186 HD
HETATM    4  C4  UNL     1      19.913  48.502  46.971  1.00  0.00     0.679 A 
HETATM    5  N4  UNL     1      20.715  47.427  47.001  1.00  0.00    -0.175 N 
ATOM      6  H4  UNL     1      21.716  47.508  46.823  1.00  0.00     0.186 HD
HETATM    7  C5  UNL     1      20.144  46.227  47.276  1.00  0.00     0.147 A 
HETATM    8  C6  UNL     1      18.805  46.080  47.519  1.00  0.00     0.145 A 
ENDROOT
BRANCH   8   9
HETATM    9  N6  UNL     1      18.234  44.809  47.806  1.00  0.00    -0.279 N 
HETATM   10  N7  UNL     1      17.416  44.193  47.099  1.00  0.00    -0.240 N 
ATOM     11  H7  UNL     1      17.102  43.288  47.449  1.00  0.00     0.208 HD
ATOM     12  H6  UNL     1      18.522  44.360  48.675  1.00  0.00     0.189 HD
BRANCH  10  13
HETATM   13  N8  UNL     1      16.888  44.606  45.888  1.00  0.00    -0.266 N 
ATOM     14  H8  UNL     1      17.525  44.713  45.099  1.00  0.00     0.190 HD
BRANCH  13  15
HETATM   15  C7  UNL     1      15.643  44.861  45.697  1.00  0.00     0.189 A 
HETATM   16  N9  UNL     1      14.998  46.037  45.599  1.00  0.00    -0.221 N 
HETATM   17  O2  UNL     1      13.730  45.811  45.403  1.00  0.00    -0.153 OA
ATOM     18  H9  UNL     1      15.432  46.958  45.666  1.00  0.00     0.198 HD
HETATM   19  N10 UNL     1      13.492  44.542  45.365  1.00  0.00    -0.222 N 
HETATM   20  C8  UNL     1      14.665  43.899  45.545  1.00  0.00     0.169 A 
ATOM     21  H10 UNL     1      12.581  44.104  45.225  1.00  0.00     0.198 HD
BRANCH  20  22
HETATM   22  N11 UNL     1      14.816  42.617  45.568  1.00  0.00    -0.381 N 
ATOM     23 2H11 UNL     1      15.713  42.130  45.564  1.00  0.00     0.157 HD
ATOM     24 1H11 UNL     1      14.085  41.906  45.592  1.00  0.00     0.157 HD
ENDBRANCH  20  22
ENDBRANCH  13  15
ENDBRANCH  10  13
ENDBRANCH   8   9
BRANCH   1  25
HETATM   25  O1  UNL     1      16.641  47.142  47.714  1.00  0.00    -0.328 OA
BRANCH  25  26
HETATM   26  C2  UNL     1      16.106  46.957  49.025  1.00  0.00     0.221 C 
BRANCH  26  27
HETATM   27  C1  UNL     1      14.663  47.228  48.995  1.00  0.00     0.079 C 
HETATM   28  N1  UNL     1      14.161  48.370  48.707  1.00  0.00    -0.409 N 
ATOM     29  H12 UNL     1      14.814  49.123  48.487  1.00  0.00     0.155 HD
ATOM     30  H11 UNL     1      13.159  48.559  48.685  1.00  0.00     0.155 HD
ENDBRANCH  26  27
ENDBRANCH  25  26
ENDBRANCH   1  25
BRANCH   7  31
HETATM   31  N5  UNL     1      20.876  45.176  47.314  1.00  0.00    -0.383 N 
ATOM     32  H52 UNL     1      20.947  44.617  46.464  1.00  0.00     0.157 HD
ATOM     33  H51 UNL     1      21.357  44.931  48.180  1.00  0.00     0.157 HD
ENDBRANCH   7  31
BRANCH   4  34
HETATM   34  N3  UNL     1      20.443  49.673  46.707  1.00  0.00    -0.234 N 
ATOM     35  H32 UNL     1      19.921  50.323  46.121  1.00  0.00     0.174 HD
ATOM     36  H31 UNL     1      21.359  49.916  47.086  1.00  0.00     0.174 HD
ENDBRANCH   4  34
TORSDOF 9
ENDMDL
MODEL 5
REMARK VINA RESULT: -6.885181937      4.516      7.461
REMARK  9 active torsions:
REMARK  status: ('A' for Active; 'I' for Inactive)
REMARK    1  A    between atoms: C1_4  and  C2_5 
REMARK    2  A    between atoms: C2_5  and  O1_6 
REMARK    3  A    between atoms: O1_6  and  C3_7 
REMARK    4  A    between atoms: C4_10  and  N3_11 
REMARK    5  A    between atoms: C5_16  and  N5_17 
REMARK    6  A    between atoms: C6_20  and  N6_21 
REMARK    7  A    between atoms: N7_23  and  N8_25 
REMARK    8  A    between atoms: N8_25  and  C7_27 
REMARK    9  A    between atoms: C8_33  and  N11_34 
ROOT
HETATM    1  C3  UNL     1      14.984  46.770  47.865  1.00  0.00     0.190 A 
HETATM    2  N2  UNL     1      15.132  47.154  49.153  1.00  0.00    -0.168 N 
ATOM      3  H2  UNL     1      16.069  47.201  49.554  1.00  0.00     0.186 HD
HETATM    4  C4  UNL     1      14.072  47.475  49.919  1.00  0.00     0.679 A 
HETATM    5  N4  UNL     1      12.821  47.428  49.436  1.00  0.00    -0.175 N 
ATOM      6  H4  UNL     1      12.020  47.671  50.018  1.00  0.00     0.186 HD
HETATM    7  C5  UNL     1      12.662  47.044  48.145  1.00  0.00     0.147 A 
HETATM    8  C6  UNL     1      13.714  46.710  47.334  1.00  0.00     0.145 A 
ENDROOT
BRANCH   8   9
HETATM    9  N6  UNL     1      13.518  46.311  45.983  1.00  0.00    -0.279 N 
HETATM   10  N7  UNL     1      13.344  45.148  45.576  1.00  0.00    -0.240 N 
ATOM     11  H7  UNL     1      13.218  45.031  44.571  1.00  0.00     0.208 HD
ATOM     12  H6  UNL     1      13.520  47.050  45.280  1.00  0.00     0.189 HD
BRANCH  10  13
HETATM   13  N8  UNL     1      13.302  43.997  46.344  1.00  0.00    -0.266 N 
ATOM     14  H8  UNL     1      12.735  44.007  47.191  1.00  0.00     0.190 HD
BRANCH  13  15
HETATM   15  C7  UNL     1      13.935  42.916  46.054  1.00  0.00     0.189 A 
HETATM   16  N9  UNL     1      13.593  41.893  45.252  1.00  0.00    -0.221 N 
HETATM   17  O2  UNL     1      14.550  41.009  45.260  1.00  0.00    -0.153 OA
ATOM     18  H9  UNL     1      12.723  41.819  44.723  1.00  0.00     0.198 HD
HETATM   19  N10 UNL     1      15.517  41.389  46.027  1.00  0.00    -0.222 N 
HETATM   20  C8  UNL     1      15.179  42.586  46.551  1.00  0.00     0.169 A 
ATOM     21  H10 UNL     1      16.382  40.876  46.205  1.00  0.00     0.198 HD
BRANCH  20  22
HETATM   22  N11 UNL     1      15.906  43.273  47.367  1.00  0.00    -0.381 N 
ATOM     23 2H11 UNL     1      15.923  44.292  47.425  1.00  0.00     0.157 HD
ATOM     24 1H11 UNL     1      16.561  42.919  48.065  1.00  0.00     0.157 HD
ENDBRANCH  20  22
ENDBRANCH  13  15
ENDBRANCH  10  13
ENDBRANCH   8   9
BRANCH   1  25
HETATM   25  O1  UNL     1      16.107  46.445  47.107  1.00  0.00    -0.328 OA
BRANCH  25  26
HETATM   26  C2  UNL     1      17.394  46.999  47.386  1.00  0.00     0.221 C 
BRANCH  26  27
HETATM   27  C1  UNL     1      18.298  45.920  47.803  1.00  0.00     0.079 C 
HETATM   28  N1  UNL     1      19.318  45.546  47.124  1.00  0.00    -0.409 N 
ATOM     29  H12 UNL     1      19.497  46.036  46.247  1.00  0.00     0.155 HD
ATOM     30  H11 UNL     1      19.947  44.797  47.413  1.00  0.00     0.155 HD
ENDBRANCH  26  27
ENDBRANCH  25  26
ENDBRANCH   1  25
BRANCH   7  31
HETATM   31  N5  UNL     1      11.484  46.986  47.646  1.00  0.00    -0.383 N 
ATOM     32  H52 UNL     1      11.098  47.839  47.241  1.00  0.00     0.157 HD
ATOM     33  H51 UNL     1      10.972  46.103  47.668  1.00  0.00     0.157 HD
ENDBRANCH   7  31
BRANCH   4  34
HETATM   34  N3  UNL     1      14.249  47.845  51.165  1.00  0.00    -0.234 N 
ATOM     35  H32 UNL     1      15.024  47.438  51.689  1.00  0.00     0.174 HD
ATOM     36  H31 UNL     1      13.619  48.525  51.592  1.00  0.00     0.174 HD
ENDBRANCH   4  34
TORSDOF 9
ENDMDL
