MODEL 1
REMARK VINA RESULT: -7.696617815      0.000      0.000
REMARK  5 active torsions:
REMARK  status: ('A' for Active; 'I' for Inactive)
REMARK    1  A    between atoms: C2_7  and  O1_8 
REMARK    2  A    between atoms: O1_8  and  C3_9 
REMARK    3  A    between atoms: C3_9  and  C4_10 
REMARK    4  A    between atoms: C5_11  and  C6_12 
REMARK    5  A    between atoms: C9_22  and  N5_23 
ROOT
HETATM    1  N1  UNL     1      16.672  47.639  48.296  1.00  0.00    -0.234 N 
ATOM      2  H11 UNL     1      17.113  48.263  48.972  1.00  0.00     0.174 HD
ATOM      3  H12 UNL     1      17.190  47.280  47.494  1.00  0.00     0.174 HD
HETATM    4  C1  UNL     1      15.442  47.285  48.441  1.00  0.00     0.679 A 
HETATM    5  N2  UNL     1      14.851  46.448  47.535  1.00  0.00    -0.169 N 
ATOM      6  H2  UNL     1      15.400  46.109  46.745  1.00  0.00     0.186 HD
HETATM    7  C2  UNL     1      13.570  46.057  47.654  1.00  0.00     0.186 A 
HETATM    8  C8  UNL     1      12.889  46.564  48.760  1.00  0.00     0.141 A 
HETATM    9  N4  UNL     1      11.532  46.208  48.970  1.00  0.00    -0.094 NA
HETATM   10  C9  UNL     1      13.489  47.400  49.661  1.00  0.00     0.143 A 
HETATM   11  N6  UNL     1      14.761  47.756  49.495  1.00  0.00    -0.175 N 
ATOM     12  H6  UNL     1      15.213  48.381  50.163  1.00  0.00     0.186 HD
ENDROOT
BRANCH   7  13
HETATM   13  O1  UNL     1      12.930  45.212  46.761  1.00  0.00    -0.329 OA
BRANCH  13  14
HETATM   14  C3  UNL     1      13.611  44.770  45.620  1.00  0.00     0.225 C 
BRANCH  14  15
HETATM   15  C4  UNL     1      14.206  43.427  45.793  1.00  0.00     0.078 A 
HETATM   16  C5  UNL     1      15.526  43.101  46.010  1.00  0.00     0.189 A 
HETATM   17  O4  UNL     1      15.589  41.791  46.101  1.00  0.00    -0.227 OA
HETATM   18  N3  UNL     1      14.436  41.244  45.964  1.00  0.00    -0.224 N 
HETATM   19  C7  UNL     1      13.530  42.227  45.767  1.00  0.00     0.276 A 
ATOM     20  H3  UNL     1      14.240  40.244  45.998  1.00  0.00     0.198 HD
HETATM   21  O5  UNL     1      12.289  42.110  45.589  1.00  0.00    -0.266 OA
BRANCH  16  22
HETATM   22  C6  UNL     1      16.621  44.056  46.113  1.00  0.00     0.237 C 
HETATM   23  O2  UNL     1      17.192  44.531  45.106  1.00  0.00    -0.642 OA
HETATM   24  O3  UNL     1      17.058  44.466  47.362  1.00  0.00    -0.642 OA
ENDBRANCH  16  22
ENDBRANCH  14  15
ENDBRANCH  13  14
ENDBRANCH   7  13
BRANCH  10  25
HETATM   25  N5  UNL     1      12.851  47.877  50.700  1.00  0.00    -0.383 N 
ATOM     26  H52 UNL     1      11.955  47.455  50.945  1.00  0.00     0.157 HD
ATOM     27  H51 UNL     1      13.223  48.645  51.260  1.00  0.00     0.157 HD
ENDBRANCH  10  25
TORSDOF 5
ENDMDL
MODEL 2
REMARK VINA RESULT: -7.644186622      2.755      4.801
REMARK  5 active torsions:
REMARK  status: ('A' for Active; 'I' for Inactive)
REMARK    1  A    between atoms: C2_7  and  O1_8 
REMARK    2  A    between atoms: O1_8  and  C3_9 
REMARK    3  A    between atoms: C3_9  and  C4_10 
REMARK    4  A    between atoms: C5_11  and  C6_12 
REMARK    5  A    between atoms: C9_22  and  N5_23 
ROOT
HETATM    1  N1  UNL     1      17.838  44.138  47.185  1.00  0.00    -0.234 N 
ATOM      2  H11 UNL     1      18.219  43.291  46.763  1.00  0.00     0.174 HD
ATOM      3  H12 UNL     1      18.362  44.657  47.890  1.00  0.00     0.174 HD
HETATM    4  C1  UNL     1      16.678  44.577  46.836  1.00  0.00     0.679 A 
HETATM    5  N2  UNL     1      16.168  45.713  47.402  1.00  0.00    -0.169 N 
ATOM      6  H2  UNL     1      16.720  46.206  48.104  1.00  0.00     0.186 HD
HETATM    7  C2  UNL     1      14.961  46.200  47.062  1.00  0.00     0.186 A 
HETATM    8  C8  UNL     1      14.270  45.469  46.096  1.00  0.00     0.141 A 
HETATM    9  N4  UNL     1      12.988  45.905  45.673  1.00  0.00    -0.094 NA
HETATM   10  C9  UNL     1      14.790  44.334  45.536  1.00  0.00     0.143 A 
HETATM   11  N6  UNL     1      15.989  43.895  45.910  1.00  0.00    -0.175 N 
ATOM     12  H6  UNL     1      16.381  43.049  45.496  1.00  0.00     0.186 HD
ENDROOT
BRANCH   7  13
HETATM   13  O1  UNL     1      14.404  47.345  47.609  1.00  0.00    -0.329 OA
BRANCH  13  14
HETATM   14  C3  UNL     1      14.322  47.476  49.000  1.00  0.00     0.225 C 
BRANCH  14  15
HETATM   15  C4  UNL     1      13.676  46.313  49.647  1.00  0.00     0.078 A 
HETATM   16  C5  UNL     1      14.240  45.389  50.499  1.00  0.00     0.189 A 
HETATM   17  O4  UNL     1      13.293  44.537  50.823  1.00  0.00    -0.227 OA
HETATM   18  N3  UNL     1      12.175  44.824  50.263  1.00  0.00    -0.224 N 
HETATM   19  C7  UNL     1      12.359  45.932  49.511  1.00  0.00     0.276 A 
ATOM     20  H3  UNL     1      11.302  44.308  50.368  1.00  0.00     0.198 HD
HETATM   21  O5  UNL     1      11.511  46.536  48.803  1.00  0.00    -0.266 OA
BRANCH  16  22
HETATM   22  C6  UNL     1      15.630  45.388  50.936  1.00  0.00     0.237 C 
HETATM   23  O2  UNL     1      16.024  46.058  51.916  1.00  0.00    -0.642 OA
HETATM   24  O3  UNL     1      16.561  44.623  50.254  1.00  0.00    -0.642 OA
ENDBRANCH  16  22
ENDBRANCH  14  15
ENDBRANCH  13  14
ENDBRANCH   7  13
BRANCH  10  25
HETATM   25  N5  UNL     1      14.142  43.646  44.629  1.00  0.00    -0.383 N 
ATOM     26  H52 UNL     1      14.409  43.774  43.653  1.00  0.00     0.157 HD
ATOM     27  H51 UNL     1      13.392  42.999  44.872  1.00  0.00     0.157 HD
ENDBRANCH  10  25
TORSDOF 5
ENDMDL
MODEL 3
REMARK VINA RESULT: -7.392398192      3.654      5.908
REMARK  5 active torsions:
REMARK  status: ('A' for Active; 'I' for Inactive)
REMARK    1  A    between atoms: C2_7  and  O1_8 
REMARK    2  A    between atoms: O1_8  and  C3_9 
REMARK    3  A    between atoms: C3_9  and  C4_10 
REMARK    4  A    between atoms: C5_11  and  C6_12 
REMARK    5  A    between atoms: C9_22  and  N5_23 
ROOT
HETATM    1  N1  UNL     1      14.311  48.063  48.808  1.00  0.00    -0.234 N 
ATOM      2  H11 UNL     1      13.328  48.336  48.810  1.00  0.00     0.174 HD
ATOM      3  H12 UNL     1      14.963  48.437  49.498  1.00  0.00     0.174 HD
HETATM    4  C1  UNL     1      14.757  47.234  47.928  1.00  0.00     0.679 A 
HETATM    5  N2  UNL     1      16.075  46.869  47.926  1.00  0.00    -0.169 N 
ATOM      6  H2  UNL     1      16.698  47.262  48.631  1.00  0.00     0.186 HD
HETATM    7  C2  UNL     1      16.575  46.006  47.023  1.00  0.00     0.186 A 
HETATM    8  C8  UNL     1      15.659  45.513  46.094  1.00  0.00     0.141 A 
HETATM    9  N4  UNL     1      16.095  44.597  45.102  1.00  0.00    -0.094 NA
HETATM   10  C9  UNL     1      14.343  45.885  46.105  1.00  0.00     0.143 A 
HETATM   11  N6  UNL     1      13.901  46.743  47.021  1.00  0.00    -0.175 N 
ATOM     12  H6  UNL     1      12.920  47.025  47.033  1.00  0.00     0.186 HD
ENDROOT
BRANCH   7  13
HETATM   13  O1  UNL     1      17.902  45.608  46.982  1.00  0.00    -0.329 OA
BRANCH  13  14
HETATM   14  C3  UNL     1      18.817  46.164  47.884  1.00  0.00     0.225 C 
BRANCH  14  15
HETATM   15  C4  UNL     1      19.702  47.168  47.256  1.00  0.00     0.078 A 
HETATM   16  C5  UNL     1      20.958  46.983  46.720  1.00  0.00     0.189 A 
HETATM   17  O4  UNL     1      21.362  48.152  46.277  1.00  0.00    -0.227 OA
HETATM   18  N3  UNL     1      20.489  49.071  46.475  1.00  0.00    -0.224 N 
HETATM   19  C7  UNL     1      19.425  48.508  47.089  1.00  0.00     0.276 A 
ATOM     20  H3  UNL     1      20.582  50.053  46.215  1.00  0.00     0.198 HD
HETATM   21  O5  UNL     1      18.359  49.067  47.456  1.00  0.00    -0.266 OA
BRANCH  16  22
HETATM   22  C6  UNL     1      21.671  45.714  46.672  1.00  0.00     0.237 C 
HETATM   23  O2  UNL     1      21.586  44.935  45.697  1.00  0.00    -0.642 OA
HETATM   24  O3  UNL     1      22.477  45.342  47.734  1.00  0.00    -0.642 OA
ENDBRANCH  16  22
ENDBRANCH  14  15
ENDBRANCH  13  14
ENDBRANCH   7  13
BRANCH  10  25
HETATM   25  N5  UNL     1      13.482  45.423  45.233  1.00  0.00    -0.383 N 
ATOM     26  H52 UNL     1      13.840  45.104  44.332  1.00  0.00     0.157 HD
ATOM     27  H51 UNL     1      12.482  45.374  45.431  1.00  0.00     0.157 HD
ENDBRANCH  10  25
TORSDOF 5
ENDMDL
MODEL 4
REMARK VINA RESULT: -7.368729325      1.666      2.630
REMARK  5 active torsions:
REMARK  status: ('A' for Active; 'I' for Inactive)
REMARK    1  A    between atoms: C2_7  and  O1_8 
REMARK    2  A    between atoms: O1_8  and  C3_9 
REMARK    3  A    between atoms: C3_9  and  C4_10 
REMARK    4  A    between atoms: C5_11  and  C6_12 
REMARK    5  A    between atoms: C9_22  and  N5_23 
ROOT
HETATM    1  N1  UNL     1      11.542  44.908  52.147  1.00  0.00    -0.234 N 
ATOM      2  H11 UNL     1      11.390  45.321  53.067  1.00  0.00     0.174 HD
ATOM      3  H12 UNL     1      11.229  43.961  51.936  1.00  0.00     0.174 HD
HETATM    4  C1  UNL     1      12.136  45.580  51.221  1.00  0.00     0.679 A 
HETATM    5  N2  UNL     1      12.339  45.026  49.986  1.00  0.00    -0.169 N 
ATOM      6  H2  UNL     1      12.013  44.076  49.811  1.00  0.00     0.186 HD
HETATM    7  C2  UNL     1      12.955  45.697  48.997  1.00  0.00     0.186 A 
HETATM    8  C8  UNL     1      13.370  46.989  49.316  1.00  0.00     0.141 A 
HETATM    9  N4  UNL     1      14.029  47.774  48.335  1.00  0.00    -0.094 NA
HETATM   10  C9  UNL     1      13.161  47.533  50.554  1.00  0.00     0.143 A 
HETATM   11  N6  UNL     1      12.547  46.825  51.498  1.00  0.00    -0.175 N 
ATOM     12  H6  UNL     1      12.390  47.225  52.423  1.00  0.00     0.186 HD
ENDROOT
BRANCH   7  13
HETATM   13  O1  UNL     1      13.183  45.177  47.732  1.00  0.00    -0.329 OA
BRANCH  13  14
HETATM   14  C3  UNL     1      13.873  43.967  47.597  1.00  0.00     0.225 C 
BRANCH  14  15
HETATM   15  C4  UNL     1      13.985  43.525  46.191  1.00  0.00     0.078 A 
HETATM   16  C5  UNL     1      14.892  43.933  45.238  1.00  0.00     0.189 A 
HETATM   17  O4  UNL     1      14.613  43.275  44.135  1.00  0.00    -0.227 OA
HETATM   18  N3  UNL     1      13.614  42.483  44.286  1.00  0.00    -0.224 N 
HETATM   19  C7  UNL     1      13.180  42.601  45.561  1.00  0.00     0.276 A 
ATOM     20  H3  UNL     1      13.219  41.873  43.571  1.00  0.00     0.198 HD
HETATM   21  O5  UNL     1      12.222  41.997  46.110  1.00  0.00    -0.266 OA
BRANCH  16  22
HETATM   22  C6  UNL     1      15.949  44.913  45.450  1.00  0.00     0.237 C 
HETATM   23  O2  UNL     1      17.162  44.615  45.378  1.00  0.00    -0.642 OA
HETATM   24  O3  UNL     1      15.617  46.225  45.741  1.00  0.00    -0.642 OA
ENDBRANCH  16  22
ENDBRANCH  14  15
ENDBRANCH  13  14
ENDBRANCH   7  13
BRANCH  10  25
HETATM   25  N5  UNL     1      13.551  48.747  50.855  1.00  0.00    -0.383 N 
ATOM     26  H52 UNL     1      14.221  49.201  50.234  1.00  0.00     0.157 HD
ATOM     27  H51 UNL     1      13.205  49.238  51.680  1.00  0.00     0.157 HD
ENDBRANCH  10  25
TORSDOF 5
ENDMDL
MODEL 5
REMARK VINA RESULT: -7.347758434      2.956      5.446
REMARK  5 active torsions:
REMARK  status: ('A' for Active; 'I' for Inactive)
REMARK    1  A    between atoms: C2_7  and  O1_8 
REMARK    2  A    between atoms: O1_8  and  C3_9 
REMARK    3  A    between atoms: C3_9  and  C4_10 
REMARK    4  A    between atoms: C5_11  and  C6_12 
REMARK    5  A    between atoms: C9_22  and  N5_23 
ROOT
HETATM    1  N1  UNL     1      13.810  43.022  44.448  1.00  0.00    -0.234 N 
ATOM      2  H11 UNL     1      12.841  42.748  44.284  1.00  0.00     0.174 HD
ATOM      3  H12 UNL     1      14.583  42.502  44.033  1.00  0.00     0.174 HD
HETATM    4  C1  UNL     1      14.083  44.042  45.187  1.00  0.00     0.679 A 
HETATM    5  N2  UNL     1      15.383  44.410  45.406  1.00  0.00    -0.169 N 
ATOM      6  H2  UNL     1      16.130  43.866  44.974  1.00  0.00     0.186 HD
HETATM    7  C2  UNL     1      15.705  45.468  46.171  1.00  0.00     0.186 A 
HETATM    8  C8  UNL     1      14.627  46.159  46.723  1.00  0.00     0.141 A 
HETATM    9  N4  UNL     1      14.869  47.290  47.545  1.00  0.00    -0.094 NA
HETATM   10  C9  UNL     1      13.332  45.783  46.498  1.00  0.00     0.143 A 
HETATM   11  N6  UNL     1      13.068  44.726  45.732  1.00  0.00    -0.175 N 
ATOM     12  H6  UNL     1      12.104  44.440  45.562  1.00  0.00     0.186 HD
ENDROOT
BRANCH   7  13
HETATM   13  O1  UNL     1      17.006  45.877  46.420  1.00  0.00    -0.329 OA
BRANCH  13  14
HETATM   14  C3  UNL     1      17.939  44.954  46.905  1.00  0.00     0.225 C 
BRANCH  14  15
HETATM   15  C4  UNL     1      19.053  45.595  47.636  1.00  0.00     0.078 A 
HETATM   16  C5  UNL     1      19.143  45.871  48.983  1.00  0.00     0.189 A 
HETATM   17  O4  UNL     1      20.309  46.444  49.180  1.00  0.00    -0.227 OA
HETATM   18  N3  UNL     1      20.978  46.563  48.092  1.00  0.00    -0.224 N 
HETATM   19  C7  UNL     1      20.234  46.046  47.088  1.00  0.00     0.276 A 
ATOM     20  H3  UNL     1      21.907  46.975  48.000  1.00  0.00     0.198 HD
HETATM   21  O5  UNL     1      20.529  45.970  45.867  1.00  0.00    -0.266 OA
BRANCH  16  22
HETATM   22  C6  UNL     1      18.117  45.570  49.972  1.00  0.00     0.237 C 
HETATM   23  O2  UNL     1      17.233  46.395  50.291  1.00  0.00    -0.642 OA
HETATM   24  O3  UNL     1      18.105  44.331  50.590  1.00  0.00    -0.642 OA
ENDBRANCH  16  22
ENDBRANCH  14  15
ENDBRANCH  13  14
ENDBRANCH   7  13
BRANCH  10  25
HETATM   25  N5  UNL     1      12.319  46.431  47.016  1.00  0.00    -0.383 N 
ATOM     26  H52 UNL     1      11.460  45.910  47.194  1.00  0.00     0.157 HD
ATOM     27  H51 UNL     1      12.369  47.425  47.242  1.00  0.00     0.157 HD
ENDBRANCH  10  25
TORSDOF 5
ENDMDL
