MODEL 1
REMARK VINA RESULT: -6.691452520      0.000      0.000
REMARK  9 active torsions:
REMARK  status: ('A' for Active; 'I' for Inactive)
REMARK    1  A    between atoms: C3_3  and  N1_4 
REMARK    2  A    between atoms: N1_4  and  N2_6 
REMARK    3  A    between atoms: N2_6  and  O1_8 
REMARK    4  A    between atoms: O1_8  and  C4_9 
REMARK    5  A    between atoms: C4_9  and  C5_10 
REMARK    6  A    between atoms: C5_10  and  O2_11 
REMARK    7  A    between atoms: N3_13  and  C6_14 
REMARK    8  A    between atoms: C6_14  and  N4_15 
REMARK    9  A    between atoms: C9_23  and  N6_24 
ROOT
HETATM    1  C1  UNL     1      18.159  45.256  47.587  1.00  0.00     0.072 C 
HETATM    2  C2  UNL     1      16.741  45.645  47.939  1.00  0.00     0.053 A 
HETATM    3  C3  UNL     1      15.748  45.220  47.226  1.00  0.00     0.148 A 
HETATM    4  N3  UNL     1      14.344  45.527  47.468  1.00  0.00    -0.299 N 
HETATM    5  C7  UNL     1      14.122  46.365  48.590  1.00  0.00     0.127 A 
HETATM    6  C8  UNL     1      15.187  46.831  49.370  1.00  0.00     0.152 A 
HETATM    7  N5  UNL     1      14.969  47.634  50.428  1.00  0.00    -0.174 N 
ATOM      8  H5  UNL     1      15.763  47.959  50.980  1.00  0.00     0.186 HD
HETATM    9  C9  UNL     1      13.728  48.019  50.775  1.00  0.00     0.679 A 
HETATM   10  N7  UNL     1      12.701  47.580  50.035  1.00  0.00    -0.175 N 
ATOM     11  H7  UNL     1      11.754  47.864  50.285  1.00  0.00     0.186 HD
HETATM   12  C10 UNL     1      12.884  46.763  48.952  1.00  0.00     0.145 A 
HETATM   13  N8  UNL     1      11.842  46.434  48.328  1.00  0.00    -0.383 N 
ATOM     14  H81 UNL     1      10.906  46.735  48.601  1.00  0.00     0.157 HD
ATOM     15  H82 UNL     1      11.978  45.825  47.521  1.00  0.00     0.157 HD
HETATM   16  N9  UNL     1      16.537  46.477  49.058  1.00  0.00    -0.341 N 
ATOM     17  H9  UNL     1      17.318  46.812  49.621  1.00  0.00     0.167 HD
ENDROOT
BRANCH   3  18
HETATM   18  N1  UNL     1      16.043  44.381  46.109  1.00  0.00    -0.264 N 
ATOM     19  H1  UNL     1      16.094  44.779  45.170  1.00  0.00     0.190 HD
BRANCH  18  20
HETATM   20  N2  UNL     1      16.246  43.122  46.288  1.00  0.00    -0.206 N 
ATOM     21  H2  UNL     1      17.180  42.728  46.175  1.00  0.00     0.216 HD
BRANCH  20  22
HETATM   22  O1  UNL     1      15.191  42.313  46.634  1.00  0.00    -0.263 OA
BRANCH  22  23
HETATM   23  C4  UNL     1      14.783  41.351  45.679  1.00  0.00     0.229 C 
BRANCH  23  24
HETATM   24  C5  UNL     1      13.753  41.930  44.733  1.00  0.00     0.193 C 
BRANCH  24  25
HETATM   25  O2  UNL     1      14.258  42.984  43.991  1.00  0.00    -0.399 OA
ATOM     26  H2  UNL     1      14.478  42.726  43.104  1.00  0.00     0.209 HD
ENDBRANCH  24  25
ENDBRANCH  23  24
ENDBRANCH  22  23
ENDBRANCH  20  22
ENDBRANCH  18  20
ENDBRANCH   3  18
BRANCH   4  27
HETATM   27  C6  UNL     1      13.357  44.987  46.587  1.00  0.00     0.361 C 
BRANCH  27  28
HETATM   28  N4  UNL     1      13.534  45.855  45.355  1.00  0.00    -0.063 N 
ATOM     29  H43 UNL     1      14.257  46.569  45.429  1.00  0.00     0.276 HD
ATOM     30  H42 UNL     1      13.946  45.385  44.549  1.00  0.00     0.276 HD
ATOM     31  H41 UNL     1      12.588  46.209  45.213  1.00  0.00     0.276 HD
ENDBRANCH  27  28
ENDBRANCH   4  27
BRANCH   9  32
HETATM   32  N6  UNL     1      13.496  48.789  51.786  1.00  0.00    -0.234 N 
ATOM     33  H62 UNL     1      13.770  49.770  51.741  1.00  0.00     0.174 HD
ATOM     34  H61 UNL     1      13.044  48.456  52.638  1.00  0.00     0.174 HD
ENDBRANCH   9  32
TORSDOF 9
ENDMDL
MODEL 2
REMARK VINA RESULT: -6.652597030      2.776      6.397
REMARK  9 active torsions:
REMARK  status: ('A' for Active; 'I' for Inactive)
REMARK    1  A    between atoms: C3_3  and  N1_4 
REMARK    2  A    between atoms: N1_4  and  N2_6 
REMARK    3  A    between atoms: N2_6  and  O1_8 
REMARK    4  A    between atoms: O1_8  and  C4_9 
REMARK    5  A    between atoms: C4_9  and  C5_10 
REMARK    6  A    between atoms: C5_10  and  O2_11 
REMARK    7  A    between atoms: N3_13  and  C6_14 
REMARK    8  A    between atoms: C6_14  and  N4_15 
REMARK    9  A    between atoms: C9_23  and  N6_24 
ROOT
HETATM    1  C1  UNL     1      12.184  47.088  49.085  1.00  0.00     0.072 C 
HETATM    2  C2  UNL     1      13.320  46.237  48.565  1.00  0.00     0.053 A 
HETATM    3  C3  UNL     1      14.549  46.565  48.804  1.00  0.00     0.148 A 
HETATM    4  N3  UNL     1      15.721  45.825  48.357  1.00  0.00    -0.299 N 
HETATM    5  C7  UNL     1      15.417  44.663  47.603  1.00  0.00     0.127 A 
HETATM    6  C8  UNL     1      14.093  44.297  47.337  1.00  0.00     0.152 A 
HETATM    7  N5  UNL     1      13.813  43.198  46.611  1.00  0.00    -0.174 N 
ATOM      8  H5  UNL     1      12.839  42.953  46.433  1.00  0.00     0.186 HD
HETATM    9  C9  UNL     1      14.787  42.414  46.116  1.00  0.00     0.679 A 
HETATM   10  N7  UNL     1      16.058  42.757  46.363  1.00  0.00    -0.175 N 
ATOM     11  H7  UNL     1      16.809  42.173  45.993  1.00  0.00     0.186 HD
HETATM   12  C10 UNL     1      16.382  43.867  47.096  1.00  0.00     0.145 A 
HETATM   13  N8  UNL     1      17.612  44.091  47.242  1.00  0.00    -0.383 N 
ATOM     14  H81 UNL     1      18.341  43.489  46.859  1.00  0.00     0.157 HD
ATOM     15  H82 UNL     1      17.853  44.918  47.789  1.00  0.00     0.157 HD
HETATM   16  N9  UNL     1      13.001  45.085  47.818  1.00  0.00    -0.341 N 
ATOM     17  H9  UNL     1      12.034  44.825  47.628  1.00  0.00     0.167 HD
ENDROOT
BRANCH   3  18
HETATM   18  N1  UNL     1      14.783  47.748  49.568  1.00  0.00    -0.264 N 
ATOM     19  H1  UNL     1      15.133  48.591  49.112  1.00  0.00     0.190 HD
BRANCH  18  20
HETATM   20  N2  UNL     1      14.551  47.750  50.836  1.00  0.00    -0.206 N 
ATOM     21  H2  UNL     1      14.053  48.529  51.268  1.00  0.00     0.216 HD
BRANCH  20  22
HETATM   22  O1  UNL     1      14.980  46.692  51.600  1.00  0.00    -0.263 OA
BRANCH  22  23
HETATM   23  C4  UNL     1      15.329  46.974  52.943  1.00  0.00     0.229 C 
BRANCH  23  24
HETATM   24  C5  UNL     1      16.319  48.116  53.016  1.00  0.00     0.193 C 
BRANCH  24  25
HETATM   25  O2  UNL     1      17.111  48.196  51.882  1.00  0.00    -0.399 OA
ATOM     26  H2  UNL     1      18.013  48.412  52.089  1.00  0.00     0.209 HD
ENDBRANCH  24  25
ENDBRANCH  23  24
ENDBRANCH  22  23
ENDBRANCH  20  22
ENDBRANCH  18  20
ENDBRANCH   3  18
BRANCH   4  27
HETATM   27  C6  UNL     1      17.019  46.317  48.696  1.00  0.00     0.361 C 
BRANCH  27  28
HETATM   28  N4  UNL     1      17.254  45.666  50.046  1.00  0.00    -0.063 N 
ATOM     29  H43 UNL     1      17.408  44.659  50.020  1.00  0.00     0.276 HD
ATOM     30  H42 UNL     1      18.148  45.888  50.485  1.00  0.00     0.276 HD
ATOM     31  H41 UNL     1      16.430  45.965  50.567  1.00  0.00     0.276 HD
ENDBRANCH  27  28
ENDBRANCH   4  27
BRANCH   9  32
HETATM   32  N6  UNL     1      14.541  41.356  45.418  1.00  0.00    -0.234 N 
ATOM     33  H62 UNL     1      14.570  40.442  45.869  1.00  0.00     0.174 HD
ATOM     34  H61 UNL     1      14.316  41.393  44.423  1.00  0.00     0.174 HD
ENDBRANCH   9  32
TORSDOF 9
ENDMDL
MODEL 3
REMARK VINA RESULT: -6.593306591      2.398      5.290
REMARK  9 active torsions:
REMARK  status: ('A' for Active; 'I' for Inactive)
REMARK    1  A    between atoms: C3_3  and  N1_4 
REMARK    2  A    between atoms: N1_4  and  N2_6 
REMARK    3  A    between atoms: N2_6  and  O1_8 
REMARK    4  A    between atoms: O1_8  and  C4_9 
REMARK    5  A    between atoms: C4_9  and  C5_10 
REMARK    6  A    between atoms: C5_10  and  O2_11 
REMARK    7  A    between atoms: N3_13  and  C6_14 
REMARK    8  A    between atoms: C6_14  and  N4_15 
REMARK    9  A    between atoms: C9_23  and  N6_24 
ROOT
HETATM    1  C1  UNL     1      16.952  45.927  50.247  1.00  0.00     0.072 C 
HETATM    2  C2  UNL     1      16.122  45.412  49.093  1.00  0.00     0.053 A 
HETATM    3  C3  UNL     1      15.230  46.168  48.538  1.00  0.00     0.148 A 
HETATM    4  N3  UNL     1      14.374  45.782  47.424  1.00  0.00    -0.299 N 
HETATM    5  C7  UNL     1      14.589  44.458  46.963  1.00  0.00     0.127 A 
HETATM    6  C8  UNL     1      15.550  43.630  47.555  1.00  0.00     0.152 A 
HETATM    7  N5  UNL     1      15.740  42.371  47.118  1.00  0.00    -0.174 N 
ATOM      8  H5  UNL     1      16.448  41.790  47.567  1.00  0.00     0.186 HD
HETATM    9  C9  UNL     1      15.019  41.861  46.104  1.00  0.00     0.679 A 
HETATM   10  N7  UNL     1      14.095  42.644  45.532  1.00  0.00    -0.175 N 
ATOM     11  H7  UNL     1      13.539  42.271  44.762  1.00  0.00     0.186 HD
HETATM   12  C10 UNL     1      13.873  43.929  45.949  1.00  0.00     0.145 A 
HETATM   13  N8  UNL     1      12.965  44.555  45.342  1.00  0.00    -0.383 N 
ATOM     14  H81 UNL     1      12.423  44.155  44.576  1.00  0.00     0.157 HD
ATOM     15  H82 UNL     1      12.799  45.513  45.653  1.00  0.00     0.157 HD
HETATM   16  N9  UNL     1      16.348  44.095  48.647  1.00  0.00    -0.341 N 
ATOM     17  H9  UNL     1      17.050  43.498  49.083  1.00  0.00     0.167 HD
ENDROOT
BRANCH   3  18
HETATM   18  N1  UNL     1      15.066  47.489  49.053  1.00  0.00    -0.264 N 
ATOM     19  H1  UNL     1      15.438  48.289  48.540  1.00  0.00     0.190 HD
BRANCH  18  20
HETATM   20  N2  UNL     1      14.446  47.670  50.168  1.00  0.00    -0.206 N 
ATOM     21  H2  UNL     1      14.867  48.234  50.907  1.00  0.00     0.216 HD
BRANCH  20  22
HETATM   22  O1  UNL     1      13.212  47.095  50.354  1.00  0.00    -0.263 OA
BRANCH  22  23
HETATM   23  C4  UNL     1      13.054  46.275  51.497  1.00  0.00     0.229 C 
BRANCH  23  24
HETATM   24  C5  UNL     1      12.957  44.816  51.106  1.00  0.00     0.193 C 
BRANCH  24  25
HETATM   25  O2  UNL     1      12.256  44.636  49.926  1.00  0.00    -0.399 OA
ATOM     26  H2  UNL     1      12.758  44.152  49.280  1.00  0.00     0.209 HD
ENDBRANCH  24  25
ENDBRANCH  23  24
ENDBRANCH  22  23
ENDBRANCH  20  22
ENDBRANCH  18  20
ENDBRANCH   3  18
BRANCH   4  27
HETATM   27  C6  UNL     1      13.429  46.727  46.920  1.00  0.00     0.361 C 
BRANCH  27  28
HETATM   28  N4  UNL     1      12.211  46.435  47.776  1.00  0.00    -0.063 N 
ATOM     29  H43 UNL     1      12.088  45.456  48.034  1.00  0.00     0.276 HD
ATOM     30  H42 UNL     1      12.263  46.779  48.735  1.00  0.00     0.276 HD
ATOM     31  H41 UNL     1      11.460  46.832  47.213  1.00  0.00     0.276 HD
ENDBRANCH  27  28
ENDBRANCH   4  27
BRANCH   9  32
HETATM   32  N6  UNL     1      15.185  40.656  45.669  1.00  0.00    -0.234 N 
ATOM     33  H62 UNL     1      15.435  39.917  46.327  1.00  0.00     0.174 HD
ATOM     34  H61 UNL     1      15.077  40.407  44.686  1.00  0.00     0.174 HD
ENDBRANCH   9  32
TORSDOF 9
ENDMDL
MODEL 4
REMARK VINA RESULT: -6.583851214      2.379      5.915
REMARK  9 active torsions:
REMARK  status: ('A' for Active; 'I' for Inactive)
REMARK    1  A    between atoms: C3_3  and  N1_4 
REMARK    2  A    between atoms: N1_4  and  N2_6 
REMARK    3  A    between atoms: N2_6  and  O1_8 
REMARK    4  A    between atoms: O1_8  and  C4_9 
REMARK    5  A    between atoms: C4_9  and  C5_10 
REMARK    6  A    between atoms: C5_10  and  O2_11 
REMARK    7  A    between atoms: N3_13  and  C6_14 
REMARK    8  A    between atoms: C6_14  and  N4_15 
REMARK    9  A    between atoms: C9_23  and  N6_24 
ROOT
HETATM    1  C1  UNL     1      11.910  47.250  47.675  1.00  0.00     0.072 C 
HETATM    2  C2  UNL     1      13.134  46.371  47.556  1.00  0.00     0.053 A 
HETATM    3  C3  UNL     1      14.286  46.789  47.973  1.00  0.00     0.148 A 
HETATM    4  N3  UNL     1      15.530  46.034  47.910  1.00  0.00    -0.299 N 
HETATM    5  C7  UNL     1      15.394  44.745  47.334  1.00  0.00     0.127 A 
HETATM    6  C8  UNL     1      14.154  44.280  46.879  1.00  0.00     0.152 A 
HETATM    7  N5  UNL     1      14.036  43.059  46.324  1.00  0.00    -0.174 N 
ATOM      8  H5  UNL     1      13.121  42.745  46.003  1.00  0.00     0.186 HD
HETATM    9  C9  UNL     1      15.096  42.244  46.183  1.00  0.00     0.679 A 
HETATM   10  N7  UNL     1      16.288  42.680  46.613  1.00  0.00    -0.175 N 
ATOM     11  H7  UNL     1      17.102  42.073  46.513  1.00  0.00     0.186 HD
HETATM   12  C10 UNL     1      16.447  43.915  47.183  1.00  0.00     0.145 A 
HETATM   13  N8  UNL     1      17.620  44.214  47.529  1.00  0.00    -0.383 N 
ATOM     14  H81 UNL     1      18.416  43.587  47.414  1.00  0.00     0.157 HD
ATOM     15  H82 UNL     1      17.739  45.134  47.953  1.00  0.00     0.157 HD
HETATM   16  N9  UNL     1      12.983  45.093  46.982  1.00  0.00    -0.341 N 
ATOM     17  H9  UNL     1      12.076  44.761  46.653  1.00  0.00     0.167 HD
ENDROOT
BRANCH   3  18
HETATM   18  N1  UNL     1      14.351  48.098  48.540  1.00  0.00    -0.264 N 
ATOM     19  H1  UNL     1      14.749  48.869  48.004  1.00  0.00     0.190 HD
BRANCH  18  20
HETATM   20  N2  UNL     1      13.906  48.302  49.732  1.00  0.00    -0.206 N 
ATOM     21  H2  UNL     1      13.360  49.138  49.942  1.00  0.00     0.216 HD
BRANCH  20  22
HETATM   22  O1  UNL     1      14.173  47.384  50.718  1.00  0.00    -0.263 OA
BRANCH  22  23
HETATM   23  C4  UNL     1      13.059  46.814  51.380  1.00  0.00     0.229 C 
BRANCH  23  24
HETATM   24  C5  UNL     1      12.978  45.326  51.118  1.00  0.00     0.193 C 
BRANCH  24  25
HETATM   25  O2  UNL     1      14.220  44.771  50.858  1.00  0.00    -0.399 OA
ATOM     26  H2  UNL     1      14.484  44.153  51.530  1.00  0.00     0.209 HD
ENDBRANCH  24  25
ENDBRANCH  23  24
ENDBRANCH  22  23
ENDBRANCH  20  22
ENDBRANCH  18  20
ENDBRANCH   3  18
BRANCH   4  27
HETATM   27  C6  UNL     1      16.728  46.634  48.407  1.00  0.00     0.361 C 
BRANCH  27  28
HETATM   28  N4  UNL     1      16.695  46.228  49.868  1.00  0.00    -0.063 N 
ATOM     29  H43 UNL     1      17.602  46.009  50.277  1.00  0.00     0.276 HD
ATOM     30  H42 UNL     1      16.474  46.979  50.522  1.00  0.00     0.276 HD
ATOM     31  H41 UNL     1      16.028  45.456  49.854  1.00  0.00     0.276 HD
ENDBRANCH  27  28
ENDBRANCH   4  27
BRANCH   9  32
HETATM   32  N6  UNL     1      15.005  41.070  45.654  1.00  0.00    -0.234 N 
ATOM     33  H62 UNL     1      14.331  40.910  44.905  1.00  0.00     0.174 HD
ATOM     34  H61 UNL     1      15.583  40.285  45.955  1.00  0.00     0.174 HD
ENDBRANCH   9  32
TORSDOF 9
ENDMDL
MODEL 5
REMARK VINA RESULT: -6.517010648      2.663      5.662
REMARK  9 active torsions:
REMARK  status: ('A' for Active; 'I' for Inactive)
REMARK    1  A    between atoms: C3_3  and  N1_4 
REMARK    2  A    between atoms: N1_4  and  N2_6 
REMARK    3  A    between atoms: N2_6  and  O1_8 
REMARK    4  A    between atoms: O1_8  and  C4_9 
REMARK    5  A    between atoms: C4_9  and  C5_10 
REMARK    6  A    between atoms: C5_10  and  O2_11 
REMARK    7  A    between atoms: N3_13  and  C6_14 
REMARK    8  A    between atoms: C6_14  and  N4_15 
REMARK    9  A    between atoms: C9_23  and  N6_24 
ROOT
HETATM    1  C1  UNL     1      17.616  45.048  49.885  1.00  0.00     0.072 C 
HETATM    2  C2  UNL     1      16.518  45.010  48.846  1.00  0.00     0.053 A 
HETATM    3  C3  UNL     1      15.736  46.028  48.681  1.00  0.00     0.148 A 
HETATM    4  N3  UNL     1      14.648  46.107  47.716  1.00  0.00    -0.299 N 
HETATM    5  C7  UNL     1      14.491  44.939  46.927  1.00  0.00     0.127 A 
HETATM    6  C8  UNL     1      15.331  43.831  47.095  1.00  0.00     0.152 A 
HETATM    7  N5  UNL     1      15.168  42.722  46.348  1.00  0.00    -0.174 N 
ATOM      8  H5  UNL     1      15.795  41.930  46.490  1.00  0.00     0.186 HD
HETATM    9  C9  UNL     1      14.200  42.634  45.420  1.00  0.00     0.679 A 
HETATM   10  N7  UNL     1      13.389  43.687  45.253  1.00  0.00    -0.175 N 
ATOM     11  H7  UNL     1      12.648  43.635  44.553  1.00  0.00     0.186 HD
HETATM   12  C10 UNL     1      13.523  44.832  45.993  1.00  0.00     0.145 A 
HETATM   13  N8  UNL     1      12.688  45.743  45.754  1.00  0.00    -0.383 N 
ATOM     14  H81 UNL     1      11.956  45.661  45.048  1.00  0.00     0.157 HD
ATOM     15  H82 UNL     1      12.788  46.595  46.305  1.00  0.00     0.157 HD
HETATM   16  N9  UNL     1      16.376  43.843  48.070  1.00  0.00    -0.341 N 
ATOM     17  H9  UNL     1      16.992  43.040  48.198  1.00  0.00     0.167 HD
ENDROOT
BRANCH   3  18
HETATM   18  N1  UNL     1      15.949  47.170  49.511  1.00  0.00    -0.264 N 
ATOM     19  H1  UNL     1      16.348  48.022  49.116  1.00  0.00     0.190 HD
BRANCH  18  20
HETATM   20  N2  UNL     1      15.637  47.123  50.760  1.00  0.00    -0.206 N 
ATOM     21  H2  UNL     1      16.310  47.412  51.471  1.00  0.00     0.216 HD
BRANCH  20  22
HETATM   22  O1  UNL     1      14.390  46.679  51.126  1.00  0.00    -0.263 OA
BRANCH  22  23
HETATM   23  C4  UNL     1      13.829  47.244  52.297  1.00  0.00     0.229 C 
BRANCH  23  24
HETATM   24  C5  UNL     1      13.213  48.595  52.004  1.00  0.00     0.193 C 
BRANCH  24  25
HETATM   25  O2  UNL     1      13.561  49.068  50.749  1.00  0.00    -0.399 OA
ATOM     26  H2  UNL     1      13.789  49.991  50.764  1.00  0.00     0.209 HD
ENDBRANCH  24  25
ENDBRANCH  23  24
ENDBRANCH  22  23
ENDBRANCH  20  22
ENDBRANCH  18  20
ENDBRANCH   3  18
BRANCH   4  27
HETATM   27  C6  UNL     1      13.863  47.299  47.655  1.00  0.00     0.361 C 
BRANCH  27  28
HETATM   28  N4  UNL     1      12.798  47.022  48.699  1.00  0.00    -0.063 N 
ATOM     29  H43 UNL     1      12.663  46.038  48.930  1.00  0.00     0.276 HD
ATOM     30  H42 UNL     1      13.036  47.311  49.648  1.00  0.00     0.276 HD
ATOM     31  H41 UNL     1      11.986  47.488  48.295  1.00  0.00     0.276 HD
ENDBRANCH  27  28
ENDBRANCH   4  27
BRANCH   9  32
HETATM   32  N6  UNL     1      14.026  41.580  44.694  1.00  0.00    -0.234 N 
ATOM     33  H62 UNL     1      14.677  41.384  43.934  1.00  0.00     0.174 HD
ATOM     34  H61 UNL     1      13.258  40.927  44.847  1.00  0.00     0.174 HD
ENDBRANCH   9  32
TORSDOF 9
ENDMDL
