MODEL 1
REMARK VINA RESULT: -8.755019090      0.000      0.000
REMARK  13 active torsions:
REMARK  status: ('A' for Active; 'I' for Inactive)
REMARK    1  A    between atoms: O1_2  and  C2_3 
REMARK    2  A    between atoms: C4_5  and  C5_6 
REMARK    3  A    between atoms: C5_6  and  O2_7 
REMARK    4  A    between atoms: O2_7  and  N1_8 
REMARK    5  A    between atoms: N1_8  and  C6_10 
REMARK    6  A    between atoms: C7_11  and  C8_12 
REMARK    7  A    between atoms: C15_24  and  C16_25 
REMARK    8  A    between atoms: N3_28  and  N4_29 
REMARK    9  A    between atoms: C17_32  and  N5_33 
REMARK   10  A    between atoms: C18_38  and  O8_39 
REMARK   11  A    between atoms: C20_43  and  O10_44 
REMARK   12  A    between atoms: C20_43  and  O11_46 
REMARK   13  A    between atoms: C22_48  and  O12_49 
ROOT
HETATM    1  C6  UNL     1      17.483   5.315   7.610  1.00  0.00     0.124 A 
HETATM    2  C7  UNL     1      16.947   6.458   8.183  1.00  0.00     0.109 A 
HETATM    3  O7  UNL     1      17.891   6.946   8.942  1.00  0.00    -0.301 OA
HETATM    4  C15 UNL     1      18.985   6.254   8.933  1.00  0.00     0.157 A 
HETATM    5  C18 UNL     1      18.762   5.194   8.086  1.00  0.00     0.135 A 
ENDROOT
BRANCH   1   6
HETATM    6  N1  UNL     1      16.821   4.475   6.696  1.00  0.00    -0.256 N 
ATOM      7  H1  UNL     1      16.806   4.721   5.707  1.00  0.00     0.195 HD
BRANCH   6   8
HETATM    8  O2  UNL     1      16.205   3.346   7.111  1.00  0.00    -0.249 OA
BRANCH   8   9
HETATM    9  C5  UNL     1      14.919   3.248   7.619  1.00  0.00     0.182 C 
BRANCH   9  10
HETATM   10  C4  UNL     1      13.925   3.125   6.772  1.00  0.00     0.042 C 
HETATM   11  C3  UNL     1      13.411   4.268   6.042  1.00  0.00     0.052 C 
HETATM   12  C2  UNL     1      12.406   4.144   5.203  1.00  0.00     0.081 C 
HETATM   13  C22 UNL     1      11.740   2.868   4.959  1.00  0.00     0.245 C 
HETATM   14  C20 UNL     1      12.628   1.691   5.168  1.00  0.00     0.262 C 
HETATM   15  C19 UNL     1      13.279   1.854   6.522  1.00  0.00     0.226 C 
HETATM   16  O9  UNL     1      13.279   0.974   7.386  1.00  0.00    -0.286 OA
BRANCH  12  17
HETATM   17  O1  UNL     1      12.000   5.328   4.547  1.00  0.00    -0.357 OA
HETATM   18  C1  UNL     1      11.028   6.186   5.117  1.00  0.00     0.209 C 
ENDBRANCH  12  17
BRANCH  13  19
HETATM   19  O12 UNL     1      10.720   2.764   5.950  1.00  0.00    -0.383 OA
ATOM     20  H12 UNL     1       9.993   2.321   5.530  1.00  0.00     0.210 HD
ENDBRANCH  13  19
BRANCH  14  21
HETATM   21  O10 UNL     1      13.704   1.714   4.258  1.00  0.00    -0.357 OA
ATOM     22  H10 UNL     1      14.351   1.133   4.643  1.00  0.00     0.213 HD
ENDBRANCH  14  21
BRANCH  14  23
HETATM   23  O11 UNL     1      11.983   0.455   5.126  1.00  0.00    -0.351 OA
HETATM   24  C21 UNL     1      12.140  -0.082   3.854  1.00  0.00     0.206 C 
ENDBRANCH  14  23
ENDBRANCH   9  10
ENDBRANCH   8   9
ENDBRANCH   6   8
ENDBRANCH   1   6
BRANCH   2  25
HETATM   25  C8  UNL     1      15.609   6.949   7.957  1.00  0.00     0.063 C 
HETATM   26  C9  UNL     1      14.536   6.747   8.659  1.00  0.00     0.117 C 
HETATM   27  C10 UNL     1      13.262   7.364   8.208  1.00  0.00     0.302 C 
HETATM   28  C14 UNL     1      14.483   5.970   9.883  1.00  0.00     0.302 C 
HETATM   29  O3  UNL     1      13.255   8.042   7.165  1.00  0.00    -0.259 OA
HETATM   30  O4  UNL     1      12.144   7.158   8.969  1.00  0.00    -0.280 OA
HETATM   31  C11 UNL     1      12.265   6.817  10.319  1.00  0.00     0.175 C 
HETATM   32  C12 UNL     1      10.945   6.309  10.882  1.00  0.00     0.080 C 
HETATM   33  C13 UNL     1      12.627   8.054  11.149  1.00  0.00     0.080 C 
HETATM   34  O5  UNL     1      13.261   5.852  10.545  1.00  0.00    -0.280 OA
HETATM   35  O6  UNL     1      15.473   5.401  10.376  1.00  0.00    -0.259 OA
ENDBRANCH   2  25
BRANCH   5  36
HETATM   36  O8  UNL     1      19.692   4.182   7.780  1.00  0.00    -0.356 OA
ATOM     37  H8  UNL     1      20.600   4.135   8.055  1.00  0.00     0.218 HD
ENDBRANCH   5  36
BRANCH   4  38
HETATM   38  C16 UNL     1      20.224   6.532   9.672  1.00  0.00     0.174 A 
HETATM   39  N2  UNL     1      20.308   7.394  10.706  1.00  0.00    -0.247 N 
HETATM   40  N3  UNL     1      21.536   7.433  11.153  1.00  0.00    -0.025 N 
ATOM     41  H2  UNL     1      19.530   7.934  11.083  1.00  0.00     0.191 HD
HETATM   42  C17 UNL     1      22.270   6.570  10.383  1.00  0.00     0.713 A 
HETATM   43  N6  UNL     1      21.447   6.027   9.479  1.00  0.00    -0.170 N 
ATOM     44  H6  UNL     1      21.707   5.346   8.766  1.00  0.00     0.186 HD
BRANCH  40  45
HETATM   45  N4  UNL     1      22.132   8.147  12.182  1.00  0.00    -0.309 N 
ATOM     46  H42 UNL     1      22.659   7.666  12.912  1.00  0.00     0.179 HD
ATOM     47  H41 UNL     1      22.165   9.144  12.397  1.00  0.00     0.179 HD
ENDBRANCH  40  45
BRANCH  42  48
HETATM   48  N5  UNL     1      23.516   6.322  10.489  1.00  0.00    -0.231 N 
ATOM     49  H52 UNL     1      24.093   6.535  11.302  1.00  0.00     0.174 HD
ATOM     50  H51 UNL     1      24.113   5.875   9.792  1.00  0.00     0.174 HD
ENDBRANCH  42  48
ENDBRANCH   4  38
TORSDOF 13
ENDMDL
MODEL 2
REMARK VINA RESULT: -8.691689498      3.708      8.605
REMARK  13 active torsions:
REMARK  status: ('A' for Active; 'I' for Inactive)
REMARK    1  A    between atoms: O1_2  and  C2_3 
REMARK    2  A    between atoms: C4_5  and  C5_6 
REMARK    3  A    between atoms: C5_6  and  O2_7 
REMARK    4  A    between atoms: O2_7  and  N1_8 
REMARK    5  A    between atoms: N1_8  and  C6_10 
REMARK    6  A    between atoms: C7_11  and  C8_12 
REMARK    7  A    between atoms: C15_24  and  C16_25 
REMARK    8  A    between atoms: N3_28  and  N4_29 
REMARK    9  A    between atoms: C17_32  and  N5_33 
REMARK   10  A    between atoms: C18_38  and  O8_39 
REMARK   11  A    between atoms: C20_43  and  O10_44 
REMARK   12  A    between atoms: C20_43  and  O11_46 
REMARK   13  A    between atoms: C22_48  and  O12_49 
ROOT
HETATM    1  C6  UNL     1      14.371   6.014   6.151  1.00  0.00     0.124 A 
HETATM    2  C7  UNL     1      14.064   7.366   6.143  1.00  0.00     0.109 A 
HETATM    3  O7  UNL     1      13.219   7.528   5.161  1.00  0.00    -0.301 OA
HETATM    4  C15 UNL     1      12.935   6.437   4.525  1.00  0.00     0.157 A 
HETATM    5  C18 UNL     1      13.659   5.438   5.132  1.00  0.00     0.135 A 
ENDROOT
BRANCH   1   6
HETATM    6  N1  UNL     1      15.235   5.381   7.063  1.00  0.00    -0.256 N 
ATOM      7  H1  UNL     1      14.845   4.795   7.801  1.00  0.00     0.195 HD
BRANCH   6   8
HETATM    8  O2  UNL     1      16.574   5.538   6.976  1.00  0.00    -0.249 OA
BRANCH   8   9
HETATM    9  C5  UNL     1      17.529   4.933   7.778  1.00  0.00     0.182 C 
BRANCH   9  10
HETATM   10  C4  UNL     1      18.154   5.672   8.664  1.00  0.00     0.042 C 
HETATM   11  C3  UNL     1      19.596   5.624   8.801  1.00  0.00     0.052 C 
HETATM   12  C2  UNL     1      20.219   6.357   9.699  1.00  0.00     0.081 C 
HETATM   13  C22 UNL     1      19.511   7.249  10.613  1.00  0.00     0.245 C 
HETATM   14  C20 UNL     1      18.226   7.759  10.060  1.00  0.00     0.262 C 
HETATM   15  C19 UNL     1      17.447   6.566   9.557  1.00  0.00     0.226 C 
HETATM   16  O9  UNL     1      16.276   6.339   9.868  1.00  0.00    -0.286 OA
BRANCH  12  17
HETATM   17  O1  UNL     1      21.626   6.229   9.732  1.00  0.00    -0.357 OA
HETATM   18  C1  UNL     1      22.387   6.785  10.789  1.00  0.00     0.209 C 
ENDBRANCH  12  17
BRANCH  13  19
HETATM   19  O12 UNL     1      19.157   6.451  11.740  1.00  0.00    -0.383 OA
ATOM     20  H12 UNL     1      18.491   6.941  12.207  1.00  0.00     0.210 HD
ENDBRANCH  13  19
BRANCH  14  21
HETATM   21  O10 UNL     1      18.457   8.537   8.906  1.00  0.00    -0.357 OA
ATOM     22  H10 UNL     1      19.166   9.120   9.153  1.00  0.00     0.213 HD
ENDBRANCH  14  21
BRANCH  14  23
HETATM   23  O11 UNL     1      17.435   8.462  10.968  1.00  0.00    -0.351 OA
HETATM   24  C21 UNL     1      18.027   9.695  11.208  1.00  0.00     0.206 C 
ENDBRANCH  14  23
ENDBRANCH   9  10
ENDBRANCH   8   9
ENDBRANCH   6   8
ENDBRANCH   1   6
BRANCH   2  25
HETATM   25  C8  UNL     1      14.610   8.346   7.051  1.00  0.00     0.063 C 
HETATM   26  C9  UNL     1      14.091   8.829   8.138  1.00  0.00     0.117 C 
HETATM   27  C10 UNL     1      14.858   9.846   8.903  1.00  0.00     0.302 C 
HETATM   28  C14 UNL     1      12.807   8.435   8.688  1.00  0.00     0.302 C 
HETATM   29  O3  UNL     1      15.965  10.216   8.474  1.00  0.00    -0.259 OA
HETATM   30  O4  UNL     1      14.306  10.332  10.057  1.00  0.00    -0.280 OA
HETATM   31  C11 UNL     1      13.337   9.591  10.740  1.00  0.00     0.175 C 
HETATM   32  C12 UNL     1      12.623  10.440  11.782  1.00  0.00     0.080 C 
HETATM   33  C13 UNL     1      13.994   8.442  11.514  1.00  0.00     0.080 C 
HETATM   34  O5  UNL     1      12.382   9.026   9.878  1.00  0.00    -0.280 OA
HETATM   35  O6  UNL     1      12.063   7.594   8.153  1.00  0.00    -0.259 OA
ENDBRANCH   2  25
BRANCH   5  36
HETATM   36  O8  UNL     1      13.654   4.081   4.759  1.00  0.00    -0.356 OA
ATOM     37  H8  UNL     1      12.917   3.578   4.431  1.00  0.00     0.218 HD
ENDBRANCH   5  36
BRANCH   4  38
HETATM   38  C16 UNL     1      12.025   6.280   3.381  1.00  0.00     0.174 A 
HETATM   39  N2  UNL     1      10.935   5.486   3.389  1.00  0.00    -0.247 N 
HETATM   40  N3  UNL     1      10.331   5.550   2.232  1.00  0.00    -0.025 N 
ATOM     41  H2  UNL     1      10.627   4.921   4.180  1.00  0.00     0.191 HD
HETATM   42  C17 UNL     1      11.054   6.410   1.449  1.00  0.00     0.713 A 
HETATM   43  N6  UNL     1      12.091   6.848   2.173  1.00  0.00    -0.170 N 
ATOM     44  H6  UNL     1      12.807   7.502   1.857  1.00  0.00     0.186 HD
BRANCH  40  45
HETATM   45  N4  UNL     1       9.188   4.935   1.740  1.00  0.00    -0.309 N 
ATOM     46  H42 UNL     1       9.203   3.952   1.465  1.00  0.00     0.179 HD
ATOM     47  H41 UNL     1       8.242   5.278   1.575  1.00  0.00     0.179 HD
ENDBRANCH  40  45
BRANCH  42  48
HETATM   48  N5  UNL     1      10.804   6.742   0.243  1.00  0.00    -0.231 N 
ATOM     49  H52 UNL     1      10.657   7.695  -0.088  1.00  0.00     0.174 HD
ATOM     50  H51 UNL     1      10.720   6.117  -0.559  1.00  0.00     0.174 HD
ENDBRANCH  42  48
ENDBRANCH   4  38
TORSDOF 13
ENDMDL
MODEL 3
REMARK VINA RESULT: -8.585530598      4.264      7.693
REMARK  13 active torsions:
REMARK  status: ('A' for Active; 'I' for Inactive)
REMARK    1  A    between atoms: O1_2  and  C2_3 
REMARK    2  A    between atoms: C4_5  and  C5_6 
REMARK    3  A    between atoms: C5_6  and  O2_7 
REMARK    4  A    between atoms: O2_7  and  N1_8 
REMARK    5  A    between atoms: N1_8  and  C6_10 
REMARK    6  A    between atoms: C7_11  and  C8_12 
REMARK    7  A    between atoms: C15_24  and  C16_25 
REMARK    8  A    between atoms: N3_28  and  N4_29 
REMARK    9  A    between atoms: C17_32  and  N5_33 
REMARK   10  A    between atoms: C18_38  and  O8_39 
REMARK   11  A    between atoms: C20_43  and  O10_44 
REMARK   12  A    between atoms: C20_43  and  O11_46 
REMARK   13  A    between atoms: C22_48  and  O12_49 
ROOT
HETATM    1  C6  UNL     1      12.276   4.562   8.150  1.00  0.00     0.124 A 
HETATM    2  C7  UNL     1      13.568   4.107   8.365  1.00  0.00     0.109 A 
HETATM    3  O7  UNL     1      13.747   3.141   7.504  1.00  0.00    -0.301 OA
HETATM    4  C15 UNL     1      12.722   2.911   6.748  1.00  0.00     0.157 A 
HETATM    5  C18 UNL     1      11.752   3.806   7.134  1.00  0.00     0.135 A 
ENDROOT
BRANCH   1   6
HETATM    6  N1  UNL     1      11.659   5.619   8.843  1.00  0.00    -0.256 N 
ATOM      7  H1  UNL     1      11.880   5.772   9.826  1.00  0.00     0.195 HD
BRANCH   6   8
HETATM    8  O2  UNL     1      10.778   6.436   8.224  1.00  0.00    -0.249 OA
BRANCH   8   9
HETATM    9  C5  UNL     1      10.989   7.760   7.872  1.00  0.00     0.182 C 
BRANCH   9  10
HETATM   10  C4  UNL     1      12.039   8.047   7.140  1.00  0.00     0.042 C 
HETATM   11  C3  UNL     1      13.245   8.592   7.732  1.00  0.00     0.052 C 
HETATM   12  C2  UNL     1      14.291   8.892   6.993  1.00  0.00     0.081 C 
HETATM   13  C22 UNL     1      14.308   8.709   5.545  1.00  0.00     0.245 C 
HETATM   14  C20 UNL     1      13.410   7.616   5.079  1.00  0.00     0.262 C 
HETATM   15  C19 UNL     1      12.055   7.849   5.706  1.00  0.00     0.226 C 
HETATM   16  O9  UNL     1      11.004   7.873   5.062  1.00  0.00    -0.286 OA
BRANCH  12  17
HETATM   17  O1  UNL     1      15.409   9.409   7.686  1.00  0.00    -0.357 OA
HETATM   18  C1  UNL     1      15.248  10.301   8.774  1.00  0.00     0.209 C 
ENDBRANCH  12  17
BRANCH  13  19
HETATM   19  O12 UNL     1      13.772   9.910   4.994  1.00  0.00    -0.383 OA
ATOM     20  H12 UNL     1      12.931   9.673   4.621  1.00  0.00     0.210 HD
ENDBRANCH  13  19
BRANCH  14  21
HETATM   21  O10 UNL     1      13.827   6.375   5.603  1.00  0.00    -0.357 OA
ATOM     22  H10 UNL     1      14.771   6.378   5.492  1.00  0.00     0.213 HD
ENDBRANCH  14  21
BRANCH  14  23
HETATM   23  O11 UNL     1      13.256   7.532   3.696  1.00  0.00    -0.351 OA
HETATM   24  C21 UNL     1      12.921   6.224   3.367  1.00  0.00     0.206 C 
ENDBRANCH  14  23
ENDBRANCH   9  10
ENDBRANCH   8   9
ENDBRANCH   6   8
ENDBRANCH   1   6
BRANCH   2  25
HETATM   25  C8  UNL     1      14.475   4.626   9.360  1.00  0.00     0.063 C 
HETATM   26  C9  UNL     1      15.726   4.947   9.235  1.00  0.00     0.117 C 
HETATM   27  C10 UNL     1      16.453   5.458  10.426  1.00  0.00     0.302 C 
HETATM   28  C14 UNL     1      16.482   4.866   7.999  1.00  0.00     0.302 C 
HETATM   29  O3  UNL     1      15.849   5.549  11.509  1.00  0.00    -0.259 OA
HETATM   30  O4  UNL     1      17.766   5.811  10.274  1.00  0.00    -0.280 OA
HETATM   31  C11 UNL     1      18.264   6.141   9.010  1.00  0.00     0.175 C 
HETATM   32  C12 UNL     1      19.786   6.169   9.005  1.00  0.00     0.080 C 
HETATM   33  C13 UNL     1      17.818   7.554   8.616  1.00  0.00     0.080 C 
HETATM   34  O5  UNL     1      17.819   5.264   8.008  1.00  0.00    -0.280 OA
HETATM   35  O6  UNL     1      15.999   4.459   6.928  1.00  0.00    -0.259 OA
ENDBRANCH   2  25
BRANCH   5  36
HETATM   36  O8  UNL     1      10.464   3.909   6.574  1.00  0.00    -0.356 OA
ATOM     37  H8  UNL     1       9.875   3.196   6.356  1.00  0.00     0.218 HD
ENDBRANCH   5  36
BRANCH   4  38
HETATM   38  C16 UNL     1      12.602   1.901   5.687  1.00  0.00     0.174 A 
HETATM   39  N2  UNL     1      11.517   1.121   5.509  1.00  0.00    -0.247 N 
HETATM   40  N3  UNL     1      11.708   0.321   4.493  1.00  0.00    -0.025 N 
ATOM     41  H2  UNL     1      10.673   1.151   6.081  1.00  0.00     0.191 HD
HETATM   42  C17 UNL     1      12.956   0.591   3.999  1.00  0.00     0.713 A 
HETATM   43  N6  UNL     1      13.490   1.564   4.746  1.00  0.00    -0.170 N 
ATOM     44  H6  UNL     1      14.413   1.977   4.619  1.00  0.00     0.186 HD
BRANCH  40  45
HETATM   45  N4  UNL     1      10.911  -0.655   3.912  1.00  0.00    -0.309 N 
ATOM     46  H42 UNL     1      10.143  -1.079   4.432  1.00  0.00     0.179 HD
ATOM     47  H41 UNL     1      10.921  -1.088   2.987  1.00  0.00     0.179 HD
ENDBRANCH  40  45
BRANCH  42  48
HETATM   48  N5  UNL     1      13.527   0.023   3.011  1.00  0.00    -0.231 N 
ATOM     49  H52 UNL     1      13.222   0.082   2.040  1.00  0.00     0.174 HD
ATOM     50  H51 UNL     1      14.363  -0.562   3.040  1.00  0.00     0.174 HD
ENDBRANCH  42  48
ENDBRANCH   4  38
TORSDOF 13
ENDMDL
MODEL 4
REMARK VINA RESULT: -8.550159911      3.558      8.072
REMARK  13 active torsions:
REMARK  status: ('A' for Active; 'I' for Inactive)
REMARK    1  A    between atoms: O1_2  and  C2_3 
REMARK    2  A    between atoms: C4_5  and  C5_6 
REMARK    3  A    between atoms: C5_6  and  O2_7 
REMARK    4  A    between atoms: O2_7  and  N1_8 
REMARK    5  A    between atoms: N1_8  and  C6_10 
REMARK    6  A    between atoms: C7_11  and  C8_12 
REMARK    7  A    between atoms: C15_24  and  C16_25 
REMARK    8  A    between atoms: N3_28  and  N4_29 
REMARK    9  A    between atoms: C17_32  and  N5_33 
REMARK   10  A    between atoms: C18_38  and  O8_39 
REMARK   11  A    between atoms: C20_43  and  O10_44 
REMARK   12  A    between atoms: C20_43  and  O11_46 
REMARK   13  A    between atoms: C22_48  and  O12_49 
ROOT
HETATM    1  C6  UNL     1      15.079   3.341   7.457  1.00  0.00     0.124 A 
HETATM    2  C7  UNL     1      14.283   3.000   8.540  1.00  0.00     0.109 A 
HETATM    3  O7  UNL     1      13.060   3.273   8.176  1.00  0.00    -0.301 OA
HETATM    4  C15 UNL     1      12.961   3.754   6.978  1.00  0.00     0.157 A 
HETATM    5  C18 UNL     1      14.242   3.814   6.481  1.00  0.00     0.135 A 
ENDROOT
BRANCH   1   6
HETATM    6  N1  UNL     1      16.477   3.193   7.395  1.00  0.00    -0.256 N 
ATOM      7  H1  UNL     1      16.896   2.287   7.602  1.00  0.00     0.195 HD
BRANCH   6   8
HETATM    8  O2  UNL     1      17.272   4.235   7.066  1.00  0.00    -0.249 OA
BRANCH   8   9
HETATM    9  C5  UNL     1      18.039   4.993   7.937  1.00  0.00     0.182 C 
BRANCH   9  10
HETATM   10  C4  UNL     1      17.658   6.223   8.188  1.00  0.00     0.042 C 
HETATM   11  C3  UNL     1      16.491   6.797   7.547  1.00  0.00     0.052 C 
HETATM   12  C2  UNL     1      16.120   8.035   7.791  1.00  0.00     0.081 C 
HETATM   13  C22 UNL     1      16.851   8.909   8.703  1.00  0.00     0.245 C 
HETATM   14  C20 UNL     1      17.574   8.169   9.775  1.00  0.00     0.262 C 
HETATM   15  C19 UNL     1      18.380   7.080   9.105  1.00  0.00     0.226 C 
HETATM   16  O9  UNL     1      19.583   6.903   9.308  1.00  0.00    -0.286 OA
BRANCH  12  17
HETATM   17  O1  UNL     1      14.962   8.477   7.112  1.00  0.00    -0.357 OA
HETATM   18  C1  UNL     1      14.017   7.556   6.599  1.00  0.00     0.209 C 
ENDBRANCH  12  17
BRANCH  13  19
HETATM   19  O12 UNL     1      17.863   9.534   7.917  1.00  0.00    -0.383 OA
ATOM     20  H12 UNL     1      18.081  10.341   8.368  1.00  0.00     0.210 HD
ENDBRANCH  13  19
BRANCH  14  21
HETATM   21  O10 UNL     1      16.663   7.474  10.597  1.00  0.00    -0.357 OA
ATOM     22  H10 UNL     1      16.287   6.813  10.027  1.00  0.00     0.213 HD
ENDBRANCH  14  21
BRANCH  14  23
HETATM   23  O11 UNL     1      18.430   8.949  10.551  1.00  0.00    -0.351 OA
HETATM   24  C21 UNL     1      17.664   9.706  11.430  1.00  0.00     0.206 C 
ENDBRANCH  14  23
ENDBRANCH   9  10
ENDBRANCH   8   9
ENDBRANCH   6   8
ENDBRANCH   1   6
BRANCH   2  25
HETATM   25  C8  UNL     1      14.768   2.468   9.791  1.00  0.00     0.063 C 
HETATM   26  C9  UNL     1      15.144   3.106  10.857  1.00  0.00     0.117 C 
HETATM   27  C10 UNL     1      15.617   2.320  12.027  1.00  0.00     0.302 C 
HETATM   28  C14 UNL     1      15.121   4.548  11.010  1.00  0.00     0.302 C 
HETATM   29  O3  UNL     1      15.653   1.080  11.947  1.00  0.00    -0.259 OA
HETATM   30  O4  UNL     1      15.992   3.006  13.150  1.00  0.00    -0.280 OA
HETATM   31  C11 UNL     1      15.512   4.299  13.379  1.00  0.00     0.175 C 
HETATM   32  C12 UNL     1      16.299   4.995  14.480  1.00  0.00     0.080 C 
HETATM   33  C13 UNL     1      14.061   4.248  13.869  1.00  0.00     0.080 C 
HETATM   34  O5  UNL     1      15.538   5.096  12.223  1.00  0.00    -0.280 OA
HETATM   35  O6  UNL     1      14.748   5.325  10.113  1.00  0.00    -0.259 OA
ENDBRANCH   2  25
BRANCH   5  36
HETATM   36  O8  UNL     1      14.603   4.280   5.203  1.00  0.00    -0.356 OA
ATOM     37  H8  UNL     1      14.093   4.843   4.632  1.00  0.00     0.218 HD
ENDBRANCH   5  36
BRANCH   4  38
HETATM   38  C16 UNL     1      11.735   4.159   6.275  1.00  0.00     0.174 A 
HETATM   39  N2  UNL     1      11.721   4.917   5.160  1.00  0.00    -0.247 N 
HETATM   40  N3  UNL     1      10.489   5.114   4.773  1.00  0.00    -0.025 N 
ATOM     41  H2  UNL     1      12.549   5.281   4.688  1.00  0.00     0.191 HD
HETATM   42  C17 UNL     1       9.679   4.465   5.666  1.00  0.00     0.713 A 
HETATM   43  N6  UNL     1      10.463   3.885   6.582  1.00  0.00    -0.170 N 
ATOM     44  H6  UNL     1      10.145   3.329   7.376  1.00  0.00     0.186 HD
BRANCH  40  45
HETATM   45  N4  UNL     1       9.947   5.812   3.703  1.00  0.00    -0.309 N 
ATOM     46  H42 UNL     1      10.319   6.723   3.433  1.00  0.00     0.179 HD
ATOM     47  H41 UNL     1       9.184   5.599   3.060  1.00  0.00     0.179 HD
ENDBRANCH  40  45
BRANCH  42  48
HETATM   48  N5  UNL     1       8.405   4.416   5.649  1.00  0.00    -0.231 N 
ATOM     49  H52 UNL     1       7.802   4.963   5.035  1.00  0.00     0.174 HD
ATOM     50  H51 UNL     1       7.807   3.831   6.233  1.00  0.00     0.174 HD
ENDBRANCH  42  48
ENDBRANCH   4  38
TORSDOF 13
ENDMDL
MODEL 5
REMARK VINA RESULT: -8.533464862      3.945      6.864
REMARK  13 active torsions:
REMARK  status: ('A' for Active; 'I' for Inactive)
REMARK    1  A    between atoms: O1_2  and  C2_3 
REMARK    2  A    between atoms: C4_5  and  C5_6 
REMARK    3  A    between atoms: C5_6  and  O2_7 
REMARK    4  A    between atoms: O2_7  and  N1_8 
REMARK    5  A    between atoms: N1_8  and  C6_10 
REMARK    6  A    between atoms: C7_11  and  C8_12 
REMARK    7  A    between atoms: C15_24  and  C16_25 
REMARK    8  A    between atoms: N3_28  and  N4_29 
REMARK    9  A    between atoms: C17_32  and  N5_33 
REMARK   10  A    between atoms: C18_38  and  O8_39 
REMARK   11  A    between atoms: C20_43  and  O10_44 
REMARK   12  A    between atoms: C20_43  and  O11_46 
REMARK   13  A    between atoms: C22_48  and  O12_49 
ROOT
HETATM    1  C6  UNL     1      13.371   5.670   7.998  1.00  0.00     0.124 A 
HETATM    2  C7  UNL     1      14.635   5.661   7.429  1.00  0.00     0.109 A 
HETATM    3  O7  UNL     1      14.720   4.532   6.780  1.00  0.00    -0.301 OA
HETATM    4  C15 UNL     1      13.656   3.798   6.857  1.00  0.00     0.157 A 
HETATM    5  C18 UNL     1      12.763   4.497   7.634  1.00  0.00     0.135 A 
ENDROOT
BRANCH   1   6
HETATM    6  N1  UNL     1      12.835   6.713   8.775  1.00  0.00    -0.256 N 
ATOM      7  H1  UNL     1      13.163   6.847   9.731  1.00  0.00     0.195 HD
BRANCH   6   8
HETATM    8  O2  UNL     1      11.893   7.541   8.273  1.00  0.00    -0.249 OA
BRANCH   8   9
HETATM    9  C5  UNL     1      11.775   7.951   6.954  1.00  0.00     0.182 C 
BRANCH   9  10
HETATM   10  C4  UNL     1      11.234   7.122   6.092  1.00  0.00     0.042 C 
HETATM   11  C3  UNL     1       9.958   6.487   6.358  1.00  0.00     0.052 C 
HETATM   12  C2  UNL     1       9.424   5.647   5.498  1.00  0.00     0.081 C 
HETATM   13  C22 UNL     1      10.073   5.292   4.240  1.00  0.00     0.245 C 
HETATM   14  C20 UNL     1      10.961   6.366   3.713  1.00  0.00     0.262 C 
HETATM   15  C19 UNL     1      11.876   6.786   4.839  1.00  0.00     0.226 C 
HETATM   16  O9  UNL     1      13.102   6.853   4.730  1.00  0.00    -0.286 OA
BRANCH  12  17
HETATM   17  O1  UNL     1       8.174   5.099   5.865  1.00  0.00    -0.357 OA
HETATM   18  C1  UNL     1       7.249   4.662   4.885  1.00  0.00     0.209 C 
ENDBRANCH  12  17
BRANCH  13  19
HETATM   19  O12 UNL     1      10.932   4.194   4.540  1.00  0.00    -0.383 OA
ATOM     20  H12 UNL     1      11.815   4.502   4.378  1.00  0.00     0.210 HD
ENDBRANCH  13  19
BRANCH  14  21
HETATM   21  O10 UNL     1      10.215   7.525   3.417  1.00  0.00    -0.357 OA
ATOM     22  H10 UNL     1      10.812   8.067   2.913  1.00  0.00     0.213 HD
ENDBRANCH  14  21
BRANCH  14  23
HETATM   23  O11 UNL     1      11.740   5.997   2.616  1.00  0.00    -0.351 OA
HETATM   24  C21 UNL     1      10.994   6.191   1.460  1.00  0.00     0.206 C 
ENDBRANCH  14  23
ENDBRANCH   9  10
ENDBRANCH   8   9
ENDBRANCH   6   8
ENDBRANCH   1   6
BRANCH   2  25
HETATM   25  C8  UNL     1      15.617   6.710   7.573  1.00  0.00     0.063 C 
HETATM   26  C9  UNL     1      16.574   6.817   8.444  1.00  0.00     0.117 C 
HETATM   27  C10 UNL     1      17.457   8.011   8.387  1.00  0.00     0.302 C 
HETATM   28  C14 UNL     1      16.869   5.839   9.474  1.00  0.00     0.302 C 
HETATM   29  O3  UNL     1      17.246   8.878   7.521  1.00  0.00    -0.259 OA
HETATM   30  O4  UNL     1      18.473   8.100   9.299  1.00  0.00    -0.280 OA
HETATM   31  C11 UNL     1      18.966   6.949   9.919  1.00  0.00     0.175 C 
HETATM   32  C12 UNL     1      19.835   7.296  11.120  1.00  0.00     0.080 C 
HETATM   33  C13 UNL     1      19.871   6.173   8.956  1.00  0.00     0.080 C 
HETATM   34  O5  UNL     1      17.944   6.078  10.331  1.00  0.00    -0.280 OA
HETATM   35  O6  UNL     1      16.214   4.794   9.633  1.00  0.00    -0.259 OA
ENDBRANCH   2  25
BRANCH   5  36
HETATM   36  O8  UNL     1      11.468   4.067   7.980  1.00  0.00    -0.356 OA
ATOM     37  H8  UNL     1      10.807   3.712   7.399  1.00  0.00     0.218 HD
ENDBRANCH   5  36
BRANCH   4  38
HETATM   38  C16 UNL     1      13.431   2.482   6.242  1.00  0.00     0.174 A 
HETATM   39  N2  UNL     1      13.597   2.225   4.929  1.00  0.00    -0.247 N 
HETATM   40  N3  UNL     1      13.317   0.972   4.683  1.00  0.00    -0.025 N 
ATOM     41  H2  UNL     1      13.898   2.906   4.232  1.00  0.00     0.191 HD
HETATM   42  C17 UNL     1      12.956   0.401   5.875  1.00  0.00     0.713 A 
HETATM   43  N6  UNL     1      13.032   1.345   6.820  1.00  0.00    -0.170 N 
ATOM     44  H6  UNL     1      12.822   1.217   7.810  1.00  0.00     0.186 HD
BRANCH  40  45
HETATM   45  N4  UNL     1      13.332   0.225   3.515  1.00  0.00    -0.309 N 
ATOM     46  H42 UNL     1      13.726   0.609   2.655  1.00  0.00     0.179 HD
ATOM     47  H41 UNL     1      13.005  -0.717   3.298  1.00  0.00     0.179 HD
ENDBRANCH  40  45
BRANCH  42  48
HETATM   48  N5  UNL     1      12.602  -0.809   6.067  1.00  0.00    -0.231 N 
ATOM     49  H52 UNL     1      12.646  -1.554   5.372  1.00  0.00     0.174 HD
ATOM     50  H51 UNL     1      12.233  -1.209   6.930  1.00  0.00     0.174 HD
ENDBRANCH  42  48
ENDBRANCH   4  38
TORSDOF 13
ENDMDL
