MODEL 1
REMARK VINA RESULT: -8.335874554      0.000      0.000
REMARK  15 active torsions:
REMARK  status: ('A' for Active; 'I' for Inactive)
REMARK    1  A    between atoms: C2_2  and  C16_17 
REMARK    2  A    between atoms: C3_3  and  C4_4 
REMARK    3  A    between atoms: C4_4  and  C5_5 
REMARK    4  A    between atoms: C5_5  and  C6_6 
REMARK    5  A    between atoms: C6_6  and  C8_8 
REMARK    6  A    between atoms: C8_8  and  C9_9 
REMARK    7  A    between atoms: C9_9  and  C10_10 
REMARK    8  A    between atoms: C11_11  and  C13_13 
REMARK    9  A    between atoms: C13_13  and  C14_14 
REMARK   10  A    between atoms: C16_17  and  C17_18 
REMARK   11  A    between atoms: C17_18  and  C18_19 
REMARK   12  A    between atoms: C19_20  and  C21_22 
REMARK   13  A    between atoms: C21_22  and  C22_23 
REMARK   14  A    between atoms: C22_23  and  C23_24 
REMARK   15  A    between atoms: C28_31  and  O4_32 
ROOT
HETATM    1  C16 UNL     1      15.326  18.073  11.273  1.00  0.00     0.037 C 
ENDROOT
BRANCH   1   2
HETATM    2  C2  UNL     1      15.135  16.826  10.555  1.00  0.00    -0.087 C 
HETATM    3  C1  UNL     1      16.180  16.486   9.487  1.00  0.00     0.043 C 
HETATM    4  C3  UNL     1      14.180  15.959  10.740  1.00  0.00    -0.024 C 
BRANCH   4   5
HETATM    5  C4  UNL     1      13.094  16.115  11.715  1.00  0.00     0.028 C 
BRANCH   5   6
HETATM    6  C5  UNL     1      12.696  14.787  12.365  1.00  0.00     0.008 C 
BRANCH   6   7
HETATM    7  C6  UNL     1      13.373  14.588  13.678  1.00  0.00    -0.018 C 
HETATM    8  C7  UNL     1      12.648  13.517  14.468  1.00  0.00     0.010 C 
BRANCH   7   9
HETATM    9  C8  UNL     1      13.303  15.863  14.477  1.00  0.00     0.008 C 
BRANCH   9  10
HETATM   10  C9  UNL     1      14.612  16.179  15.193  1.00  0.00     0.028 C 
BRANCH  10  11
HETATM   11  C10 UNL     1      15.660  16.304  14.176  1.00  0.00    -0.024 C 
HETATM   12  C11 UNL     1      16.825  15.724  14.235  1.00  0.00    -0.085 C 
HETATM   13  C12 UNL     1      17.828  15.935  13.113  1.00  0.00     0.043 C 
BRANCH  12  14
HETATM   14  C13 UNL     1      17.269  14.848  15.321  1.00  0.00     0.067 C 
BRANCH  14  15
HETATM   15  C14 UNL     1      18.438  15.534  16.032  1.00  0.00     0.149 A 
HETATM   16  C15 UNL     1      18.300  15.680  17.494  1.00  0.00     0.200 A 
HETATM   17  O1  UNL     1      18.147  16.783  16.667  1.00  0.00    -0.381 OA
ENDBRANCH  14  15
ENDBRANCH  12  14
ENDBRANCH  10  11
ENDBRANCH   9  10
ENDBRANCH   7   9
ENDBRANCH   6   7
ENDBRANCH   5   6
ENDBRANCH   4   5
ENDBRANCH   1   2
BRANCH   1  18
HETATM   18  C17 UNL     1      16.153  19.086  10.495  1.00  0.00     0.031 C 
BRANCH  18  19
HETATM   19  C18 UNL     1      15.213  20.089   9.892  1.00  0.00    -0.024 C 
HETATM   20  C19 UNL     1      15.596  20.903   8.914  1.00  0.00    -0.087 C 
HETATM   21  C20 UNL     1      17.003  20.785   8.433  1.00  0.00     0.043 C 
BRANCH  20  22
HETATM   22  C21 UNL     1      14.659  21.901   8.316  1.00  0.00     0.036 C 
BRANCH  22  23
HETATM   23  C22 UNL     1      13.373  21.933   9.094  1.00  0.00     0.045 C 
BRANCH  23  24
HETATM   24  C23 UNL     1      13.077  23.231   9.765  1.00  0.00     0.094 C 
HETATM   25  C24 UNL     1      12.187  22.956  10.962  1.00  0.00     0.049 C 
HETATM   26  O2  UNL     1      14.253  23.851  10.294  1.00  0.00    -0.307 OA
HETATM   27  C25 UNL     1      13.828  25.153  10.624  1.00  0.00     0.266 C 
HETATM   28  O3  UNL     1      14.319  25.893  11.514  1.00  0.00    -0.265 OA
HETATM   29  C26 UNL     1      12.696  25.536   9.753  1.00  0.00     0.113 C 
HETATM   30  C27 UNL     1      11.454  25.917  10.488  1.00  0.00     0.023 C 
HETATM   31  C28 UNL     1      12.540  24.305   8.885  1.00  0.00     0.166 C 
BRANCH  31  32
HETATM   32  O4  UNL     1      11.219  24.103   8.505  1.00  0.00    -0.392 OA
ATOM     33  H4  UNL     1      10.917  24.713   7.842  1.00  0.00     0.210 HD
ENDBRANCH  31  32
ENDBRANCH  23  24
ENDBRANCH  22  23
ENDBRANCH  20  22
ENDBRANCH  18  19
ENDBRANCH   1  18
TORSDOF 15
ENDMDL
MODEL 2
REMARK VINA RESULT: -8.287825859      4.338      7.477
REMARK  15 active torsions:
REMARK  status: ('A' for Active; 'I' for Inactive)
REMARK    1  A    between atoms: C2_2  and  C16_17 
REMARK    2  A    between atoms: C3_3  and  C4_4 
REMARK    3  A    between atoms: C4_4  and  C5_5 
REMARK    4  A    between atoms: C5_5  and  C6_6 
REMARK    5  A    between atoms: C6_6  and  C8_8 
REMARK    6  A    between atoms: C8_8  and  C9_9 
REMARK    7  A    between atoms: C9_9  and  C10_10 
REMARK    8  A    between atoms: C11_11  and  C13_13 
REMARK    9  A    between atoms: C13_13  and  C14_14 
REMARK   10  A    between atoms: C16_17  and  C17_18 
REMARK   11  A    between atoms: C17_18  and  C18_19 
REMARK   12  A    between atoms: C19_20  and  C21_22 
REMARK   13  A    between atoms: C21_22  and  C22_23 
REMARK   14  A    between atoms: C22_23  and  C23_24 
REMARK   15  A    between atoms: C28_31  and  O4_32 
ROOT
HETATM    1  C16 UNL     1      16.868  17.501  10.231  1.00  0.00     0.037 C 
ENDROOT
BRANCH   1   2
HETATM    2  C2  UNL     1      16.380  18.352  11.301  1.00  0.00    -0.087 C 
HETATM    3  C1  UNL     1      15.919  19.757  10.900  1.00  0.00     0.043 C 
HETATM    4  C3  UNL     1      16.277  18.038  12.561  1.00  0.00    -0.024 C 
BRANCH   4   5
HETATM    5  C4  UNL     1      16.670  16.742  13.128  1.00  0.00     0.028 C 
BRANCH   5   6
HETATM    6  C5  UNL     1      17.112  16.853  14.590  1.00  0.00     0.008 C 
BRANCH   6   7
HETATM    7  C6  UNL     1      17.376  15.516  15.192  1.00  0.00    -0.018 C 
HETATM    8  C7  UNL     1      17.304  15.613  16.703  1.00  0.00     0.010 C 
BRANCH   7   9
HETATM    9  C8  UNL     1      18.769  15.070  14.834  1.00  0.00     0.008 C 
BRANCH   9  10
HETATM   10  C9  UNL     1      19.773  15.326  15.953  1.00  0.00     0.028 C 
BRANCH  10  11
HETATM   11  C10 UNL     1      20.798  16.236  15.435  1.00  0.00    -0.024 C 
HETATM   12  C11 UNL     1      20.911  17.491  15.764  1.00  0.00    -0.085 C 
HETATM   13  C12 UNL     1      22.020  18.332  15.154  1.00  0.00     0.043 C 
BRANCH  12  14
HETATM   14  C13 UNL     1      20.040  18.189  16.712  1.00  0.00     0.067 C 
BRANCH  14  15
HETATM   15  C14 UNL     1      20.835  19.351  17.314  1.00  0.00     0.149 A 
HETATM   16  C15 UNL     1      20.138  20.133  18.354  1.00  0.00     0.200 A 
HETATM   17  O1  UNL     1      20.312  20.662  17.084  1.00  0.00    -0.381 OA
ENDBRANCH  14  15
ENDBRANCH  12  14
ENDBRANCH  10  11
ENDBRANCH   9  10
ENDBRANCH   7   9
ENDBRANCH   6   7
ENDBRANCH   5   6
ENDBRANCH   4   5
ENDBRANCH   1   2
BRANCH   1  18
HETATM   18  C17 UNL     1      15.757  16.993   9.323  1.00  0.00     0.031 C 
BRANCH  18  19
HETATM   19  C18 UNL     1      14.779  16.229  10.167  1.00  0.00    -0.024 C 
HETATM   20  C19 UNL     1      13.519  16.627  10.308  1.00  0.00    -0.087 C 
HETATM   21  C20 UNL     1      13.107  17.868   9.591  1.00  0.00     0.043 C 
BRANCH  20  22
HETATM   22  C21 UNL     1      12.549  15.865  11.149  1.00  0.00     0.036 C 
BRANCH  22  23
HETATM   23  C22 UNL     1      13.196  15.452  12.441  1.00  0.00     0.045 C 
BRANCH  23  24
HETATM   24  C23 UNL     1      12.279  14.817  13.429  1.00  0.00     0.094 C 
HETATM   25  C24 UNL     1      12.099  15.772  14.594  1.00  0.00     0.049 C 
HETATM   26  O2  UNL     1      10.968  14.607  12.898  1.00  0.00    -0.307 OA
HETATM   27  C25 UNL     1      10.349  13.768  13.846  1.00  0.00     0.266 C 
HETATM   28  O3  UNL     1       9.116  13.693  14.083  1.00  0.00    -0.265 OA
HETATM   29  C26 UNL     1      11.381  12.969  14.542  1.00  0.00     0.113 C 
HETATM   30  C27 UNL     1      11.391  13.130  16.025  1.00  0.00     0.023 C 
HETATM   31  C28 UNL     1      12.651  13.443  13.866  1.00  0.00     0.166 C 
BRANCH  31  32
HETATM   32  O4  UNL     1      13.740  13.409  14.728  1.00  0.00    -0.392 OA
ATOM     33  H4  UNL     1      13.498  13.403  15.646  1.00  0.00     0.210 HD
ENDBRANCH  31  32
ENDBRANCH  23  24
ENDBRANCH  22  23
ENDBRANCH  20  22
ENDBRANCH  18  19
ENDBRANCH   1  18
TORSDOF 15
ENDMDL
MODEL 3
REMARK VINA RESULT: -8.276742741      2.539      4.385
REMARK  15 active torsions:
REMARK  status: ('A' for Active; 'I' for Inactive)
REMARK    1  A    between atoms: C2_2  and  C16_17 
REMARK    2  A    between atoms: C3_3  and  C4_4 
REMARK    3  A    between atoms: C4_4  and  C5_5 
REMARK    4  A    between atoms: C5_5  and  C6_6 
REMARK    5  A    between atoms: C6_6  and  C8_8 
REMARK    6  A    between atoms: C8_8  and  C9_9 
REMARK    7  A    between atoms: C9_9  and  C10_10 
REMARK    8  A    between atoms: C11_11  and  C13_13 
REMARK    9  A    between atoms: C13_13  and  C14_14 
REMARK   10  A    between atoms: C16_17  and  C17_18 
REMARK   11  A    between atoms: C17_18  and  C18_19 
REMARK   12  A    between atoms: C19_20  and  C21_22 
REMARK   13  A    between atoms: C21_22  and  C22_23 
REMARK   14  A    between atoms: C22_23  and  C23_24 
REMARK   15  A    between atoms: C28_31  and  O4_32 
ROOT
HETATM    1  C16 UNL     1      15.622  17.938  11.365  1.00  0.00     0.037 C 
ENDROOT
BRANCH   1   2
HETATM    2  C2  UNL     1      15.354  16.851  10.442  1.00  0.00    -0.087 C 
HETATM    3  C1  UNL     1      16.394  16.616   9.341  1.00  0.00     0.043 C 
HETATM    4  C3  UNL     1      14.331  16.044  10.465  1.00  0.00    -0.024 C 
BRANCH   4   5
HETATM    5  C4  UNL     1      13.237  16.117  11.440  1.00  0.00     0.028 C 
BRANCH   5   6
HETATM    6  C5  UNL     1      13.406  15.114  12.584  1.00  0.00     0.008 C 
BRANCH   6   7
HETATM    7  C6  UNL     1      13.992  15.750  13.798  1.00  0.00    -0.018 C 
HETATM    8  C7  UNL     1      15.405  15.243  14.009  1.00  0.00     0.010 C 
BRANCH   7   9
HETATM    9  C8  UNL     1      13.187  15.359  15.009  1.00  0.00     0.008 C 
BRANCH   9  10
HETATM   10  C9  UNL     1      12.769  13.893  14.988  1.00  0.00     0.028 C 
BRANCH  10  11
HETATM   11  C10 UNL     1      11.409  13.807  15.527  1.00  0.00    -0.024 C 
HETATM   12  C11 UNL     1      10.354  13.488  14.832  1.00  0.00    -0.085 C 
HETATM   13  C12 UNL     1       8.995  13.434  15.510  1.00  0.00     0.043 C 
BRANCH  12  14
HETATM   14  C13 UNL     1      10.361  13.153  13.407  1.00  0.00     0.067 C 
BRANCH  14  15
HETATM   15  C14 UNL     1       8.963  12.654  13.034  1.00  0.00     0.149 A 
HETATM   16  C15 UNL     1       8.915  11.581  12.021  1.00  0.00     0.200 A 
HETATM   17  O1  UNL     1       8.551  12.875  11.682  1.00  0.00    -0.381 OA
ENDBRANCH  14  15
ENDBRANCH  12  14
ENDBRANCH  10  11
ENDBRANCH   9  10
ENDBRANCH   7   9
ENDBRANCH   6   7
ENDBRANCH   5   6
ENDBRANCH   4   5
ENDBRANCH   1   2
BRANCH   1  18
HETATM   18  C17 UNL     1      16.364  19.099  10.717  1.00  0.00     0.031 C 
BRANCH  18  19
HETATM   19  C18 UNL     1      15.347  20.011  10.095  1.00  0.00    -0.024 C 
HETATM   20  C19 UNL     1      15.644  20.777   9.051  1.00  0.00    -0.087 C 
HETATM   21  C20 UNL     1      17.033  20.698   8.514  1.00  0.00     0.043 C 
BRANCH  20  22
HETATM   22  C21 UNL     1      14.631  21.685   8.435  1.00  0.00     0.036 C 
BRANCH  22  23
HETATM   23  C22 UNL     1      13.397  21.739   9.291  1.00  0.00     0.045 C 
BRANCH  23  24
HETATM   24  C23 UNL     1      13.081  23.082   9.854  1.00  0.00     0.094 C 
HETATM   25  C24 UNL     1      12.250  22.889  11.108  1.00  0.00     0.049 C 
HETATM   26  O2  UNL     1      14.253  23.786  10.273  1.00  0.00    -0.307 OA
HETATM   27  C25 UNL     1      13.795  25.098  10.502  1.00  0.00     0.266 C 
HETATM   28  O3  UNL     1      14.295  25.933  11.300  1.00  0.00    -0.265 OA
HETATM   29  C26 UNL     1      12.615  25.363   9.650  1.00  0.00     0.113 C 
HETATM   30  C27 UNL     1      11.392  25.769  10.401  1.00  0.00     0.023 C 
HETATM   31  C28 UNL     1      12.469  24.053   8.905  1.00  0.00     0.166 C 
BRANCH  31  32
HETATM   32  O4  UNL     1      11.143  23.774   8.601  1.00  0.00    -0.392 OA
ATOM     33  H4  UNL     1      10.593  23.662   9.368  1.00  0.00     0.210 HD
ENDBRANCH  31  32
ENDBRANCH  23  24
ENDBRANCH  22  23
ENDBRANCH  20  22
ENDBRANCH  18  19
ENDBRANCH   1  18
TORSDOF 15
ENDMDL
MODEL 4
REMARK VINA RESULT: -8.262804636      2.143      3.800
REMARK  15 active torsions:
REMARK  status: ('A' for Active; 'I' for Inactive)
REMARK    1  A    between atoms: C2_2  and  C16_17 
REMARK    2  A    between atoms: C3_3  and  C4_4 
REMARK    3  A    between atoms: C4_4  and  C5_5 
REMARK    4  A    between atoms: C5_5  and  C6_6 
REMARK    5  A    between atoms: C6_6  and  C8_8 
REMARK    6  A    between atoms: C8_8  and  C9_9 
REMARK    7  A    between atoms: C9_9  and  C10_10 
REMARK    8  A    between atoms: C11_11  and  C13_13 
REMARK    9  A    between atoms: C13_13  and  C14_14 
REMARK   10  A    between atoms: C16_17  and  C17_18 
REMARK   11  A    between atoms: C17_18  and  C18_19 
REMARK   12  A    between atoms: C19_20  and  C21_22 
REMARK   13  A    between atoms: C21_22  and  C22_23 
REMARK   14  A    between atoms: C22_23  and  C23_24 
REMARK   15  A    between atoms: C28_31  and  O4_32 
ROOT
HETATM    1  C16 UNL     1      14.574  15.768  11.125  1.00  0.00     0.037 C 
ENDROOT
BRANCH   1   2
HETATM    2  C2  UNL     1      13.265  15.806  11.749  1.00  0.00    -0.087 C 
HETATM    3  C1  UNL     1      12.101  16.275  10.869  1.00  0.00     0.043 C 
HETATM    4  C3  UNL     1      12.975  15.465  12.973  1.00  0.00    -0.024 C 
BRANCH   4   5
HETATM    5  C4  UNL     1      13.955  14.995  13.959  1.00  0.00     0.028 C 
BRANCH   5   6
HETATM    6  C5  UNL     1      14.324  16.076  14.978  1.00  0.00     0.008 C 
BRANCH   6   7
HETATM    7  C6  UNL     1      15.779  16.396  14.945  1.00  0.00    -0.018 C 
HETATM    8  C7  UNL     1      16.019  17.591  14.043  1.00  0.00     0.010 C 
BRANCH   7   9
HETATM    9  C8  UNL     1      16.537  15.232  14.364  1.00  0.00     0.008 C 
BRANCH   9  10
HETATM   10  C9  UNL     1      17.617  14.707  15.302  1.00  0.00     0.028 C 
BRANCH  10  11
HETATM   11  C10 UNL     1      18.872  15.384  14.964  1.00  0.00    -0.024 C 
HETATM   12  C11 UNL     1      19.474  16.253  15.725  1.00  0.00    -0.085 C 
HETATM   13  C12 UNL     1      20.774  16.888  15.260  1.00  0.00     0.043 C 
BRANCH  12  14
HETATM   14  C13 UNL     1      19.000  16.683  17.042  1.00  0.00     0.067 C 
BRANCH  14  15
HETATM   15  C14 UNL     1      19.773  17.946  17.432  1.00  0.00     0.149 A 
HETATM   16  C15 UNL     1      19.414  18.539  18.735  1.00  0.00     0.200 A 
HETATM   17  O1  UNL     1      19.003  19.145  17.557  1.00  0.00    -0.381 OA
ENDBRANCH  14  15
ENDBRANCH  12  14
ENDBRANCH  10  11
ENDBRANCH   9  10
ENDBRANCH   7   9
ENDBRANCH   6   7
ENDBRANCH   5   6
ENDBRANCH   4   5
ENDBRANCH   1   2
BRANCH   1  18
HETATM   18  C17 UNL     1      14.706  16.737   9.959  1.00  0.00     0.031 C 
BRANCH  18  19
HETATM   19  C18 UNL     1      15.446  17.950  10.444  1.00  0.00    -0.024 C 
HETATM   20  C19 UNL     1      14.934  19.170  10.330  1.00  0.00    -0.087 C 
HETATM   21  C20 UNL     1      13.588  19.295   9.700  1.00  0.00     0.043 C 
BRANCH  20  22
HETATM   22  C21 UNL     1      15.672  20.375  10.814  1.00  0.00     0.036 C 
BRANCH  22  23
HETATM   23  C22 UNL     1      16.767  20.732   9.848  1.00  0.00     0.045 C 
BRANCH  23  24
HETATM   24  C23 UNL     1      16.524  21.969   9.052  1.00  0.00     0.094 C 
HETATM   25  C24 UNL     1      15.845  21.575   7.754  1.00  0.00     0.049 C 
HETATM   26  O2  UNL     1      15.621  22.867   9.703  1.00  0.00    -0.307 OA
HETATM   27  C25 UNL     1      15.735  24.059   8.961  1.00  0.00     0.266 C 
HETATM   28  O3  UNL     1      14.850  24.942   8.828  1.00  0.00    -0.265 OA
HETATM   29  C26 UNL     1      17.078  24.126   8.344  1.00  0.00     0.113 C 
HETATM   30  C27 UNL     1      17.068  24.264   6.859  1.00  0.00     0.023 C 
HETATM   31  C28 UNL     1      17.712  22.841   8.836  1.00  0.00     0.166 C 
BRANCH  31  32
HETATM   32  O4  UNL     1      18.620  22.328   7.919  1.00  0.00    -0.392 OA
ATOM     33  H4  UNL     1      19.399  21.962   8.320  1.00  0.00     0.210 HD
ENDBRANCH  31  32
ENDBRANCH  23  24
ENDBRANCH  22  23
ENDBRANCH  20  22
ENDBRANCH  18  19
ENDBRANCH   1  18
TORSDOF 15
ENDMDL
MODEL 5
REMARK VINA RESULT: -8.244208639      1.157      1.626
REMARK  15 active torsions:
REMARK  status: ('A' for Active; 'I' for Inactive)
REMARK    1  A    between atoms: C2_2  and  C16_17 
REMARK    2  A    between atoms: C3_3  and  C4_4 
REMARK    3  A    between atoms: C4_4  and  C5_5 
REMARK    4  A    between atoms: C5_5  and  C6_6 
REMARK    5  A    between atoms: C6_6  and  C8_8 
REMARK    6  A    between atoms: C8_8  and  C9_9 
REMARK    7  A    between atoms: C9_9  and  C10_10 
REMARK    8  A    between atoms: C11_11  and  C13_13 
REMARK    9  A    between atoms: C13_13  and  C14_14 
REMARK   10  A    between atoms: C16_17  and  C17_18 
REMARK   11  A    between atoms: C17_18  and  C18_19 
REMARK   12  A    between atoms: C19_20  and  C21_22 
REMARK   13  A    between atoms: C21_22  and  C22_23 
REMARK   14  A    between atoms: C22_23  and  C23_24 
REMARK   15  A    between atoms: C28_31  and  O4_32 
ROOT
HETATM    1  C16 UNL     1      15.223  17.674  11.583  1.00  0.00     0.037 C 
ENDROOT
BRANCH   1   2
HETATM    2  C2  UNL     1      14.982  16.494  10.772  1.00  0.00    -0.087 C 
HETATM    3  C1  UNL     1      16.031  16.175   9.701  1.00  0.00     0.043 C 
HETATM    4  C3  UNL     1      13.978  15.670  10.875  1.00  0.00    -0.024 C 
BRANCH   4   5
HETATM    5  C4  UNL     1      12.880  15.815  11.838  1.00  0.00     0.028 C 
BRANCH   5   6
HETATM    6  C5  UNL     1      12.508  14.488  12.505  1.00  0.00     0.008 C 
BRANCH   6   7
HETATM    7  C6  UNL     1      13.121  14.357  13.858  1.00  0.00    -0.018 C 
HETATM    8  C7  UNL     1      12.285  13.423  14.709  1.00  0.00     0.010 C 
BRANCH   7   9
HETATM    9  C8  UNL     1      13.131  15.701  14.538  1.00  0.00     0.008 C 
BRANCH   9  10
HETATM   10  C9  UNL     1      14.448  15.990  15.248  1.00  0.00     0.028 C 
BRANCH  10  11
HETATM   11  C10 UNL     1      15.534  15.755  14.292  1.00  0.00    -0.024 C 
HETATM   12  C11 UNL     1      16.795  15.669  14.607  1.00  0.00    -0.085 C 
HETATM   13  C12 UNL     1      17.827  15.423  13.519  1.00  0.00     0.043 C 
BRANCH  12  14
HETATM   14  C13 UNL     1      17.327  15.780  15.967  1.00  0.00     0.067 C 
BRANCH  14  15
HETATM   15  C14 UNL     1      18.640  16.564  15.895  1.00  0.00     0.149 A 
HETATM   16  C15 UNL     1      19.298  16.830  17.189  1.00  0.00     0.200 A 
HETATM   17  O1  UNL     1      18.643  17.852  16.517  1.00  0.00    -0.381 OA
ENDBRANCH  14  15
ENDBRANCH  12  14
ENDBRANCH  10  11
ENDBRANCH   9  10
ENDBRANCH   7   9
ENDBRANCH   6   7
ENDBRANCH   5   6
ENDBRANCH   4   5
ENDBRANCH   1   2
BRANCH   1  18
HETATM   18  C17 UNL     1      16.431  18.476  11.120  1.00  0.00     0.031 C 
BRANCH  18  19
HETATM   19  C18 UNL     1      15.931  19.684  10.382  1.00  0.00    -0.024 C 
HETATM   20  C19 UNL     1      16.565  20.159   9.315  1.00  0.00    -0.087 C 
HETATM   21  C20 UNL     1      17.798  19.446   8.874  1.00  0.00     0.043 C 
BRANCH  20  22
HETATM   22  C21 UNL     1      16.066  21.361   8.582  1.00  0.00     0.036 C 
BRANCH  22  23
HETATM   23  C22 UNL     1      15.837  22.494   9.542  1.00  0.00     0.045 C 
BRANCH  23  24
HETATM   24  C23 UNL     1      14.414  22.909   9.696  1.00  0.00     0.094 C 
HETATM   25  C24 UNL     1      13.664  22.518   8.437  1.00  0.00     0.049 C 
HETATM   26  O2  UNL     1      13.758  22.220  10.764  1.00  0.00    -0.307 OA
HETATM   27  C25 UNL     1      12.552  22.927  10.933  1.00  0.00     0.266 C 
HETATM   28  O3  UNL     1      11.473  22.463  11.382  1.00  0.00    -0.265 OA
HETATM   29  C26 UNL     1      12.738  24.328  10.497  1.00  0.00     0.113 C 
HETATM   30  C27 UNL     1      11.799  24.770   9.425  1.00  0.00     0.023 C 
HETATM   31  C28 UNL     1      14.193  24.332  10.076  1.00  0.00     0.166 C 
BRANCH  31  32
HETATM   32  O4  UNL     1      14.431  25.227   9.041  1.00  0.00    -0.392 OA
ATOM     33  H4  UNL     1      14.323  26.137   9.292  1.00  0.00     0.210 HD
ENDBRANCH  31  32
ENDBRANCH  23  24
ENDBRANCH  22  23
ENDBRANCH  20  22
ENDBRANCH  18  19
ENDBRANCH   1  18
TORSDOF 15
ENDMDL
