MODEL 1
REMARK VINA RESULT: -8.561319512      0.000      0.000
REMARK  16 active torsions:
REMARK  status: ('A' for Active; 'I' for Inactive)
REMARK    1  A    between atoms: C2_2  and  C3_3 
REMARK    2  A    between atoms: C3_3  and  C4_4 
REMARK    3  A    between atoms: C4_4  and  C5_5 
REMARK    4  A    between atoms: C5_5  and  C6_6 
REMARK    5  A    between atoms: C6_6  and  O1_7 
REMARK    6  A    between atoms: C6_6  and  C9_11 
REMARK    7  A    between atoms: O1_7  and  C7_8 
REMARK    8  A    between atoms: C9_11  and  C11_13 
REMARK    9  A    between atoms: C12_14  and  C13_15 
REMARK   10  A    between atoms: C13_15  and  C14_16 
REMARK   11  A    between atoms: C16_18  and  C17_19 
REMARK   12  A    between atoms: C17_19  and  C18_20 
REMARK   13  A    between atoms: C18_20  and  C19_21 
REMARK   14  A    between atoms: C21_23  and  C22_24 
REMARK   15  A    between atoms: C23_25  and  C24_26 
REMARK   16  A    between atoms: C24_26  and  C25_27 
ROOT
HETATM    1  C11 UNL     1      14.688  16.091   9.736  1.00  0.00    -0.024 C 
HETATM    2  C12 UNL     1      15.990  16.224   9.762  1.00  0.00    -0.026 C 
ENDROOT
BRANCH   1   3
HETATM    3  C9  UNL     1      13.662  16.858  10.479  1.00  0.00     0.033 C 
HETATM    4  C10 UNL     1      12.991  15.974  11.519  1.00  0.00     0.017 C 
BRANCH   3   5
HETATM    5  C6  UNL     1      12.662  17.509   9.549  1.00  0.00     0.139 C 
BRANCH   5   6
HETATM    6  C5  UNL     1      12.712  19.028   9.712  1.00  0.00     0.037 C 
BRANCH   6   7
HETATM    7  C4  UNL     1      14.090  19.547   9.536  1.00  0.00     0.054 C 
BRANCH   7   8
HETATM    8  C3  UNL     1      14.308  21.008   9.525  1.00  0.00     0.186 C 
HETATM    9  O5  UNL     1      14.290  21.581   8.229  1.00  0.00    -0.210 OA
HETATM   10  O6  UNL     1      15.596  21.601   8.049  1.00  0.00    -0.154 OA
HETATM   11  C26 UNL     1      15.758  21.364   9.385  1.00  0.00     0.326 C 
HETATM   12  O7  UNL     1      16.714  21.415  10.185  1.00  0.00    -0.259 OA
BRANCH   8  13
HETATM   13  C2  UNL     1      13.549  21.896  10.440  1.00  0.00     0.047 C 
HETATM   14  C1  UNL     1      12.708  22.925   9.777  1.00  0.00     0.009 C 
ENDBRANCH   8  13
ENDBRANCH   7   8
ENDBRANCH   6   7
ENDBRANCH   5   6
BRANCH   5  15
HETATM   15  O1  UNL     1      11.390  17.010   9.919  1.00  0.00    -0.316 OA
BRANCH  15  16
HETATM   16  C7  UNL     1      10.263  17.097   9.125  1.00  0.00     0.255 C 
HETATM   17  C8  UNL     1       8.880  17.204   9.653  1.00  0.00     0.126 C 
HETATM   18  O2  UNL     1      10.416  17.085   7.878  1.00  0.00    -0.266 OA
ENDBRANCH  15  16
ENDBRANCH   5  15
ENDBRANCH   3   5
ENDBRANCH   1   3
BRANCH   2  19
HETATM   19  C13 UNL     1      16.692  17.207  10.574  1.00  0.00     0.060 C 
BRANCH  19  20
HETATM   20  C14 UNL     1      16.528  16.988  12.040  1.00  0.00    -0.084 C 
HETATM   21  C15 UNL     1      15.993  18.111  12.846  1.00  0.00     0.043 C 
HETATM   22  C16 UNL     1      16.849  15.838  12.609  1.00  0.00    -0.024 C 
BRANCH  22  23
HETATM   23  C17 UNL     1      16.655  15.689  14.109  1.00  0.00     0.031 C 
BRANCH  23  24
HETATM   24  C18 UNL     1      15.542  14.752  14.309  1.00  0.00     0.037 C 
BRANCH  24  25
HETATM   25  C19 UNL     1      14.268  15.201  14.829  1.00  0.00    -0.084 C 
HETATM   26  C20 UNL     1      14.389  16.548  15.591  1.00  0.00     0.043 C 
HETATM   27  C21 UNL     1      13.062  14.721  14.790  1.00  0.00     0.002 C 
BRANCH  27  28
HETATM   28  C22 UNL     1      12.520  13.543  14.206  1.00  0.00    -0.003 C 
HETATM   29  C23 UNL     1      11.520  12.873  14.723  1.00  0.00    -0.016 C 
BRANCH  29  30
HETATM   30  C24 UNL     1      10.795  13.192  15.949  1.00  0.00     0.140 C 
BRANCH  30  31
HETATM   31  C25 UNL     1       9.375  13.578  15.675  1.00  0.00     0.176 C 
HETATM   32  O3  UNL     1       9.002  13.923  14.517  1.00  0.00    -0.648 OA
HETATM   33  O4  UNL     1       8.434  13.569  16.681  1.00  0.00    -0.648 OA
ENDBRANCH  30  31
ENDBRANCH  29  30
ENDBRANCH  27  28
ENDBRANCH  24  25
ENDBRANCH  23  24
ENDBRANCH  22  23
ENDBRANCH  19  20
ENDBRANCH   2  19
TORSDOF 16
ENDMDL
MODEL 2
REMARK VINA RESULT: -8.537444078      4.473      7.670
REMARK  16 active torsions:
REMARK  status: ('A' for Active; 'I' for Inactive)
REMARK    1  A    between atoms: C2_2  and  C3_3 
REMARK    2  A    between atoms: C3_3  and  C4_4 
REMARK    3  A    between atoms: C4_4  and  C5_5 
REMARK    4  A    between atoms: C5_5  and  C6_6 
REMARK    5  A    between atoms: C6_6  and  O1_7 
REMARK    6  A    between atoms: C6_6  and  C9_11 
REMARK    7  A    between atoms: O1_7  and  C7_8 
REMARK    8  A    between atoms: C9_11  and  C11_13 
REMARK    9  A    between atoms: C12_14  and  C13_15 
REMARK   10  A    between atoms: C13_15  and  C14_16 
REMARK   11  A    between atoms: C16_18  and  C17_19 
REMARK   12  A    between atoms: C17_19  and  C18_20 
REMARK   13  A    between atoms: C18_20  and  C19_21 
REMARK   14  A    between atoms: C21_23  and  C22_24 
REMARK   15  A    between atoms: C23_25  and  C24_26 
REMARK   16  A    between atoms: C24_26  and  C25_27 
ROOT
HETATM    1  C11 UNL     1      16.226  17.441  11.703  1.00  0.00    -0.024 C 
HETATM    2  C12 UNL     1      16.908  17.107  12.769  1.00  0.00    -0.026 C 
ENDROOT
BRANCH   1   3
HETATM    3  C9  UNL     1      15.465  16.570  10.778  1.00  0.00     0.033 C 
HETATM    4  C10 UNL     1      15.918  16.799   9.345  1.00  0.00     0.017 C 
BRANCH   3   5
HETATM    5  C6  UNL     1      13.971  16.742  10.942  1.00  0.00     0.139 C 
BRANCH   5   6
HETATM    6  C5  UNL     1      13.307  15.377  11.125  1.00  0.00     0.037 C 
BRANCH   6   7
HETATM    7  C4  UNL     1      12.360  15.384  12.265  1.00  0.00     0.054 C 
BRANCH   7   8
HETATM    8  C3  UNL     1      12.513  14.370  13.328  1.00  0.00     0.186 C 
HETATM    9  O5  UNL     1      12.403  13.034  12.867  1.00  0.00    -0.210 OA
HETATM   10  O6  UNL     1      11.135  12.863  13.184  1.00  0.00    -0.154 OA
HETATM   11  C26 UNL     1      11.200  13.995  13.947  1.00  0.00     0.326 C 
HETATM   12  O7  UNL     1      10.474  14.523  14.814  1.00  0.00    -0.259 OA
BRANCH   8  13
HETATM   13  C2  UNL     1      13.642  14.441  14.289  1.00  0.00     0.047 C 
HETATM   14  C1  UNL     1      13.812  15.747  14.976  1.00  0.00     0.009 C 
ENDBRANCH   8  13
ENDBRANCH   7   8
ENDBRANCH   6   7
ENDBRANCH   5   6
BRANCH   5  15
HETATM   15  O1  UNL     1      13.511  17.366   9.757  1.00  0.00    -0.316 OA
BRANCH  15  16
HETATM   16  C7  UNL     1      12.733  18.508   9.736  1.00  0.00     0.255 C 
HETATM   17  C8  UNL     1      13.283  19.887   9.711  1.00  0.00     0.126 C 
HETATM   18  O2  UNL     1      11.484  18.375   9.741  1.00  0.00    -0.266 OA
ENDBRANCH  15  16
ENDBRANCH   5  15
ENDBRANCH   3   5
ENDBRANCH   1   3
BRANCH   2  19
HETATM   19  C13 UNL     1      17.045  15.742  13.255  1.00  0.00     0.060 C 
BRANCH  19  20
HETATM   20  C14 UNL     1      17.905  15.631  14.468  1.00  0.00    -0.084 C 
HETATM   21  C15 UNL     1      17.679  14.473  15.366  1.00  0.00     0.043 C 
HETATM   22  C16 UNL     1      18.836  16.530  14.743  1.00  0.00    -0.024 C 
BRANCH  22  23
HETATM   23  C17 UNL     1      19.674  16.350  15.998  1.00  0.00     0.031 C 
BRANCH  23  24
HETATM   24  C18 UNL     1      19.721  17.653  16.676  1.00  0.00     0.037 C 
BRANCH  24  25
HETATM   25  C19 UNL     1      20.860  18.533  16.530  1.00  0.00    -0.084 C 
HETATM   26  C20 UNL     1      22.005  17.877  15.713  1.00  0.00     0.043 C 
HETATM   27  C21 UNL     1      21.120  19.740  16.931  1.00  0.00     0.002 C 
BRANCH  27  28
HETATM   28  C22 UNL     1      20.366  20.680  17.685  1.00  0.00    -0.003 C 
HETATM   29  C23 UNL     1      20.131  20.560  18.968  1.00  0.00    -0.016 C 
BRANCH  29  30
HETATM   30  C24 UNL     1      20.581  19.480  19.840  1.00  0.00     0.140 C 
BRANCH  30  31
HETATM   31  C25 UNL     1      19.495  18.485  20.103  1.00  0.00     0.176 C 
HETATM   32  O3  UNL     1      18.296  18.721  19.778  1.00  0.00    -0.648 OA
HETATM   33  O4  UNL     1      19.773  17.279  20.711  1.00  0.00    -0.648 OA
ENDBRANCH  30  31
ENDBRANCH  29  30
ENDBRANCH  27  28
ENDBRANCH  24  25
ENDBRANCH  23  24
ENDBRANCH  22  23
ENDBRANCH  19  20
ENDBRANCH   2  19
TORSDOF 16
ENDMDL
MODEL 3
REMARK VINA RESULT: -8.489840109      3.341      5.877
REMARK  16 active torsions:
REMARK  status: ('A' for Active; 'I' for Inactive)
REMARK    1  A    between atoms: C2_2  and  C3_3 
REMARK    2  A    between atoms: C3_3  and  C4_4 
REMARK    3  A    between atoms: C4_4  and  C5_5 
REMARK    4  A    between atoms: C5_5  and  C6_6 
REMARK    5  A    between atoms: C6_6  and  O1_7 
REMARK    6  A    between atoms: C6_6  and  C9_11 
REMARK    7  A    between atoms: O1_7  and  C7_8 
REMARK    8  A    between atoms: C9_11  and  C11_13 
REMARK    9  A    between atoms: C12_14  and  C13_15 
REMARK   10  A    between atoms: C13_15  and  C14_16 
REMARK   11  A    between atoms: C16_18  and  C17_19 
REMARK   12  A    between atoms: C17_19  and  C18_20 
REMARK   13  A    between atoms: C18_20  and  C19_21 
REMARK   14  A    between atoms: C21_23  and  C22_24 
REMARK   15  A    between atoms: C23_25  and  C24_26 
REMARK   16  A    between atoms: C24_26  and  C25_27 
ROOT
HETATM    1  C11 UNL     1      16.553  20.529   9.979  1.00  0.00    -0.024 C 
HETATM    2  C12 UNL     1      15.623  19.751  10.472  1.00  0.00    -0.026 C 
ENDROOT
BRANCH   1   3
HETATM    3  C9  UNL     1      16.915  20.757   8.561  1.00  0.00     0.033 C 
HETATM    4  C10 UNL     1      18.280  20.159   8.262  1.00  0.00     0.017 C 
BRANCH   3   5
HETATM    5  C6  UNL     1      16.836  22.221   8.187  1.00  0.00     0.139 C 
BRANCH   5   6
HETATM    6  C5  UNL     1      15.374  22.658   8.099  1.00  0.00     0.037 C 
BRANCH   6   7
HETATM    7  C4  UNL     1      15.125  23.881   8.900  1.00  0.00     0.054 C 
BRANCH   7   8
HETATM    8  C3  UNL     1      13.918  23.946   9.749  1.00  0.00     0.186 C 
HETATM    9  O5  UNL     1      12.736  24.280   9.043  1.00  0.00    -0.210 OA
HETATM   10  O6  UNL     1      12.743  25.568   9.327  1.00  0.00    -0.154 OA
HETATM   11  C26 UNL     1      13.680  25.323  10.292  1.00  0.00     0.326 C 
HETATM   12  O7  UNL     1      14.159  25.968  11.247  1.00  0.00    -0.259 OA
BRANCH   8  13
HETATM   13  C2  UNL     1      13.600  22.853  10.702  1.00  0.00     0.047 C 
HETATM   14  C1  UNL     1      12.476  21.968  10.305  1.00  0.00     0.009 C 
ENDBRANCH   8  13
ENDBRANCH   7   8
ENDBRANCH   6   7
ENDBRANCH   5   6
BRANCH   5  15
HETATM   15  O1  UNL     1      17.470  22.345   6.927  1.00  0.00    -0.316 OA
BRANCH  15  16
HETATM   16  C7  UNL     1      17.824  23.551   6.354  1.00  0.00     0.255 C 
HETATM   17  C8  UNL     1      17.377  23.996   5.010  1.00  0.00     0.126 C 
HETATM   18  O2  UNL     1      18.571  24.321   7.008  1.00  0.00    -0.266 OA
ENDBRANCH  15  16
ENDBRANCH   5  15
ENDBRANCH   3   5
ENDBRANCH   1   3
BRANCH   2  19
HETATM   19  C13 UNL     1      14.736  18.927   9.665  1.00  0.00     0.060 C 
BRANCH  19  20
HETATM   20  C14 UNL     1      14.639  17.518  10.144  1.00  0.00    -0.084 C 
HETATM   21  C15 UNL     1      15.736  16.591   9.775  1.00  0.00     0.043 C 
HETATM   22  C16 UNL     1      13.616  17.101  10.871  1.00  0.00    -0.024 C 
BRANCH  22  23
HETATM   23  C17 UNL     1      13.586  15.651  11.323  1.00  0.00     0.031 C 
BRANCH  23  24
HETATM   24  C18 UNL     1      12.375  15.476  12.135  1.00  0.00     0.037 C 
BRANCH  24  25
HETATM   25  C19 UNL     1      12.396  14.700  13.356  1.00  0.00    -0.084 C 
HETATM   26  C20 UNL     1      11.877  13.254  13.140  1.00  0.00     0.043 C 
HETATM   27  C21 UNL     1      12.757  14.957  14.577  1.00  0.00     0.002 C 
BRANCH  27  28
HETATM   28  C22 UNL     1      13.280  16.126  15.194  1.00  0.00    -0.003 C 
HETATM   29  C23 UNL     1      14.549  16.450  15.175  1.00  0.00    -0.016 C 
BRANCH  29  30
HETATM   30  C24 UNL     1      15.631  15.703  14.541  1.00  0.00     0.140 C 
BRANCH  30  31
HETATM   31  C25 UNL     1      16.398  16.546  13.571  1.00  0.00     0.176 C 
HETATM   32  O3  UNL     1      16.110  17.763  13.389  1.00  0.00    -0.648 OA
HETATM   33  O4  UNL     1      17.444  16.015  12.846  1.00  0.00    -0.648 OA
ENDBRANCH  30  31
ENDBRANCH  29  30
ENDBRANCH  27  28
ENDBRANCH  24  25
ENDBRANCH  23  24
ENDBRANCH  22  23
ENDBRANCH  19  20
ENDBRANCH   2  19
TORSDOF 16
ENDMDL
MODEL 4
REMARK VINA RESULT: -8.467502786      4.485      8.197
REMARK  16 active torsions:
REMARK  status: ('A' for Active; 'I' for Inactive)
REMARK    1  A    between atoms: C2_2  and  C3_3 
REMARK    2  A    between atoms: C3_3  and  C4_4 
REMARK    3  A    between atoms: C4_4  and  C5_5 
REMARK    4  A    between atoms: C5_5  and  C6_6 
REMARK    5  A    between atoms: C6_6  and  O1_7 
REMARK    6  A    between atoms: C6_6  and  C9_11 
REMARK    7  A    between atoms: O1_7  and  C7_8 
REMARK    8  A    between atoms: C9_11  and  C11_13 
REMARK    9  A    between atoms: C12_14  and  C13_15 
REMARK   10  A    between atoms: C13_15  and  C14_16 
REMARK   11  A    between atoms: C16_18  and  C17_19 
REMARK   12  A    between atoms: C17_19  and  C18_20 
REMARK   13  A    between atoms: C18_20  and  C19_21 
REMARK   14  A    between atoms: C21_23  and  C22_24 
REMARK   15  A    between atoms: C23_25  and  C24_26 
REMARK   16  A    between atoms: C24_26  and  C25_27 
ROOT
HETATM    1  C11 UNL     1      14.606  16.067  14.200  1.00  0.00    -0.024 C 
HETATM    2  C12 UNL     1      15.374  15.519  15.107  1.00  0.00    -0.026 C 
ENDROOT
BRANCH   1   3
HETATM    3  C9  UNL     1      14.678  15.942  12.726  1.00  0.00     0.033 C 
HETATM    4  C10 UNL     1      15.583  17.019  12.149  1.00  0.00     0.017 C 
BRANCH   3   5
HETATM    5  C6  UNL     1      13.305  15.948  12.092  1.00  0.00     0.139 C 
BRANCH   5   6
HETATM    6  C5  UNL     1      12.707  14.542  12.132  1.00  0.00     0.037 C 
BRANCH   6   7
HETATM    7  C4  UNL     1      11.349  14.547  12.728  1.00  0.00     0.054 C 
BRANCH   7   8
HETATM    8  C3  UNL     1      10.888  13.354  13.467  1.00  0.00     0.186 C 
HETATM    9  O5  UNL     1      10.554  12.257  12.635  1.00  0.00    -0.210 OA
HETATM   10  O6  UNL     1       9.254  12.475  12.604  1.00  0.00    -0.154 OA
HETATM   11  C26 UNL     1       9.401  13.341  13.652  1.00  0.00     0.326 C 
HETATM   12  O7  UNL     1       8.626  13.905  14.451  1.00  0.00    -0.259 OA
BRANCH   8  13
HETATM   13  C2  UNL     1      11.651  12.841  14.633  1.00  0.00     0.047 C 
HETATM   14  C1  UNL     1      12.009  13.856  15.657  1.00  0.00     0.009 C 
ENDBRANCH   8  13
ENDBRANCH   7   8
ENDBRANCH   6   7
ENDBRANCH   5   6
BRANCH   5  15
HETATM   15  O1  UNL     1      13.486  16.374  10.754  1.00  0.00    -0.316 OA
BRANCH  15  16
HETATM   16  C7  UNL     1      12.714  17.342  10.139  1.00  0.00     0.255 C 
HETATM   17  C8  UNL     1      13.257  18.605   9.578  1.00  0.00     0.126 C 
HETATM   18  O2  UNL     1      11.477  17.144  10.049  1.00  0.00    -0.266 OA
ENDBRANCH  15  16
ENDBRANCH   5  15
ENDBRANCH   3   5
ENDBRANCH   1   3
BRANCH   2  19
HETATM   19  C13 UNL     1      16.497  14.645  14.804  1.00  0.00     0.060 C 
BRANCH  19  20
HETATM   20  C14 UNL     1      17.791  15.129  15.366  1.00  0.00    -0.084 C 
HETATM   21  C15 UNL     1      19.041  14.617  14.754  1.00  0.00     0.043 C 
HETATM   22  C16 UNL     1      17.833  15.982  16.377  1.00  0.00    -0.024 C 
BRANCH  22  23
HETATM   23  C17 UNL     1      19.188  16.430  16.897  1.00  0.00     0.031 C 
BRANCH  23  24
HETATM   24  C18 UNL     1      19.351  17.840  16.518  1.00  0.00     0.037 C 
BRANCH  24  25
HETATM   25  C19 UNL     1      20.652  18.474  16.534  1.00  0.00    -0.084 C 
HETATM   26  C20 UNL     1      21.724  17.630  15.796  1.00  0.00     0.043 C 
HETATM   27  C21 UNL     1      21.102  19.588  17.028  1.00  0.00     0.002 C 
BRANCH  27  28
HETATM   28  C22 UNL     1      20.474  20.634  17.758  1.00  0.00    -0.003 C 
HETATM   29  C23 UNL     1      20.259  20.589  19.050  1.00  0.00    -0.016 C 
BRANCH  29  30
HETATM   30  C24 UNL     1      20.609  19.499  19.955  1.00  0.00     0.140 C 
BRANCH  30  31
HETATM   31  C25 UNL     1      19.489  18.517  20.106  1.00  0.00     0.176 C 
HETATM   32  O3  UNL     1      18.308  18.812  19.766  1.00  0.00    -0.648 OA
HETATM   33  O4  UNL     1      19.717  17.259  20.623  1.00  0.00    -0.648 OA
ENDBRANCH  30  31
ENDBRANCH  29  30
ENDBRANCH  27  28
ENDBRANCH  24  25
ENDBRANCH  23  24
ENDBRANCH  22  23
ENDBRANCH  19  20
ENDBRANCH   2  19
TORSDOF 16
ENDMDL
MODEL 5
REMARK VINA RESULT: -8.361946031      2.369      3.922
REMARK  16 active torsions:
REMARK  status: ('A' for Active; 'I' for Inactive)
REMARK    1  A    between atoms: C2_2  and  C3_3 
REMARK    2  A    between atoms: C3_3  and  C4_4 
REMARK    3  A    between atoms: C4_4  and  C5_5 
REMARK    4  A    between atoms: C5_5  and  C6_6 
REMARK    5  A    between atoms: C6_6  and  O1_7 
REMARK    6  A    between atoms: C6_6  and  C9_11 
REMARK    7  A    between atoms: O1_7  and  C7_8 
REMARK    8  A    between atoms: C9_11  and  C11_13 
REMARK    9  A    between atoms: C12_14  and  C13_15 
REMARK   10  A    between atoms: C13_15  and  C14_16 
REMARK   11  A    between atoms: C16_18  and  C17_19 
REMARK   12  A    between atoms: C17_19  and  C18_20 
REMARK   13  A    between atoms: C18_20  and  C19_21 
REMARK   14  A    between atoms: C21_23  and  C22_24 
REMARK   15  A    between atoms: C23_25  and  C24_26 
REMARK   16  A    between atoms: C24_26  and  C25_27 
ROOT
HETATM    1  C11 UNL     1      13.725  19.120   9.856  1.00  0.00    -0.024 C 
HETATM    2  C12 UNL     1      13.858  17.819   9.899  1.00  0.00    -0.026 C 
ENDROOT
BRANCH   1   3
HETATM    3  C9  UNL     1      14.754  20.149   9.579  1.00  0.00     0.033 C 
HETATM    4  C10 UNL     1      15.654  20.335  10.791  1.00  0.00     0.017 C 
BRANCH   3   5
HETATM    5  C6  UNL     1      14.139  21.451   9.116  1.00  0.00     0.139 C 
BRANCH   5   6
HETATM    6  C5  UNL     1      14.719  21.847   7.759  1.00  0.00     0.037 C 
BRANCH   6   7
HETATM    7  C4  UNL     1      15.553  23.069   7.861  1.00  0.00     0.054 C 
BRANCH   7   8
HETATM    8  C3  UNL     1      16.983  22.991   7.497  1.00  0.00     0.186 C 
HETATM    9  O5  UNL     1      17.591  21.752   7.818  1.00  0.00    -0.210 OA
HETATM   10  O6  UNL     1      18.124  22.132   8.963  1.00  0.00    -0.154 OA
HETATM   11  C26 UNL     1      17.878  23.431   8.617  1.00  0.00     0.326 C 
HETATM   12  O7  UNL     1      18.239  24.547   9.044  1.00  0.00    -0.259 OA
BRANCH   8  13
HETATM   13  C2  UNL     1      17.447  23.404   6.149  1.00  0.00     0.047 C 
HETATM   14  C1  UNL     1      17.351  24.857   5.859  1.00  0.00     0.009 C 
ENDBRANCH   8  13
ENDBRANCH   7   8
ENDBRANCH   6   7
ENDBRANCH   5   6
BRANCH   5  15
HETATM   15  O1  UNL     1      14.466  22.417  10.099  1.00  0.00    -0.316 OA
BRANCH  15  16
HETATM   16  C7  UNL     1      13.537  23.218  10.735  1.00  0.00     0.255 C 
HETATM   17  C8  UNL     1      13.672  24.689  10.884  1.00  0.00     0.126 C 
HETATM   18  O2  UNL     1      12.515  22.671  11.219  1.00  0.00    -0.266 OA
ENDBRANCH  15  16
ENDBRANCH   5  15
ENDBRANCH   3   5
ENDBRANCH   1   3
BRANCH   2  19
HETATM   19  C13 UNL     1      15.114  17.120   9.671  1.00  0.00     0.060 C 
BRANCH  19  20
HETATM   20  C14 UNL     1      15.837  16.778  10.930  1.00  0.00    -0.084 C 
HETATM   21  C15 UNL     1      17.309  16.616  10.854  1.00  0.00     0.043 C 
HETATM   22  C16 UNL     1      15.197  16.622  12.077  1.00  0.00    -0.024 C 
BRANCH  22  23
HETATM   23  C17 UNL     1      16.001  16.274  13.318  1.00  0.00     0.031 C 
BRANCH  23  24
HETATM   24  C18 UNL     1      15.309  15.163  13.984  1.00  0.00     0.037 C 
BRANCH  24  25
HETATM   25  C19 UNL     1      13.944  15.299  14.447  1.00  0.00    -0.084 C 
HETATM   26  C20 UNL     1      13.817  16.334  15.596  1.00  0.00     0.043 C 
HETATM   27  C21 UNL     1      12.820  14.747  14.103  1.00  0.00     0.002 C 
BRANCH  27  28
HETATM   28  C22 UNL     1      12.493  13.775  13.119  1.00  0.00    -0.003 C 
HETATM   29  C23 UNL     1      11.366  13.108  13.104  1.00  0.00    -0.016 C 
BRANCH  29  30
HETATM   30  C24 UNL     1      10.268  13.230  14.058  1.00  0.00     0.140 C 
BRANCH  30  31
HETATM   31  C25 UNL     1       8.950  12.876  13.442  1.00  0.00     0.176 C 
HETATM   32  O3  UNL     1       8.827  11.864  12.694  1.00  0.00    -0.648 OA
HETATM   33  O4  UNL     1       7.832  13.648  13.674  1.00  0.00    -0.648 OA
ENDBRANCH  30  31
ENDBRANCH  29  30
ENDBRANCH  27  28
ENDBRANCH  24  25
ENDBRANCH  23  24
ENDBRANCH  22  23
ENDBRANCH  19  20
ENDBRANCH   2  19
TORSDOF 16
ENDMDL
