MODEL 1
REMARK VINA RESULT: -8.678407797      0.000      0.000
REMARK  14 active torsions:
REMARK  status: ('A' for Active; 'I' for Inactive)
REMARK    1  A    between atoms: C2_2  and  C3_3 
REMARK    2  A    between atoms: C3_3  and  C4_4 
REMARK    3  A    between atoms: C4_4  and  C5_5 
REMARK    4  A    between atoms: C5_5  and  O1_6 
REMARK    5  A    between atoms: O1_6  and  C6_7 
REMARK    6  A    between atoms: C9_10  and  C10_11 
REMARK    7  A    between atoms: C13_16  and  N2_17 
REMARK    8  A    between atoms: N2_17  and  C14_18 
REMARK    9  A    between atoms: C14_18  and  C15_19 
REMARK   10  A    between atoms: N3_22  and  C18_23 
REMARK   11  A    between atoms: C18_23  and  C19_24 
REMARK   12  A    between atoms: C19_24  and  O2_25 
REMARK   13  A    between atoms: C19_24  and  C20_27 
REMARK   14  A    between atoms: C20_27  and  N4_28 
ROOT
HETATM    1  C10 UNL     1      16.955  25.289  15.136  1.00  0.00     0.118 A 
HETATM    2  N1  UNL     1      16.464  24.877  13.933  1.00  0.00    -0.344 N 
ATOM      3  H1  UNL     1      16.818  25.294  13.073  1.00  0.00     0.167 HD
HETATM    4  C11 UNL     1      15.521  23.929  13.870  1.00  0.00     0.026 A 
HETATM    5  C12 UNL     1      15.015  23.336  14.997  1.00  0.00     0.046 A 
HETATM    6  C13 UNL     1      15.500  23.739  16.232  1.00  0.00     0.190 A 
HETATM    7  N6  UNL     1      16.472  24.723  16.235  1.00  0.00    -0.316 N 
ATOM      8  H6  UNL     1      16.841  25.031  17.135  1.00  0.00     0.170 HD
HETATM    9  C27 UNL     1      13.978  22.297  14.798  1.00  0.00     0.213 C 
HETATM   10  O3  UNL     1      14.468  21.425  13.844  1.00  0.00    -0.386 OA
HETATM   11  C28 UNL     1      14.754  21.965  12.623  1.00  0.00     0.174 C 
HETATM   12  C29 UNL     1      14.949  23.442  12.572  1.00  0.00     0.084 C 
ENDROOT
BRANCH   6  13
HETATM   13  N2  UNL     1      15.080  23.223  17.241  1.00  0.00    -0.403 NA
BRANCH  13  14
HETATM   14  C14 UNL     1      14.619  22.658  18.351  1.00  0.00     0.164 C 
BRANCH  14  15
HETATM   15  C15 UNL     1      15.527  21.612  19.023  1.00  0.00     0.068 C 
HETATM   16  C16 UNL     1      15.975  22.082  20.371  1.00  0.00     0.043 C 
HETATM   17  C17 UNL     1      17.483  21.939  20.347  1.00  0.00     0.273 C 
HETATM   18  N3  UNL     1      17.859  21.987  18.983  1.00  0.00     0.091 N 
HETATM   19  C26 UNL     1      16.770  21.476  18.230  1.00  0.00     0.283 C 
BRANCH  18  20
HETATM   20  C18 UNL     1      18.285  23.252  18.475  1.00  0.00     0.305 C 
BRANCH  20  21
HETATM   21  C19 UNL     1      18.147  24.341  19.523  1.00  0.00     0.174 C 
BRANCH  21  22
HETATM   22  O2  UNL     1      17.004  25.083  19.285  1.00  0.00    -0.392 OA
ATOM     23  H2  UNL     1      17.143  25.984  19.550  1.00  0.00     0.210 HD
ENDBRANCH  21  22
BRANCH  21  24
HETATM   24  C20 UNL     1      19.356  25.214  19.600  1.00  0.00     0.305 C 
BRANCH  24  25
HETATM   25  N4  UNL     1      20.245  24.899  20.701  1.00  0.00     0.094 N 
HETATM   26  C21 UNL     1      20.188  26.029  21.617  1.00  0.00     0.302 C 
HETATM   27  C22 UNL     1      20.990  27.206  21.149  1.00  0.00     0.302 C 
HETATM   28  N5  UNL     1      22.413  26.898  21.197  1.00  0.00     0.087 N 
HETATM   29  C23 UNL     1      23.064  27.443  20.011  1.00  0.00     0.310 C 
HETATM   30  C24 UNL     1      22.574  25.453  21.243  1.00  0.00     0.302 C 
HETATM   31  C25 UNL     1      21.619  24.822  20.220  1.00  0.00     0.302 C 
ENDBRANCH  24  25
ENDBRANCH  21  24
ENDBRANCH  20  21
ENDBRANCH  18  20
ENDBRANCH  14  15
ENDBRANCH  13  14
ENDBRANCH   6  13
BRANCH   1  32
HETATM   32  C9  UNL     1      17.989  26.321  15.190  1.00  0.00     0.009 A 
HETATM   33  C8  UNL     1      18.208  27.090  14.062  1.00  0.00     0.018 A 
HETATM   34  C7  UNL     1      19.173  28.090  14.035  1.00  0.00     0.038 A 
HETATM   35  C6  UNL     1      19.956  28.360  15.132  1.00  0.00     0.074 A 
HETATM   36  C31 UNL     1      19.738  27.583  16.280  1.00  0.00    -0.028 A 
HETATM   37  C30 UNL     1      18.770  26.595  16.279  1.00  0.00     0.024 A 
HETATM   38  C32 UNL     1      20.557  27.817  17.518  1.00  0.00     0.051 C 
BRANCH  35  39
HETATM   39  O1  UNL     1      20.929  29.324  15.207  1.00  0.00    -0.351 OA
BRANCH  39  40
HETATM   40  C5  UNL     1      22.040  29.533  14.423  1.00  0.00     0.175 C 
BRANCH  40  41
HETATM   41  C4  UNL     1      23.274  30.030  15.085  1.00  0.00     0.027 C 
BRANCH  41  42
HETATM   42  C3  UNL     1      24.325  28.947  15.250  1.00  0.00     0.002 C 
BRANCH  42  43
HETATM   43  C2  UNL     1      24.092  28.125  16.501  1.00  0.00    -0.004 C 
HETATM   44  C1  UNL     1      23.706  26.719  16.062  1.00  0.00     0.005 C 
ENDBRANCH  42  43
ENDBRANCH  41  42
ENDBRANCH  40  41
ENDBRANCH  39  40
ENDBRANCH  35  39
ENDBRANCH   1  32
TORSDOF 14
ENDMDL
MODEL 2
REMARK VINA RESULT: -8.676220790      0.994      1.718
REMARK  14 active torsions:
REMARK  status: ('A' for Active; 'I' for Inactive)
REMARK    1  A    between atoms: C2_2  and  C3_3 
REMARK    2  A    between atoms: C3_3  and  C4_4 
REMARK    3  A    between atoms: C4_4  and  C5_5 
REMARK    4  A    between atoms: C5_5  and  O1_6 
REMARK    5  A    between atoms: O1_6  and  C6_7 
REMARK    6  A    between atoms: C9_10  and  C10_11 
REMARK    7  A    between atoms: C13_16  and  N2_17 
REMARK    8  A    between atoms: N2_17  and  C14_18 
REMARK    9  A    between atoms: C14_18  and  C15_19 
REMARK   10  A    between atoms: N3_22  and  C18_23 
REMARK   11  A    between atoms: C18_23  and  C19_24 
REMARK   12  A    between atoms: C19_24  and  O2_25 
REMARK   13  A    between atoms: C19_24  and  C20_27 
REMARK   14  A    between atoms: C20_27  and  N4_28 
ROOT
HETATM    1  C10 UNL     1      17.415  25.519  15.320  1.00  0.00     0.118 A 
HETATM    2  N1  UNL     1      16.887  25.265  14.089  1.00  0.00    -0.344 N 
ATOM      3  H1  UNL     1      17.303  25.694  13.263  1.00  0.00     0.167 HD
HETATM    4  C11 UNL     1      15.828  24.459  13.955  1.00  0.00     0.026 A 
HETATM    5  C12 UNL     1      15.235  23.857  15.033  1.00  0.00     0.046 A 
HETATM    6  C13 UNL     1      15.754  24.100  16.296  1.00  0.00     0.190 A 
HETATM    7  N6  UNL     1      16.849  24.943  16.373  1.00  0.00    -0.316 N 
ATOM      8  H6  UNL     1      17.244  25.133  17.294  1.00  0.00     0.170 HD
HETATM    9  C27 UNL     1      14.072  22.983  14.756  1.00  0.00     0.213 C 
HETATM   10  O3  UNL     1      14.452  22.126  13.741  1.00  0.00    -0.386 OA
HETATM   11  C28 UNL     1      14.822  22.710  12.564  1.00  0.00     0.174 C 
HETATM   12  C29 UNL     1      15.211  24.148  12.623  1.00  0.00     0.084 C 
ENDROOT
BRANCH   6  13
HETATM   13  N2  UNL     1      15.259  23.572  17.263  1.00  0.00    -0.403 NA
BRANCH  13  14
HETATM   14  C14 UNL     1      14.711  22.992  18.325  1.00  0.00     0.164 C 
BRANCH  14  15
HETATM   15  C15 UNL     1      15.452  21.774  18.905  1.00  0.00     0.068 C 
HETATM   16  C16 UNL     1      15.737  21.966  20.361  1.00  0.00     0.043 C 
HETATM   17  C17 UNL     1      17.221  21.701  20.501  1.00  0.00     0.273 C 
HETATM   18  N3  UNL     1      17.785  21.949  19.227  1.00  0.00     0.091 N 
HETATM   19  C26 UNL     1      16.781  21.670  18.263  1.00  0.00     0.283 C 
BRANCH  18  20
HETATM   20  C18 UNL     1      18.355  23.242  19.014  1.00  0.00     0.305 C 
BRANCH  20  21
HETATM   21  C19 UNL     1      17.948  24.210  20.110  1.00  0.00     0.174 C 
BRANCH  21  22
HETATM   22  O2  UNL     1      17.144  25.205  19.586  1.00  0.00    -0.392 OA
ATOM     23  H2  UNL     1      17.679  25.935  19.297  1.00  0.00     0.210 HD
ENDBRANCH  21  22
BRANCH  21  24
HETATM   24  C20 UNL     1      19.125  24.784  20.828  1.00  0.00     0.305 C 
BRANCH  24  25
HETATM   25  N4  UNL     1      19.954  25.647  20.011  1.00  0.00     0.094 N 
HETATM   26  C21 UNL     1      21.272  25.031  19.961  1.00  0.00     0.302 C 
HETATM   27  C22 UNL     1      22.070  25.248  21.211  1.00  0.00     0.302 C 
HETATM   28  N5  UNL     1      22.439  26.651  21.337  1.00  0.00     0.087 N 
HETATM   29  C23 UNL     1      22.299  27.065  22.729  1.00  0.00     0.310 C 
HETATM   30  C24 UNL     1      21.562  27.440  20.485  1.00  0.00     0.302 C 
HETATM   31  C25 UNL     1      20.122  26.937  20.668  1.00  0.00     0.302 C 
ENDBRANCH  24  25
ENDBRANCH  21  24
ENDBRANCH  20  21
ENDBRANCH  18  20
ENDBRANCH  14  15
ENDBRANCH  13  14
ENDBRANCH   6  13
BRANCH   1  32
HETATM   32  C9  UNL     1      18.576  26.398  15.452  1.00  0.00     0.009 A 
HETATM   33  C8  UNL     1      19.260  26.406  16.653  1.00  0.00     0.018 A 
HETATM   34  C7  UNL     1      20.372  27.215  16.856  1.00  0.00     0.038 A 
HETATM   35  C6  UNL     1      20.844  28.044  15.868  1.00  0.00     0.074 A 
HETATM   36  C31 UNL     1      20.154  28.040  14.645  1.00  0.00    -0.028 A 
HETATM   37  C30 UNL     1      19.051  27.225  14.472  1.00  0.00     0.024 A 
HETATM   38  C32 UNL     1      20.608  28.924  13.518  1.00  0.00     0.051 C 
BRANCH  35  39
HETATM   39  O1  UNL     1      21.931  28.875  15.967  1.00  0.00    -0.351 OA
BRANCH  39  40
HETATM   40  C5  UNL     1      23.274  28.583  16.031  1.00  0.00     0.175 C 
BRANCH  40  41
HETATM   41  C4  UNL     1      23.708  27.217  15.641  1.00  0.00     0.027 C 
BRANCH  41  42
HETATM   42  C3  UNL     1      24.703  26.619  16.618  1.00  0.00     0.002 C 
BRANCH  42  43
HETATM   43  C2  UNL     1      24.092  26.421  17.990  1.00  0.00    -0.004 C 
HETATM   44  C1  UNL     1      24.844  25.282  18.667  1.00  0.00     0.005 C 
ENDBRANCH  42  43
ENDBRANCH  41  42
ENDBRANCH  40  41
ENDBRANCH  39  40
ENDBRANCH  35  39
ENDBRANCH   1  32
TORSDOF 14
ENDMDL
MODEL 3
REMARK VINA RESULT: -8.299389583      3.134      7.290
REMARK  14 active torsions:
REMARK  status: ('A' for Active; 'I' for Inactive)
REMARK    1  A    between atoms: C2_2  and  C3_3 
REMARK    2  A    between atoms: C3_3  and  C4_4 
REMARK    3  A    between atoms: C4_4  and  C5_5 
REMARK    4  A    between atoms: C5_5  and  O1_6 
REMARK    5  A    between atoms: O1_6  and  C6_7 
REMARK    6  A    between atoms: C9_10  and  C10_11 
REMARK    7  A    between atoms: C13_16  and  N2_17 
REMARK    8  A    between atoms: N2_17  and  C14_18 
REMARK    9  A    between atoms: C14_18  and  C15_19 
REMARK   10  A    between atoms: N3_22  and  C18_23 
REMARK   11  A    between atoms: C18_23  and  C19_24 
REMARK   12  A    between atoms: C19_24  and  O2_25 
REMARK   13  A    between atoms: C19_24  and  C20_27 
REMARK   14  A    between atoms: C20_27  and  N4_28 
ROOT
HETATM    1  C10 UNL     1      16.848  25.153  15.306  1.00  0.00     0.118 A 
HETATM    2  N1  UNL     1      16.443  24.687  14.090  1.00  0.00    -0.344 N 
ATOM      3  H1  UNL     1      16.893  25.029  13.242  1.00  0.00     0.167 HD
HETATM    4  C11 UNL     1      15.460  23.783  14.000  1.00  0.00     0.026 A 
HETATM    5  C12 UNL     1      14.825  23.291  15.109  1.00  0.00     0.046 A 
HETATM    6  C13 UNL     1      15.220  23.750  16.357  1.00  0.00     0.190 A 
HETATM    7  N6  UNL     1      16.240  24.684  16.388  1.00  0.00    -0.316 N 
ATOM      8  H6  UNL     1      16.543  25.033  17.298  1.00  0.00     0.170 HD
HETATM    9  C27 UNL     1      13.755  22.292  14.880  1.00  0.00     0.213 C 
HETATM   10  O3  UNL     1      14.279  21.336  14.030  1.00  0.00    -0.386 OA
HETATM   11  C28 UNL     1      14.701  21.780  12.811  1.00  0.00     0.174 C 
HETATM   12  C29 UNL     1      14.979  23.240  12.687  1.00  0.00     0.084 C 
ENDROOT
BRANCH   6  13
HETATM   13  N2  UNL     1      14.686  23.322  17.353  1.00  0.00    -0.403 NA
BRANCH  13  14
HETATM   14  C14 UNL     1      14.097  22.853  18.447  1.00  0.00     0.164 C 
BRANCH  14  15
HETATM   15  C15 UNL     1      14.447  21.411  18.856  1.00  0.00     0.068 C 
HETATM   16  C16 UNL     1      15.240  20.731  17.785  1.00  0.00     0.043 C 
HETATM   17  C17 UNL     1      14.501  19.434  17.524  1.00  0.00     0.273 C 
HETATM   18  N3  UNL     1      13.164  19.658  17.930  1.00  0.00     0.091 N 
HETATM   19  C26 UNL     1      13.197  20.626  18.967  1.00  0.00     0.283 C 
BRANCH  18  20
HETATM   20  C18 UNL     1      12.232  20.028  16.913  1.00  0.00     0.305 C 
BRANCH  20  21
HETATM   21  C19 UNL     1      10.982  19.170  16.973  1.00  0.00     0.174 C 
BRANCH  21  22
HETATM   22  O2  UNL     1      11.328  17.844  17.162  1.00  0.00    -0.392 OA
ATOM     23  H2  UNL     1      11.411  17.409  16.322  1.00  0.00     0.210 HD
ENDBRANCH  21  22
BRANCH  21  24
HETATM   24  C20 UNL     1      10.116  19.339  15.768  1.00  0.00     0.305 C 
BRANCH  24  25
HETATM   25  N4  UNL     1      10.846  19.642  14.553  1.00  0.00     0.094 N 
HETATM   26  C21 UNL     1      10.173  20.777  13.937  1.00  0.00     0.302 C 
HETATM   27  C22 UNL     1       8.910  20.396  13.226  1.00  0.00     0.302 C 
HETATM   28  N5  UNL     1       9.216  19.598  12.046  1.00  0.00     0.087 N 
HETATM   29  C23 UNL     1       8.247  18.514  11.933  1.00  0.00     0.310 C 
HETATM   30  C24 UNL     1      10.560  19.061  12.186  1.00  0.00     0.302 C 
HETATM   31  C25 UNL     1      10.729  18.531  13.617  1.00  0.00     0.302 C 
ENDBRANCH  24  25
ENDBRANCH  21  24
ENDBRANCH  20  21
ENDBRANCH  18  20
ENDBRANCH  14  15
ENDBRANCH  13  14
ENDBRANCH   6  13
BRANCH   1  32
HETATM   32  C9  UNL     1      17.926  26.135  15.391  1.00  0.00     0.009 A 
HETATM   33  C8  UNL     1      18.253  26.851  14.254  1.00  0.00     0.018 A 
HETATM   34  C7  UNL     1      19.268  27.802  14.255  1.00  0.00     0.038 A 
HETATM   35  C6  UNL     1      19.993  28.074  15.389  1.00  0.00     0.074 A 
HETATM   36  C31 UNL     1      19.665  27.351  16.547  1.00  0.00    -0.028 A 
HETATM   37  C30 UNL     1      18.651  26.412  16.517  1.00  0.00     0.024 A 
HETATM   38  C32 UNL     1      20.417  27.591  17.826  1.00  0.00     0.051 C 
BRANCH  35  39
HETATM   39  O1  UNL     1      21.007  28.992  15.494  1.00  0.00    -0.351 OA
BRANCH  39  40
HETATM   40  C5  UNL     1      21.827  29.530  14.530  1.00  0.00     0.175 C 
BRANCH  40  41
HETATM   41  C4  UNL     1      23.215  29.888  14.918  1.00  0.00     0.027 C 
BRANCH  41  42
HETATM   42  C3  UNL     1      23.732  29.051  16.075  1.00  0.00     0.002 C 
BRANCH  42  43
HETATM   43  C2  UNL     1      24.423  27.793  15.591  1.00  0.00    -0.004 C 
HETATM   44  C1  UNL     1      23.612  26.604  16.088  1.00  0.00     0.005 C 
ENDBRANCH  42  43
ENDBRANCH  41  42
ENDBRANCH  40  41
ENDBRANCH  39  40
ENDBRANCH  35  39
ENDBRANCH   1  32
TORSDOF 14
ENDMDL
MODEL 4
REMARK VINA RESULT: -8.216146204      4.114      9.252
REMARK  14 active torsions:
REMARK  status: ('A' for Active; 'I' for Inactive)
REMARK    1  A    between atoms: C2_2  and  C3_3 
REMARK    2  A    between atoms: C3_3  and  C4_4 
REMARK    3  A    between atoms: C4_4  and  C5_5 
REMARK    4  A    between atoms: C5_5  and  O1_6 
REMARK    5  A    between atoms: O1_6  and  C6_7 
REMARK    6  A    between atoms: C9_10  and  C10_11 
REMARK    7  A    between atoms: C13_16  and  N2_17 
REMARK    8  A    between atoms: N2_17  and  C14_18 
REMARK    9  A    between atoms: C14_18  and  C15_19 
REMARK   10  A    between atoms: N3_22  and  C18_23 
REMARK   11  A    between atoms: C18_23  and  C19_24 
REMARK   12  A    between atoms: C19_24  and  O2_25 
REMARK   13  A    between atoms: C19_24  and  C20_27 
REMARK   14  A    between atoms: C20_27  and  N4_28 
ROOT
HETATM    1  C10 UNL     1      13.929  21.588  16.752  1.00  0.00     0.118 A 
HETATM    2  N1  UNL     1      13.989  21.680  15.393  1.00  0.00    -0.344 N 
ATOM      3  H1  UNL     1      13.337  21.143  14.821  1.00  0.00     0.167 HD
HETATM    4  C11 UNL     1      14.894  22.468  14.801  1.00  0.00     0.026 A 
HETATM    5  C12 UNL     1      15.790  23.211  15.524  1.00  0.00     0.046 A 
HETATM    6  C13 UNL     1      15.749  23.134  16.909  1.00  0.00     0.190 A 
HETATM    7  N6  UNL     1      14.793  22.302  17.463  1.00  0.00    -0.316 N 
ATOM      8  H6  UNL     1      14.748  22.233  18.480  1.00  0.00     0.170 HD
HETATM    9  C27 UNL     1      16.740  24.048  14.756  1.00  0.00     0.213 C 
HETATM   10  O3  UNL     1      15.991  24.760  13.840  1.00  0.00    -0.386 OA
HETATM   11  C28 UNL     1      15.270  24.023  12.945  1.00  0.00     0.174 C 
HETATM   12  C29 UNL     1      14.999  22.603  13.311  1.00  0.00     0.084 C 
ENDROOT
BRANCH   6  13
HETATM   13  N2  UNL     1      16.519  23.789  17.571  1.00  0.00    -0.403 NA
BRANCH  13  14
HETATM   14  C14 UNL     1      17.367  24.507  18.298  1.00  0.00     0.164 C 
BRANCH  14  15
HETATM   15  C15 UNL     1      18.365  23.722  19.170  1.00  0.00     0.068 C 
HETATM   16  C16 UNL     1      18.019  23.847  20.620  1.00  0.00     0.043 C 
HETATM   17  C17 UNL     1      19.303  24.300  21.284  1.00  0.00     0.273 C 
HETATM   18  N3  UNL     1      20.061  24.939  20.275  1.00  0.00     0.091 N 
HETATM   19  C26 UNL     1      19.704  24.338  19.039  1.00  0.00     0.283 C 
BRANCH  18  20
HETATM   20  C18 UNL     1      19.967  26.362  20.199  1.00  0.00     0.305 C 
BRANCH  20  21
HETATM   21  C19 UNL     1      21.189  26.958  19.523  1.00  0.00     0.174 C 
BRANCH  21  22
HETATM   22  O2  UNL     1      21.762  27.913  20.343  1.00  0.00    -0.392 OA
ATOM     23  H2  UNL     1      22.669  28.050  20.096  1.00  0.00     0.210 HD
ENDBRANCH  21  22
BRANCH  21  24
HETATM   24  C20 UNL     1      20.878  27.517  18.174  1.00  0.00     0.305 C 
BRANCH  24  25
HETATM   25  N4  UNL     1      21.414  26.741  17.074  1.00  0.00     0.094 N 
HETATM   26  C21 UNL     1      22.371  27.597  16.388  1.00  0.00     0.302 C 
HETATM   27  C22 UNL     1      21.719  28.620  15.507  1.00  0.00     0.302 C 
HETATM   28  N5  UNL     1      21.083  27.972  14.368  1.00  0.00     0.087 N 
HETATM   29  C23 UNL     1      19.796  28.609  14.109  1.00  0.00     0.310 C 
HETATM   30  C24 UNL     1      20.895  26.564  14.681  1.00  0.00     0.302 C 
HETATM   31  C25 UNL     1      20.356  26.449  16.114  1.00  0.00     0.302 C 
ENDBRANCH  24  25
ENDBRANCH  21  24
ENDBRANCH  20  21
ENDBRANCH  18  20
ENDBRANCH  14  15
ENDBRANCH  13  14
ENDBRANCH   6  13
BRANCH   1  32
HETATM   32  C9  UNL     1      12.932  20.728  17.385  1.00  0.00     0.009 A 
HETATM   33  C8  UNL     1      11.782  20.426  16.678  1.00  0.00     0.018 A 
HETATM   34  C7  UNL     1      10.787  19.616  17.213  1.00  0.00     0.038 A 
HETATM   35  C6  UNL     1      10.902  19.076  18.471  1.00  0.00     0.074 A 
HETATM   36  C31 UNL     1      12.067  19.379  19.193  1.00  0.00    -0.028 A 
HETATM   37  C30 UNL     1      13.041  20.187  18.637  1.00  0.00     0.024 A 
HETATM   38  C32 UNL     1      12.262  18.829  20.578  1.00  0.00     0.051 C 
BRANCH  35  39
HETATM   39  O1  UNL     1       9.982  18.265  19.085  1.00  0.00    -0.351 OA
BRANCH  39  40
HETATM   40  C5  UNL     1       9.411  17.085  18.665  1.00  0.00     0.175 C 
BRANCH  40  41
HETATM   41  C4  UNL     1      10.272  16.118  17.939  1.00  0.00     0.027 C 
BRANCH  41  42
HETATM   42  C3  UNL     1       9.586  15.525  16.721  1.00  0.00     0.002 C 
BRANCH  42  43
HETATM   43  C2  UNL     1       9.157  14.092  16.962  1.00  0.00    -0.004 C 
HETATM   44  C1  UNL     1       9.530  13.287  15.724  1.00  0.00     0.005 C 
ENDBRANCH  42  43
ENDBRANCH  41  42
ENDBRANCH  40  41
ENDBRANCH  39  40
ENDBRANCH  35  39
ENDBRANCH   1  32
TORSDOF 14
ENDMDL
MODEL 5
REMARK VINA RESULT: -8.167678001      5.902     10.623
REMARK  14 active torsions:
REMARK  status: ('A' for Active; 'I' for Inactive)
REMARK    1  A    between atoms: C2_2  and  C3_3 
REMARK    2  A    between atoms: C3_3  and  C4_4 
REMARK    3  A    between atoms: C4_4  and  C5_5 
REMARK    4  A    between atoms: C5_5  and  O1_6 
REMARK    5  A    between atoms: O1_6  and  C6_7 
REMARK    6  A    between atoms: C9_10  and  C10_11 
REMARK    7  A    between atoms: C13_16  and  N2_17 
REMARK    8  A    between atoms: N2_17  and  C14_18 
REMARK    9  A    between atoms: C14_18  and  C15_19 
REMARK   10  A    between atoms: N3_22  and  C18_23 
REMARK   11  A    between atoms: C18_23  and  C19_24 
REMARK   12  A    between atoms: C19_24  and  O2_25 
REMARK   13  A    between atoms: C19_24  and  C20_27 
REMARK   14  A    between atoms: C20_27  and  N4_28 
ROOT
HETATM    1  C10 UNL     1      13.888  20.696  17.853  1.00  0.00     0.118 A 
HETATM    2  N1  UNL     1      13.796  19.768  18.847  1.00  0.00    -0.344 N 
ATOM      3  H1  UNL     1      14.581  19.631  19.484  1.00  0.00     0.167 HD
HETATM    4  C11 UNL     1      12.687  19.035  18.995  1.00  0.00     0.026 A 
HETATM    5  C12 UNL     1      11.606  19.182  18.167  1.00  0.00     0.046 A 
HETATM    6  C13 UNL     1      11.675  20.121  17.148  1.00  0.00     0.190 A 
HETATM    7  N6  UNL     1      12.847  20.848  17.043  1.00  0.00    -0.316 N 
ATOM      8  H6  UNL     1      12.916  21.543  16.300  1.00  0.00     0.170 HD
HETATM    9  C27 UNL     1      10.434  18.316  18.434  1.00  0.00     0.213 C 
HETATM   10  O3  UNL     1      10.160  18.425  19.785  1.00  0.00    -0.386 OA
HETATM   11  C28 UNL     1      11.158  18.048  20.635  1.00  0.00     0.174 C 
HETATM   12  C29 UNL     1      12.538  18.001  20.073  1.00  0.00     0.084 C 
ENDROOT
BRANCH   6  13
HETATM   13  N2  UNL     1      10.731  20.281  16.412  1.00  0.00    -0.403 NA
BRANCH  13  14
HETATM   14  C14 UNL     1       9.694  20.459  15.600  1.00  0.00     0.164 C 
BRANCH  14  15
HETATM   15  C15 UNL     1      10.015  20.707  14.115  1.00  0.00     0.068 C 
HETATM   16  C16 UNL     1       8.760  20.875  13.319  1.00  0.00     0.043 C 
HETATM   17  C17 UNL     1       8.897  19.896  12.172  1.00  0.00     0.273 C 
HETATM   18  N3  UNL     1       9.792  18.894  12.618  1.00  0.00     0.091 N 
HETATM   19  C26 UNL     1      10.667  19.502  13.556  1.00  0.00     0.283 C 
BRANCH  18  20
HETATM   20  C18 UNL     1       9.213  17.703  13.153  1.00  0.00     0.305 C 
BRANCH  20  21
HETATM   21  C19 UNL     1      10.132  17.057  14.175  1.00  0.00     0.174 C 
BRANCH  21  22
HETATM   22  O2  UNL     1      10.819  16.007  13.595  1.00  0.00    -0.392 OA
ATOM     23  H2  UNL     1      11.585  15.795  14.114  1.00  0.00     0.210 HD
ENDBRANCH  21  22
BRANCH  21  24
HETATM   24  C20 UNL     1       9.399  16.617  15.401  1.00  0.00     0.305 C 
BRANCH  24  25
HETATM   25  N4  UNL     1       9.435  15.186  15.629  1.00  0.00     0.094 N 
HETATM   26  C21 UNL     1       8.135  14.668  15.228  1.00  0.00     0.302 C 
HETATM   27  C22 UNL     1       7.062  14.926  16.243  1.00  0.00     0.302 C 
HETATM   28  N5  UNL     1       7.302  14.134  17.442  1.00  0.00     0.087 N 
HETATM   29  C23 UNL     1       7.009  14.943  18.621  1.00  0.00     0.310 C 
HETATM   30  C24 UNL     1       8.696  13.717  17.451  1.00  0.00     0.302 C 
HETATM   31  C25 UNL     1       9.568  14.917  17.056  1.00  0.00     0.302 C 
ENDBRANCH  24  25
ENDBRANCH  21  24
ENDBRANCH  20  21
ENDBRANCH  18  20
ENDBRANCH  14  15
ENDBRANCH  13  14
ENDBRANCH   6  13
BRANCH   1  32
HETATM   32  C9  UNL     1      15.103  21.494  17.706  1.00  0.00     0.009 A 
HETATM   33  C8  UNL     1      15.694  21.567  16.458  1.00  0.00     0.018 A 
HETATM   34  C7  UNL     1      16.852  22.305  16.239  1.00  0.00     0.038 A 
HETATM   35  C6  UNL     1      17.463  22.997  17.256  1.00  0.00     0.074 A 
HETATM   36  C31 UNL     1      16.868  22.927  18.526  1.00  0.00    -0.028 A 
HETATM   37  C30 UNL     1      15.717  22.186  18.715  1.00  0.00     0.024 A 
HETATM   38  C32 UNL     1      17.481  23.655  19.689  1.00  0.00     0.051 C 
BRANCH  35  39
HETATM   39  O1  UNL     1      18.601  23.754  17.143  1.00  0.00    -0.351 OA
BRANCH  39  40
HETATM   40  C5  UNL     1      18.796  24.994  16.578  1.00  0.00     0.175 C 
BRANCH  40  41
HETATM   41  C4  UNL     1      18.912  25.073  15.100  1.00  0.00     0.027 C 
BRANCH  41  42
HETATM   42  C3  UNL     1      17.903  26.027  14.485  1.00  0.00     0.002 C 
BRANCH  42  43
HETATM   43  C2  UNL     1      16.485  25.681  14.890  1.00  0.00    -0.004 C 
HETATM   44  C1  UNL     1      15.888  24.823  13.782  1.00  0.00     0.005 C 
ENDBRANCH  42  43
ENDBRANCH  41  42
ENDBRANCH  40  41
ENDBRANCH  39  40
ENDBRANCH  35  39
ENDBRANCH   1  32
TORSDOF 14
ENDMDL
