MODEL 1
REMARK VINA RESULT: -8.546013064      0.000      0.000
REMARK  16 active torsions:
REMARK  status: ('A' for Active; 'I' for Inactive)
REMARK    1  A    between atoms: C2_2  and  C3_3 
REMARK    2  A    between atoms: C3_3  and  C4_4 
REMARK    3  A    between atoms: C6_6  and  C7_7 
REMARK    4  A    between atoms: C9_9  and  C10_10 
REMARK    5  A    between atoms: C10_10  and  C11_11 
REMARK    6  A    between atoms: C11_11  and  C12_12 
REMARK    7  A    between atoms: C13_13  and  C15_15 
REMARK    8  A    between atoms: C15_15  and  C16_16 
REMARK    9  A    between atoms: C16_16  and  C17_17 
REMARK   10  A    between atoms: C21_21  and  O1_22 
REMARK   11  A    between atoms: O1_22  and  C22_23 
REMARK   12  A    between atoms: C22_23  and  C23_25 
REMARK   13  A    between atoms: C23_25  and  C24_26 
REMARK   14  A    between atoms: C24_26  and  C25_27 
REMARK   15  A    between atoms: C25_27  and  O3_28 
REMARK   16  A    between atoms: C25_27  and  O4_30 
ROOT
HETATM    1  C4  UNL     1      12.091  13.985  15.152  1.00  0.00    -0.077 A 
HETATM    2  C5  UNL     1      12.964  14.837  15.657  1.00  0.00    -0.012 A 
HETATM    3  C6  UNL     1      13.370  15.864  14.661  1.00  0.00     0.067 A 
HETATM    4  C21 UNL     1      12.577  15.538  13.460  1.00  0.00     0.151 A 
HETATM    5  C27 UNL     1      11.787  14.321  13.745  1.00  0.00     0.041 A 
HETATM    6  C28 UNL     1      12.160  13.139  12.871  1.00  0.00     0.017 C 
ENDROOT
BRANCH   3   7
HETATM    7  C7  UNL     1      14.830  15.880  14.452  1.00  0.00    -0.077 C 
HETATM    8  C8  UNL     1      15.487  17.163  14.118  1.00  0.00     0.044 C 
HETATM    9  C9  UNL     1      15.549  14.787  14.550  1.00  0.00    -0.023 C 
BRANCH   9  10
HETATM   10  C10 UNL     1      17.000  14.656  14.369  1.00  0.00     0.031 C 
BRANCH  10  11
HETATM   11  C11 UNL     1      17.695  14.755  15.731  1.00  0.00     0.031 C 
BRANCH  11  12
HETATM   12  C12 UNL     1      18.619  15.942  15.737  1.00  0.00    -0.024 C 
HETATM   13  C13 UNL     1      19.176  16.367  16.861  1.00  0.00    -0.087 C 
HETATM   14  C14 UNL     1      18.925  15.702  18.173  1.00  0.00     0.043 C 
BRANCH  13  15
HETATM   15  C15 UNL     1      20.079  17.535  16.837  1.00  0.00     0.037 C 
BRANCH  15  16
HETATM   16  C16 UNL     1      19.372  18.796  17.280  1.00  0.00     0.031 C 
BRANCH  16  17
HETATM   17  C17 UNL     1      20.338  19.541  18.161  1.00  0.00    -0.024 C 
HETATM   18  C18 UNL     1      20.216  19.448  19.469  1.00  0.00    -0.091 C 
HETATM   19  C19 UNL     1      21.157  20.172  20.373  1.00  0.00     0.042 C 
HETATM   20  C20 UNL     1      19.143  18.621  20.089  1.00  0.00     0.042 C 
ENDBRANCH  16  17
ENDBRANCH  15  16
ENDBRANCH  13  15
ENDBRANCH  11  12
ENDBRANCH  10  11
ENDBRANCH   9  10
ENDBRANCH   3   7
BRANCH   4  21
HETATM   21  O1  UNL     1      13.359  15.432  12.278  1.00  0.00    -0.314 OA
BRANCH  21  22
HETATM   22  C22 UNL     1      13.076  16.252  11.221  1.00  0.00     0.259 C 
HETATM   23  O2  UNL     1      11.880  16.566  10.994  1.00  0.00    -0.265 OA
BRANCH  22  24
HETATM   24  C23 UNL     1      14.098  16.812  10.298  1.00  0.00     0.116 C 
BRANCH  24  25
HETATM   25  C24 UNL     1      14.521  18.193  10.685  1.00  0.00     0.070 C 
BRANCH  25  26
HETATM   26  C25 UNL     1      14.049  19.155   9.612  1.00  0.00     0.256 C 
BRANCH  26  27
HETATM   27  O3  UNL     1      12.634  19.153   9.645  1.00  0.00    -0.371 OA
ATOM     28  H3  UNL     1      12.352  18.270   9.438  1.00  0.00     0.212 HD
ENDBRANCH  26  27
BRANCH  26  29
HETATM   29  O4  UNL     1      14.429  20.451   9.915  1.00  0.00    -0.366 OA
HETATM   30  C26 UNL     1      15.546  20.505  10.736  1.00  0.00     0.204 C 
ENDBRANCH  26  29
ENDBRANCH  25  26
ENDBRANCH  24  25
ENDBRANCH  22  24
ENDBRANCH  21  22
ENDBRANCH   4  21
BRANCH   1  31
HETATM   31  C3  UNL     1      11.449  12.811  15.853  1.00  0.00     0.034 C 
BRANCH  31  32
HETATM   32  C2  UNL     1      10.325  13.326  16.750  1.00  0.00    -0.000 C 
HETATM   33  C1  UNL     1       9.031  13.408  15.988  1.00  0.00     0.005 C 
ENDBRANCH  31  32
ENDBRANCH   1  31
TORSDOF 16
ENDMDL
MODEL 2
REMARK VINA RESULT: -8.497266945      1.533      2.117
REMARK  16 active torsions:
REMARK  status: ('A' for Active; 'I' for Inactive)
REMARK    1  A    between atoms: C2_2  and  C3_3 
REMARK    2  A    between atoms: C3_3  and  C4_4 
REMARK    3  A    between atoms: C6_6  and  C7_7 
REMARK    4  A    between atoms: C9_9  and  C10_10 
REMARK    5  A    between atoms: C10_10  and  C11_11 
REMARK    6  A    between atoms: C11_11  and  C12_12 
REMARK    7  A    between atoms: C13_13  and  C15_15 
REMARK    8  A    between atoms: C15_15  and  C16_16 
REMARK    9  A    between atoms: C16_16  and  C17_17 
REMARK   10  A    between atoms: C21_21  and  O1_22 
REMARK   11  A    between atoms: O1_22  and  C22_23 
REMARK   12  A    between atoms: C22_23  and  C23_25 
REMARK   13  A    between atoms: C23_25  and  C24_26 
REMARK   14  A    between atoms: C24_26  and  C25_27 
REMARK   15  A    between atoms: C25_27  and  O3_28 
REMARK   16  A    between atoms: C25_27  and  O4_30 
ROOT
HETATM    1  C4  UNL     1      12.107  14.287  15.117  1.00  0.00    -0.077 A 
HETATM    2  C5  UNL     1      12.995  15.177  15.520  1.00  0.00    -0.012 A 
HETATM    3  C6  UNL     1      13.502  16.000  14.390  1.00  0.00     0.067 A 
HETATM    4  C21 UNL     1      12.754  15.506  13.218  1.00  0.00     0.151 A 
HETATM    5  C27 UNL     1      11.891  14.389  13.658  1.00  0.00     0.041 A 
HETATM    6  C28 UNL     1      12.248  13.061  13.019  1.00  0.00     0.017 C 
ENDROOT
BRANCH   3   7
HETATM    7  C7  UNL     1      14.969  15.921  14.266  1.00  0.00    -0.077 C 
HETATM    8  C8  UNL     1      15.707  17.107  13.777  1.00  0.00     0.044 C 
HETATM    9  C9  UNL     1      15.625  14.827  14.572  1.00  0.00    -0.023 C 
BRANCH   9  10
HETATM   10  C10 UNL     1      17.075  14.608  14.498  1.00  0.00     0.031 C 
BRANCH  10  11
HETATM   11  C11 UNL     1      17.694  14.808  15.885  1.00  0.00     0.031 C 
BRANCH  11  12
HETATM   12  C12 UNL     1      18.604  16.005  15.858  1.00  0.00    -0.024 C 
HETATM   13  C13 UNL     1      19.168  16.457  16.968  1.00  0.00    -0.087 C 
HETATM   14  C14 UNL     1      18.938  15.815  18.296  1.00  0.00     0.043 C 
BRANCH  13  15
HETATM   15  C15 UNL     1      20.058  17.634  16.913  1.00  0.00     0.037 C 
BRANCH  15  16
HETATM   16  C16 UNL     1      19.355  18.888  17.383  1.00  0.00     0.031 C 
BRANCH  16  17
HETATM   17  C17 UNL     1      20.336  19.629  18.251  1.00  0.00    -0.024 C 
HETATM   18  C18 UNL     1      20.245  19.517  19.560  1.00  0.00    -0.091 C 
HETATM   19  C19 UNL     1      21.202  20.237  20.452  1.00  0.00     0.042 C 
HETATM   20  C20 UNL     1      19.194  18.673  20.194  1.00  0.00     0.042 C 
ENDBRANCH  16  17
ENDBRANCH  15  16
ENDBRANCH  13  15
ENDBRANCH  11  12
ENDBRANCH  10  11
ENDBRANCH   9  10
ENDBRANCH   3   7
BRANCH   4  21
HETATM   21  O1  UNL     1      13.588  15.168  12.117  1.00  0.00    -0.314 OA
BRANCH  21  22
HETATM   22  C22 UNL     1      13.626  16.001  11.034  1.00  0.00     0.259 C 
HETATM   23  O2  UNL     1      14.578  15.902  10.219  1.00  0.00    -0.265 OA
BRANCH  22  24
HETATM   24  C23 UNL     1      12.604  17.040  10.740  1.00  0.00     0.116 C 
BRANCH  24  25
HETATM   25  C24 UNL     1      12.264  17.110   9.286  1.00  0.00     0.070 C 
BRANCH  25  26
HETATM   26  C25 UNL     1      10.790  17.446   9.158  1.00  0.00     0.256 C 
BRANCH  26  27
HETATM   27  O3  UNL     1      10.318  16.806   7.988  1.00  0.00    -0.371 OA
ATOM     28  H3  UNL     1       9.908  15.993   8.260  1.00  0.00     0.212 HD
ENDBRANCH  26  27
BRANCH  26  29
HETATM   29  O4  UNL     1      10.069  16.893  10.203  1.00  0.00    -0.366 OA
HETATM   30  C26 UNL     1       8.715  16.783   9.922  1.00  0.00     0.204 C 
ENDBRANCH  26  29
ENDBRANCH  25  26
ENDBRANCH  24  25
ENDBRANCH  22  24
ENDBRANCH  21  22
ENDBRANCH   4  21
BRANCH   1  31
HETATM   31  C3  UNL     1      11.373  13.278  15.967  1.00  0.00     0.034 C 
BRANCH  31  32
HETATM   32  C2  UNL     1       9.874  13.410  15.707  1.00  0.00    -0.000 C 
HETATM   33  C1  UNL     1       9.100  13.306  16.993  1.00  0.00     0.005 C 
ENDBRANCH  31  32
ENDBRANCH   1  31
TORSDOF 16
ENDMDL
MODEL 3
REMARK VINA RESULT: -8.447482234      1.584      1.849
REMARK  16 active torsions:
REMARK  status: ('A' for Active; 'I' for Inactive)
REMARK    1  A    between atoms: C2_2  and  C3_3 
REMARK    2  A    between atoms: C3_3  and  C4_4 
REMARK    3  A    between atoms: C6_6  and  C7_7 
REMARK    4  A    between atoms: C9_9  and  C10_10 
REMARK    5  A    between atoms: C10_10  and  C11_11 
REMARK    6  A    between atoms: C11_11  and  C12_12 
REMARK    7  A    between atoms: C13_13  and  C15_15 
REMARK    8  A    between atoms: C15_15  and  C16_16 
REMARK    9  A    between atoms: C16_16  and  C17_17 
REMARK   10  A    between atoms: C21_21  and  O1_22 
REMARK   11  A    between atoms: O1_22  and  C22_23 
REMARK   12  A    between atoms: C22_23  and  C23_25 
REMARK   13  A    between atoms: C23_25  and  C24_26 
REMARK   14  A    between atoms: C24_26  and  C25_27 
REMARK   15  A    between atoms: C25_27  and  O3_28 
REMARK   16  A    between atoms: C25_27  and  O4_30 
ROOT
HETATM    1  C4  UNL     1      12.069  14.138  15.134  1.00  0.00    -0.077 A 
HETATM    2  C5  UNL     1      12.954  14.989  15.618  1.00  0.00    -0.012 A 
HETATM    3  C6  UNL     1      13.400  15.965  14.589  1.00  0.00     0.067 A 
HETATM    4  C21 UNL     1      12.617  15.609  13.389  1.00  0.00     0.151 A 
HETATM    5  C27 UNL     1      11.794  14.424  13.710  1.00  0.00     0.041 A 
HETATM    6  C28 UNL     1      12.152  13.199  12.889  1.00  0.00     0.017 C 
ENDROOT
BRANCH   3   7
HETATM    7  C7  UNL     1      14.862  15.939  14.402  1.00  0.00    -0.077 C 
HETATM    8  C8  UNL     1      15.556  17.194  14.039  1.00  0.00     0.044 C 
HETATM    9  C9  UNL     1      15.552  14.832  14.545  1.00  0.00    -0.023 C 
BRANCH   9  10
HETATM   10  C10 UNL     1      17.002  14.660  14.391  1.00  0.00     0.031 C 
BRANCH  10  11
HETATM   11  C11 UNL     1      17.679  14.779  15.760  1.00  0.00     0.031 C 
BRANCH  11  12
HETATM   12  C12 UNL     1      18.615  15.956  15.755  1.00  0.00    -0.024 C 
HETATM   13  C13 UNL     1      19.182  16.381  16.874  1.00  0.00    -0.087 C 
HETATM   14  C14 UNL     1      18.930  15.726  18.192  1.00  0.00     0.043 C 
BRANCH  13  15
HETATM   15  C15 UNL     1      20.096  17.540  16.840  1.00  0.00     0.037 C 
BRANCH  15  16
HETATM   16  C16 UNL     1      19.399  18.814  17.262  1.00  0.00     0.031 C 
BRANCH  16  17
HETATM   17  C17 UNL     1      20.367  19.560  18.140  1.00  0.00    -0.024 C 
HETATM   18  C18 UNL     1      20.242  19.474  19.449  1.00  0.00    -0.091 C 
HETATM   19  C19 UNL     1      21.184  20.201  20.350  1.00  0.00     0.042 C 
HETATM   20  C20 UNL     1      19.164  18.656  20.071  1.00  0.00     0.042 C 
ENDBRANCH  16  17
ENDBRANCH  15  16
ENDBRANCH  13  15
ENDBRANCH  11  12
ENDBRANCH  10  11
ENDBRANCH   9  10
ENDBRANCH   3   7
BRANCH   4  21
HETATM   21  O1  UNL     1      13.414  15.438  12.224  1.00  0.00    -0.314 OA
BRANCH  21  22
HETATM   22  C22 UNL     1      13.270  16.318  11.189  1.00  0.00     0.259 C 
HETATM   23  O2  UNL     1      12.117  16.704  10.868  1.00  0.00    -0.265 OA
BRANCH  22  24
HETATM   24  C23 UNL     1      14.400  16.867  10.393  1.00  0.00     0.116 C 
BRANCH  24  25
HETATM   25  C24 UNL     1      15.583  15.953  10.374  1.00  0.00     0.070 C 
BRANCH  25  26
HETATM   26  C25 UNL     1      16.840  16.802  10.326  1.00  0.00     0.256 C 
BRANCH  26  27
HETATM   27  O3  UNL     1      17.697  16.335  11.350  1.00  0.00    -0.371 OA
ATOM     28  H3  UNL     1      18.546  16.181  10.954  1.00  0.00     0.212 HD
ENDBRANCH  26  27
BRANCH  26  29
HETATM   29  O4  UNL     1      17.524  16.595   9.141  1.00  0.00    -0.366 OA
HETATM   30  C26 UNL     1      18.826  17.073   9.182  1.00  0.00     0.204 C 
ENDBRANCH  26  29
ENDBRANCH  25  26
ENDBRANCH  24  25
ENDBRANCH  22  24
ENDBRANCH  21  22
ENDBRANCH   4  21
BRANCH   1  31
HETATM   31  C3  UNL     1      11.388  13.008  15.870  1.00  0.00     0.034 C 
BRANCH  31  32
HETATM   32  C2  UNL     1       9.880  13.117  15.657  1.00  0.00    -0.000 C 
HETATM   33  C1  UNL     1       9.173  13.345  16.966  1.00  0.00     0.005 C 
ENDBRANCH  31  32
ENDBRANCH   1  31
TORSDOF 16
ENDMDL
MODEL 4
REMARK VINA RESULT: -8.240389562      3.236      5.624
REMARK  16 active torsions:
REMARK  status: ('A' for Active; 'I' for Inactive)
REMARK    1  A    between atoms: C2_2  and  C3_3 
REMARK    2  A    between atoms: C3_3  and  C4_4 
REMARK    3  A    between atoms: C6_6  and  C7_7 
REMARK    4  A    between atoms: C9_9  and  C10_10 
REMARK    5  A    between atoms: C10_10  and  C11_11 
REMARK    6  A    between atoms: C11_11  and  C12_12 
REMARK    7  A    between atoms: C13_13  and  C15_15 
REMARK    8  A    between atoms: C15_15  and  C16_16 
REMARK    9  A    between atoms: C16_16  and  C17_17 
REMARK   10  A    between atoms: C21_21  and  O1_22 
REMARK   11  A    between atoms: O1_22  and  C22_23 
REMARK   12  A    between atoms: C22_23  and  C23_25 
REMARK   13  A    between atoms: C23_25  and  C24_26 
REMARK   14  A    between atoms: C24_26  and  C25_27 
REMARK   15  A    between atoms: C25_27  and  O3_28 
REMARK   16  A    between atoms: C25_27  and  O4_30 
ROOT
HETATM    1  C4  UNL     1      11.635  13.956  15.049  1.00  0.00    -0.077 A 
HETATM    2  C5  UNL     1      12.504  14.802  15.570  1.00  0.00    -0.012 A 
HETATM    3  C6  UNL     1      13.119  15.669  14.530  1.00  0.00     0.067 A 
HETATM    4  C21 UNL     1      12.462  15.254  13.276  1.00  0.00     0.151 A 
HETATM    5  C27 UNL     1      11.543  14.138  13.585  1.00  0.00     0.041 A 
HETATM    6  C28 UNL     1      11.924  12.835  12.908  1.00  0.00     0.017 C 
ENDROOT
BRANCH   3   7
HETATM    7  C7  UNL     1      14.590  15.560  14.522  1.00  0.00    -0.077 C 
HETATM    8  C8  UNL     1      15.207  14.242  14.787  1.00  0.00     0.044 C 
HETATM    9  C9  UNL     1      15.354  16.602  14.293  1.00  0.00    -0.023 C 
BRANCH   9  10
HETATM   10  C10 UNL     1      16.821  16.640  14.255  1.00  0.00     0.031 C 
BRANCH  10  11
HETATM   11  C11 UNL     1      17.295  16.606  12.799  1.00  0.00     0.031 C 
BRANCH  11  12
HETATM   12  C12 UNL     1      16.510  17.606  11.994  1.00  0.00    -0.024 C 
HETATM   13  C13 UNL     1      16.588  17.629  10.672  1.00  0.00    -0.087 C 
HETATM   14  C14 UNL     1      17.449  16.677   9.910  1.00  0.00     0.043 C 
BRANCH  13  15
HETATM   15  C15 UNL     1      15.807  18.621   9.908  1.00  0.00     0.037 C 
BRANCH  15  16
HETATM   16  C16 UNL     1      15.453  19.824  10.752  1.00  0.00     0.031 C 
BRANCH  16  17
HETATM   17  C17 UNL     1      14.351  20.548  10.026  1.00  0.00    -0.024 C 
HETATM   18  C18 UNL     1      14.642  21.637   9.344  1.00  0.00    -0.091 C 
HETATM   19  C19 UNL     1      13.575  22.380   8.610  1.00  0.00     0.042 C 
HETATM   20  C20 UNL     1      16.034  22.162   9.280  1.00  0.00     0.042 C 
ENDBRANCH  16  17
ENDBRANCH  15  16
ENDBRANCH  13  15
ENDBRANCH  11  12
ENDBRANCH  10  11
ENDBRANCH   9  10
ENDBRANCH   3   7
BRANCH   4  21
HETATM   21  O1  UNL     1      13.377  14.951  12.231  1.00  0.00    -0.314 OA
BRANCH  21  22
HETATM   22  C22 UNL     1      13.378  15.727  11.107  1.00  0.00     0.259 C 
HETATM   23  O2  UNL     1      14.086  15.383  10.126  1.00  0.00    -0.265 OA
BRANCH  22  24
HETATM   24  C23 UNL     1      12.588  16.977  10.950  1.00  0.00     0.116 C 
BRANCH  24  25
HETATM   25  C24 UNL     1      12.399  17.357   9.517  1.00  0.00     0.070 C 
BRANCH  25  26
HETATM   26  C25 UNL     1      10.913  17.530   9.263  1.00  0.00     0.256 C 
BRANCH  26  27
HETATM   27  O3  UNL     1      10.611  16.832   8.070  1.00  0.00    -0.371 OA
ATOM     28  H3  UNL     1       9.962  16.174   8.289  1.00  0.00     0.212 HD
ENDBRANCH  26  27
BRANCH  26  29
HETATM   29  O4  UNL     1      10.172  16.914  10.256  1.00  0.00    -0.366 OA
HETATM   30  C26 UNL     1       8.825  16.814   9.937  1.00  0.00     0.204 C 
ENDBRANCH  26  29
ENDBRANCH  25  26
ENDBRANCH  24  25
ENDBRANCH  22  24
ENDBRANCH  21  22
ENDBRANCH   4  21
BRANCH   1  31
HETATM   31  C3  UNL     1      10.813  12.923  15.782  1.00  0.00     0.034 C 
BRANCH  31  32
HETATM   32  C2  UNL     1       9.336  13.299  15.672  1.00  0.00    -0.000 C 
HETATM   33  C1  UNL     1       8.752  13.565  17.033  1.00  0.00     0.005 C 
ENDBRANCH  31  32
ENDBRANCH   1  31
TORSDOF 16
ENDMDL
MODEL 5
REMARK VINA RESULT: -8.234135223      2.338      3.210
REMARK  16 active torsions:
REMARK  status: ('A' for Active; 'I' for Inactive)
REMARK    1  A    between atoms: C2_2  and  C3_3 
REMARK    2  A    between atoms: C3_3  and  C4_4 
REMARK    3  A    between atoms: C6_6  and  C7_7 
REMARK    4  A    between atoms: C9_9  and  C10_10 
REMARK    5  A    between atoms: C10_10  and  C11_11 
REMARK    6  A    between atoms: C11_11  and  C12_12 
REMARK    7  A    between atoms: C13_13  and  C15_15 
REMARK    8  A    between atoms: C15_15  and  C16_16 
REMARK    9  A    between atoms: C16_16  and  C17_17 
REMARK   10  A    between atoms: C21_21  and  O1_22 
REMARK   11  A    between atoms: O1_22  and  C22_23 
REMARK   12  A    between atoms: C22_23  and  C23_25 
REMARK   13  A    between atoms: C23_25  and  C24_26 
REMARK   14  A    between atoms: C24_26  and  C25_27 
REMARK   15  A    between atoms: C25_27  and  O3_28 
REMARK   16  A    between atoms: C25_27  and  O4_30 
ROOT
HETATM    1  C4  UNL     1      12.049  14.079  15.200  1.00  0.00    -0.077 A 
HETATM    2  C5  UNL     1      13.017  14.831  15.690  1.00  0.00    -0.012 A 
HETATM    3  C6  UNL     1      13.530  15.794  14.679  1.00  0.00     0.067 A 
HETATM    4  C21 UNL     1      12.696  15.548  13.487  1.00  0.00     0.151 A 
HETATM    5  C27 UNL     1      11.775  14.432  13.790  1.00  0.00     0.041 A 
HETATM    6  C28 UNL     1      12.005  13.206  12.928  1.00  0.00     0.017 C 
ENDROOT
BRANCH   3   7
HETATM    7  C7  UNL     1      14.981  15.642  14.461  1.00  0.00    -0.077 C 
HETATM    8  C8  UNL     1      15.583  14.297  14.592  1.00  0.00     0.044 C 
HETATM    9  C9  UNL     1      15.741  16.668  14.162  1.00  0.00    -0.023 C 
BRANCH   9  10
HETATM   10  C10 UNL     1      17.189  16.664  13.919  1.00  0.00     0.031 C 
BRANCH  10  11
HETATM   11  C11 UNL     1      17.932  16.663  15.259  1.00  0.00     0.031 C 
BRANCH  11  12
HETATM   12  C12 UNL     1      19.415  16.698  15.009  1.00  0.00    -0.024 C 
HETATM   13  C13 UNL     1      20.220  17.407  15.785  1.00  0.00    -0.087 C 
HETATM   14  C14 UNL     1      19.712  18.204  16.941  1.00  0.00     0.043 C 
BRANCH  13  15
HETATM   15  C15 UNL     1      21.671  17.424  15.517  1.00  0.00     0.037 C 
BRANCH  15  16
HETATM   16  C16 UNL     1      21.966  17.682  14.056  1.00  0.00     0.031 C 
BRANCH  16  17
HETATM   17  C17 UNL     1      23.190  18.557  14.014  1.00  0.00    -0.024 C 
HETATM   18  C18 UNL     1      23.690  18.904  12.846  1.00  0.00    -0.091 C 
HETATM   19  C19 UNL     1      24.902  19.771  12.767  1.00  0.00     0.042 C 
HETATM   20  C20 UNL     1      23.067  18.448  11.572  1.00  0.00     0.042 C 
ENDBRANCH  16  17
ENDBRANCH  15  16
ENDBRANCH  13  15
ENDBRANCH  11  12
ENDBRANCH  10  11
ENDBRANCH   9  10
ENDBRANCH   3   7
BRANCH   4  21
HETATM   21  O1  UNL     1      13.453  15.341  12.301  1.00  0.00    -0.314 OA
BRANCH  21  22
HETATM   22  C22 UNL     1      13.269  16.186  11.243  1.00  0.00     0.259 C 
HETATM   23  O2  UNL     1      12.116  16.628  11.005  1.00  0.00    -0.265 OA
BRANCH  22  24
HETATM   24  C23 UNL     1      14.354  16.634  10.330  1.00  0.00     0.116 C 
BRANCH  24  25
HETATM   25  C24 UNL     1      14.419  18.122  10.207  1.00  0.00     0.070 C 
BRANCH  25  26
HETATM   26  C25 UNL     1      15.603  18.616  11.017  1.00  0.00     0.256 C 
BRANCH  26  27
HETATM   27  O3  UNL     1      16.773  18.175  10.355  1.00  0.00    -0.371 OA
ATOM     28  H3  UNL     1      16.610  18.249   9.422  1.00  0.00     0.212 HD
ENDBRANCH  26  27
BRANCH  26  29
HETATM   29  O4  UNL     1      15.663  19.999  11.002  1.00  0.00    -0.366 OA
HETATM   30  C26 UNL     1      16.349  20.495   9.902  1.00  0.00     0.204 C 
ENDBRANCH  26  29
ENDBRANCH  25  26
ENDBRANCH  24  25
ENDBRANCH  22  24
ENDBRANCH  21  22
ENDBRANCH   4  21
BRANCH   1  31
HETATM   31  C3  UNL     1      11.283  12.993  15.917  1.00  0.00     0.034 C 
BRANCH  31  32
HETATM   32  C2  UNL     1       9.788  13.223  15.707  1.00  0.00    -0.000 C 
HETATM   33  C1  UNL     1       9.080  13.357  17.028  1.00  0.00     0.005 C 
ENDBRANCH  31  32
ENDBRANCH   1  31
TORSDOF 16
ENDMDL
