MODEL 1
REMARK VINA RESULT: -7.329669976      0.000      0.000
REMARK  6 active torsions:
REMARK  status: ('A' for Active; 'I' for Inactive)
REMARK    1  A    between atoms: O1_2  and  C2_3 
REMARK    2  A    between atoms: C2_3  and  C3_5 
REMARK    3  A    between atoms: C3_5  and  C5_7 
REMARK    4  A    between atoms: C14_19  and  O6_20 
REMARK    5  A    between atoms: O6_20  and  C15_21 
REMARK    6  A    between atoms: C18_25  and  C19_26 
ROOT
HETATM    1  C5  UNL     1       5.586  -2.876  24.810  1.00  0.00     0.099 C 
HETATM    2  C6  UNL     1       5.595  -2.098  23.508  1.00  0.00     0.021 C 
HETATM    3  C7  UNL     1       6.716  -1.103  23.462  1.00  0.00     0.002 C 
HETATM    4  C8  UNL     1       8.079  -1.699  23.359  1.00  0.00     0.065 C 
HETATM    5  C9  UNL     1       8.186  -2.933  22.524  1.00  0.00     0.044 C 
HETATM    6  C10 UNL     1       8.419  -4.185  23.332  1.00  0.00     0.128 C 
HETATM    7  C11 UNL     1       9.013  -5.217  22.377  1.00  0.00     0.040 C 
HETATM    8  O3  UNL     1       7.324  -4.656  24.027  1.00  0.00    -0.316 OA
HETATM    9  C12 UNL     1       6.288  -4.149  24.751  1.00  0.00     0.264 C 
HETATM   10  O4  UNL     1       5.807  -4.968  25.577  1.00  0.00    -0.265 OA
HETATM   11  C13 UNL     1       9.075  -0.715  22.854  1.00  0.00     0.160 C 
HETATM   12  O5  UNL     1      10.142  -1.177  22.479  1.00  0.00    -0.295 OA
HETATM   13  C14 UNL     1       8.863   0.739  22.777  1.00  0.00     0.202 C 
HETATM   14  C17 UNL     1       7.462   1.147  23.042  1.00  0.00     0.045 C 
HETATM   15  C18 UNL     1       6.473   0.085  22.612  1.00  0.00    -0.004 C 
ENDROOT
BRANCH   1  16
HETATM   16  C3  UNL     1       4.132  -3.167  25.213  1.00  0.00     0.095 C 
HETATM   17  C4  UNL     1       3.173  -2.372  24.376  1.00  0.00     0.021 C 
BRANCH  16  18
HETATM   18  C2  UNL     1       3.926  -2.890  26.656  1.00  0.00     0.263 C 
HETATM   19  O2  UNL     1       2.757  -2.921  27.110  1.00  0.00    -0.265 OA
BRANCH  18  20
HETATM   20  O1  UNL     1       4.955  -2.600  27.536  1.00  0.00    -0.326 OA
HETATM   21  C1  UNL     1       4.987  -3.236  28.806  1.00  0.00     0.213 C 
ENDBRANCH  18  20
ENDBRANCH  16  18
ENDBRANCH   1  16
BRANCH  15  22
HETATM   22  C19 UNL     1       6.501  -0.078  21.148  1.00  0.00    -0.018 C 
HETATM   23  C20 UNL     1       6.178   1.294  20.535  1.00  0.00     0.010 C 
HETATM   24  C21 UNL     1       5.478  -0.990  20.570  1.00  0.00     0.010 C 
ENDBRANCH  15  22
BRANCH  13  25
HETATM   25  O6  UNL     1       9.833   1.347  23.578  1.00  0.00    -0.309 OA
BRANCH  25  26
HETATM   26  C15 UNL     1      10.911   2.054  23.161  1.00  0.00     0.255 C 
HETATM   27  C16 UNL     1      11.638   2.948  24.089  1.00  0.00     0.126 C 
HETATM   28  O7  UNL     1      11.288   1.948  21.994  1.00  0.00    -0.266 OA
ENDBRANCH  25  26
ENDBRANCH  13  25
TORSDOF 6
ENDMDL
MODEL 2
REMARK VINA RESULT: -7.301822053      1.688      2.149
REMARK  6 active torsions:
REMARK  status: ('A' for Active; 'I' for Inactive)
REMARK    1  A    between atoms: O1_2  and  C2_3 
REMARK    2  A    between atoms: C2_3  and  C3_5 
REMARK    3  A    between atoms: C3_5  and  C5_7 
REMARK    4  A    between atoms: C14_19  and  O6_20 
REMARK    5  A    between atoms: O6_20  and  C15_21 
REMARK    6  A    between atoms: C18_25  and  C19_26 
ROOT
HETATM    1  C5  UNL     1       6.926  -3.203  25.732  1.00  0.00     0.099 C 
HETATM    2  C6  UNL     1       6.120  -2.952  24.473  1.00  0.00     0.021 C 
HETATM    3  C7  UNL     1       6.698  -1.837  23.654  1.00  0.00     0.002 C 
HETATM    4  C8  UNL     1       8.005  -2.148  23.007  1.00  0.00     0.065 C 
HETATM    5  C9  UNL     1       8.170  -3.551  22.520  1.00  0.00     0.044 C 
HETATM    6  C10 UNL     1       9.137  -4.362  23.346  1.00  0.00     0.128 C 
HETATM    7  C11 UNL     1       9.590  -5.526  22.470  1.00  0.00     0.040 C 
HETATM    8  O3  UNL     1       8.672  -4.762  24.581  1.00  0.00    -0.316 OA
HETATM    9  C12 UNL     1       7.930  -4.247  25.602  1.00  0.00     0.264 C 
HETATM   10  O4  UNL     1       8.155  -4.799  26.711  1.00  0.00    -0.265 OA
HETATM   11  C13 UNL     1       8.290  -1.230  21.869  1.00  0.00     0.160 C 
HETATM   12  O5  UNL     1       9.188  -1.575  21.116  1.00  0.00    -0.295 OA
HETATM   13  C14 UNL     1       7.579   0.029  21.600  1.00  0.00     0.202 C 
HETATM   14  C17 UNL     1       6.373   0.218  22.442  1.00  0.00     0.045 C 
HETATM   15  C18 UNL     1       5.729  -1.100  22.811  1.00  0.00    -0.004 C 
ENDROOT
BRANCH   1  16
HETATM   16  C3  UNL     1       5.975  -3.614  26.867  1.00  0.00     0.095 C 
HETATM   17  C4  UNL     1       4.547  -3.579  26.409  1.00  0.00     0.021 C 
BRANCH  16  18
HETATM   18  C2  UNL     1       6.169  -2.741  28.051  1.00  0.00     0.263 C 
HETATM   19  O2  UNL     1       7.242  -2.098  28.150  1.00  0.00    -0.265 OA
BRANCH  18  20
HETATM   20  O1  UNL     1       5.230  -2.594  29.059  1.00  0.00    -0.326 OA
HETATM   21  C1  UNL     1       5.397  -3.307  30.276  1.00  0.00     0.213 C 
ENDBRANCH  18  20
ENDBRANCH  16  18
ENDBRANCH   1  16
BRANCH  15  22
HETATM   22  C19 UNL     1       5.194  -1.763  21.609  1.00  0.00    -0.018 C 
HETATM   23  C20 UNL     1       4.792  -0.654  20.624  1.00  0.00     0.010 C 
HETATM   24  C21 UNL     1       3.950  -2.558  21.796  1.00  0.00     0.010 C 
ENDBRANCH  15  22
BRANCH  13  25
HETATM   25  O6  UNL     1       8.520   1.060  21.648  1.00  0.00    -0.309 OA
BRANCH  25  26
HETATM   26  C15 UNL     1       8.665   1.989  22.625  1.00  0.00     0.255 C 
HETATM   27  C16 UNL     1       8.224   3.385  22.416  1.00  0.00     0.126 C 
HETATM   28  O7  UNL     1       9.169   1.662  23.699  1.00  0.00    -0.266 OA
ENDBRANCH  25  26
ENDBRANCH  13  25
TORSDOF 6
ENDMDL
MODEL 3
REMARK VINA RESULT: -7.291615082      2.514      3.699
REMARK  6 active torsions:
REMARK  status: ('A' for Active; 'I' for Inactive)
REMARK    1  A    between atoms: O1_2  and  C2_3 
REMARK    2  A    between atoms: C2_3  and  C3_5 
REMARK    3  A    between atoms: C3_5  and  C5_7 
REMARK    4  A    between atoms: C14_19  and  O6_20 
REMARK    5  A    between atoms: O6_20  and  C15_21 
REMARK    6  A    between atoms: C18_25  and  C19_26 
ROOT
HETATM    1  C5  UNL     1       6.365  -2.588  27.151  1.00  0.00     0.099 C 
HETATM    2  C6  UNL     1       7.267  -2.737  25.940  1.00  0.00     0.021 C 
HETATM    3  C7  UNL     1       7.834  -1.420  25.501  1.00  0.00     0.002 C 
HETATM    4  C8  UNL     1       8.834  -0.827  26.435  1.00  0.00     0.065 C 
HETATM    5  C9  UNL     1       9.737  -1.799  27.121  1.00  0.00     0.044 C 
HETATM    6  C10 UNL     1       9.439  -1.958  28.591  1.00  0.00     0.128 C 
HETATM    7  C11 UNL     1      10.701  -2.528  29.233  1.00  0.00     0.040 C 
HETATM    8  O3  UNL     1       8.303  -2.679  28.893  1.00  0.00    -0.316 OA
HETATM    9  C12 UNL     1       7.032  -2.812  28.424  1.00  0.00     0.264 C 
HETATM   10  O4  UNL     1       6.220  -3.232  29.290  1.00  0.00    -0.265 OA
HETATM   11  C13 UNL     1       9.684   0.191  25.758  1.00  0.00     0.160 C 
HETATM   12  O5  UNL     1      10.696   0.525  26.355  1.00  0.00    -0.295 OA
HETATM   13  C14 UNL     1       9.394   0.801  24.451  1.00  0.00     0.202 C 
HETATM   14  C17 UNL     1       8.273   0.151  23.730  1.00  0.00     0.045 C 
HETATM   15  C18 UNL     1       8.167  -1.322  24.061  1.00  0.00    -0.004 C 
ENDROOT
BRANCH   1  16
HETATM   16  C3  UNL     1       5.210  -3.596  27.047  1.00  0.00     0.095 C 
HETATM   17  C4  UNL     1       5.587  -4.756  26.174  1.00  0.00     0.021 C 
BRANCH  16  18
HETATM   18  C2  UNL     1       3.983  -2.933  26.542  1.00  0.00     0.263 C 
HETATM   19  O2  UNL     1       4.056  -2.272  25.479  1.00  0.00    -0.265 OA
BRANCH  18  20
HETATM   20  O1  UNL     1       2.755  -3.002  27.180  1.00  0.00    -0.326 OA
HETATM   21  C1  UNL     1       1.582  -2.623  26.474  1.00  0.00     0.213 C 
ENDBRANCH  18  20
ENDBRANCH  16  18
ENDBRANCH   1  16
BRANCH  15  22
HETATM   22  C19 UNL     1       9.349  -2.046  23.561  1.00  0.00    -0.018 C 
HETATM   23  C20 UNL     1       9.358  -1.892  22.032  1.00  0.00     0.010 C 
HETATM   24  C21 UNL     1       9.360  -3.517  23.784  1.00  0.00     0.010 C 
ENDBRANCH  15  22
BRANCH  13  25
HETATM   25  O6  UNL     1       9.269   2.178  24.651  1.00  0.00    -0.309 OA
BRANCH  25  26
HETATM   26  C15 UNL     1       9.987   3.159  24.052  1.00  0.00     0.255 C 
HETATM   27  C16 UNL     1      11.464   3.097  24.006  1.00  0.00     0.126 C 
HETATM   28  O7  UNL     1       9.400   4.112  23.541  1.00  0.00    -0.266 OA
ENDBRANCH  25  26
ENDBRANCH  13  25
TORSDOF 6
ENDMDL
MODEL 4
REMARK VINA RESULT: -7.285702377      3.086      4.690
REMARK  6 active torsions:
REMARK  status: ('A' for Active; 'I' for Inactive)
REMARK    1  A    between atoms: O1_2  and  C2_3 
REMARK    2  A    between atoms: C2_3  and  C3_5 
REMARK    3  A    between atoms: C3_5  and  C5_7 
REMARK    4  A    between atoms: C14_19  and  O6_20 
REMARK    5  A    between atoms: O6_20  and  C15_21 
REMARK    6  A    between atoms: C18_25  and  C19_26 
ROOT
HETATM    1  C5  UNL     1       8.692  -2.818  26.299  1.00  0.00     0.099 C 
HETATM    2  C6  UNL     1       7.307  -3.190  25.804  1.00  0.00     0.021 C 
HETATM    3  C7  UNL     1       6.953  -2.464  24.541  1.00  0.00     0.002 C 
HETATM    4  C8  UNL     1       7.726  -2.887  23.338  1.00  0.00     0.065 C 
HETATM    5  C9  UNL     1       8.055  -4.342  23.257  1.00  0.00     0.044 C 
HETATM    6  C10 UNL     1       9.516  -4.640  23.484  1.00  0.00     0.128 C 
HETATM    7  C11 UNL     1       9.782  -6.012  22.872  1.00  0.00     0.040 C 
HETATM    8  O3  UNL     1       9.946  -4.536  24.791  1.00  0.00    -0.316 OA
HETATM    9  C12 UNL     1       9.746  -3.719  25.862  1.00  0.00     0.264 C 
HETATM   10  O4  UNL     1      10.696  -3.737  26.688  1.00  0.00    -0.265 OA
HETATM   11  C13 UNL     1       7.037  -2.501  22.076  1.00  0.00     0.160 C 
HETATM   12  O5  UNL     1       7.445  -3.037  21.057  1.00  0.00    -0.295 OA
HETATM   13  C14 UNL     1       5.926  -1.542  21.978  1.00  0.00     0.202 C 
HETATM   14  C17 UNL     1       5.376  -1.139  23.295  1.00  0.00     0.045 C 
HETATM   15  C18 UNL     1       5.505  -2.241  24.324  1.00  0.00    -0.004 C 
ENDROOT
BRANCH   1  16
HETATM   16  C3  UNL     1       8.694  -2.812  27.836  1.00  0.00     0.095 C 
HETATM   17  C4  UNL     1       7.321  -3.082  28.375  1.00  0.00     0.021 C 
BRANCH  16  18
HETATM   18  C2  UNL     1       9.218  -1.523  28.351  1.00  0.00     0.263 C 
HETATM   19  O2  UNL     1      10.048  -1.548  29.291  1.00  0.00    -0.265 OA
BRANCH  18  20
HETATM   20  O1  UNL     1       8.842  -0.287  27.851  1.00  0.00    -0.326 OA
HETATM   21  C1  UNL     1       9.760   0.796  27.905  1.00  0.00     0.213 C 
ENDBRANCH  18  20
ENDBRANCH  16  18
ENDBRANCH   1  16
BRANCH  15  22
HETATM   22  C19 UNL     1       4.663  -3.391  23.949  1.00  0.00    -0.018 C 
HETATM   23  C20 UNL     1       3.233  -2.861  23.761  1.00  0.00     0.010 C 
HETATM   24  C21 UNL     1       4.527  -4.464  24.971  1.00  0.00     0.010 C 
ENDBRANCH  15  22
BRANCH  13  25
HETATM   25  O6  UNL     1       6.345  -0.497  21.151  1.00  0.00    -0.309 OA
BRANCH  25  26
HETATM   26  C15 UNL     1       5.571   0.262  20.338  1.00  0.00     0.255 C 
HETATM   27  C16 UNL     1       4.543  -0.358  19.475  1.00  0.00     0.126 C 
HETATM   28  O7  UNL     1       5.728   1.483  20.321  1.00  0.00    -0.266 OA
ENDBRANCH  25  26
ENDBRANCH  13  25
TORSDOF 6
ENDMDL
MODEL 5
REMARK VINA RESULT: -7.276300151      2.912      5.988
REMARK  6 active torsions:
REMARK  status: ('A' for Active; 'I' for Inactive)
REMARK    1  A    between atoms: O1_2  and  C2_3 
REMARK    2  A    between atoms: C2_3  and  C3_5 
REMARK    3  A    between atoms: C3_5  and  C5_7 
REMARK    4  A    between atoms: C14_19  and  O6_20 
REMARK    5  A    between atoms: O6_20  and  C15_21 
REMARK    6  A    between atoms: C18_25  and  C19_26 
ROOT
HETATM    1  C5  UNL     1       9.010  -1.242  25.096  1.00  0.00     0.099 C 
HETATM    2  C6  UNL     1       7.770  -1.988  25.552  1.00  0.00     0.021 C 
HETATM    3  C7  UNL     1       6.738  -2.069  24.467  1.00  0.00     0.002 C 
HETATM    4  C8  UNL     1       7.103  -2.949  23.320  1.00  0.00     0.065 C 
HETATM    5  C9  UNL     1       7.871  -4.183  23.667  1.00  0.00     0.044 C 
HETATM    6  C10 UNL     1       9.314  -4.133  23.233  1.00  0.00     0.128 C 
HETATM    7  C11 UNL     1       9.801  -5.578  23.169  1.00  0.00     0.040 C 
HETATM    8  O3  UNL     1      10.133  -3.317  23.985  1.00  0.00    -0.316 OA
HETATM    9  C12 UNL     1      10.071  -2.098  24.590  1.00  0.00     0.264 C 
HETATM   10  O4  UNL     1      11.200  -1.567  24.761  1.00  0.00    -0.265 OA
HETATM   11  C13 UNL     1       5.905  -3.359  22.536  1.00  0.00     0.160 C 
HETATM   12  O5  UNL     1       6.066  -4.287  21.758  1.00  0.00    -0.295 OA
HETATM   13  C14 UNL     1       4.576  -2.737  22.636  1.00  0.00     0.202 C 
HETATM   14  C17 UNL     1       4.452  -1.786  23.768  1.00  0.00     0.045 C 
HETATM   15  C18 UNL     1       5.337  -2.175  24.932  1.00  0.00    -0.004 C 
ENDROOT
BRANCH   1  16
HETATM   16  C3  UNL     1       9.582  -0.445  26.279  1.00  0.00     0.095 C 
HETATM   17  C4  UNL     1       8.995  -0.915  27.577  1.00  0.00     0.021 C 
BRANCH  16  18
HETATM   18  C2  UNL     1       9.346   1.007  26.091  1.00  0.00     0.263 C 
HETATM   19  O2  UNL     1       8.942   1.407  24.973  1.00  0.00    -0.265 OA
BRANCH  18  20
HETATM   20  O1  UNL     1       9.547   1.953  27.083  1.00  0.00    -0.326 OA
HETATM   21  C1  UNL     1      10.860   2.437  27.329  1.00  0.00     0.213 C 
ENDBRANCH  18  20
ENDBRANCH  16  18
ENDBRANCH   1  16
BRANCH  15  22
HETATM   22  C19 UNL     1       4.883  -3.449  25.517  1.00  0.00    -0.018 C 
HETATM   23  C20 UNL     1       3.454  -3.224  26.035  1.00  0.00     0.010 C 
HETATM   24  C21 UNL     1       5.635  -3.929  26.707  1.00  0.00     0.010 C 
ENDBRANCH  15  22
BRANCH  13  25
HETATM   25  O6  UNL     1       4.257  -2.224  21.376  1.00  0.00    -0.309 OA
BRANCH  25  26
HETATM   26  C15 UNL     1       3.024  -2.127  20.822  1.00  0.00     0.255 C 
HETATM   27  C16 UNL     1       2.813  -1.370  19.569  1.00  0.00     0.126 C 
HETATM   28  O7  UNL     1       2.070  -2.677  21.372  1.00  0.00    -0.266 OA
ENDBRANCH  25  26
ENDBRANCH  13  25
TORSDOF 6
ENDMDL
