MODEL 1
REMARK VINA RESULT: -8.454575684      0.000      0.000
REMARK  12 active torsions:
REMARK  status: ('A' for Active; 'I' for Inactive)
REMARK    1  A    between atoms: C4_6  and  C5_7 
REMARK    2  A    between atoms: C5_7  and  N2_8 
REMARK    3  A    between atoms: N2_8  and  C6_9 
REMARK       I    between atoms: N2_8  and  C10_14 
REMARK    4  A    between atoms: C6_9  and  C7_10 
REMARK    5  A    between atoms: C7_10  and  N3_11 
REMARK       I    between atoms: C10_14  and  N4_16 
REMARK    6  A    between atoms: N4_16  and  C11_18 
REMARK    7  A    between atoms: C12_23  and  S1_24 
REMARK    8  A    between atoms: S1_24  and  C13_25 
REMARK    9  A    between atoms: C13_25  and  C14_26 
REMARK   10  A    between atoms: C14_26  and  C15_27 
REMARK   11  A    between atoms: C15_27  and  C16_28 
REMARK       I    between atoms: N9_34  and  C18_36 
REMARK   12  A    between atoms: C18_36  and  C19_38 
ROOT
HETATM    1  C11 UNL     1      21.846  32.660  16.117  1.00  0.00     0.169 A 
HETATM    2  N5  UNL     1      21.184  33.653  15.521  1.00  0.00    -0.278 N 
ATOM      3  H5  UNL     1      20.454  33.454  14.837  1.00  0.00     0.189 HD
HETATM    4  N6  UNL     1      21.479  34.845  15.820  1.00  0.00    -0.286 N 
ATOM      5  H6  UNL     1      20.975  35.608  15.368  1.00  0.00     0.188 HD
HETATM    6  C12 UNL     1      22.414  35.131  16.697  1.00  0.00     0.130 A 
HETATM    7  S3  UNL     1      22.918  33.513  17.133  1.00  0.00    -0.026 SA
ENDROOT
BRANCH   1   8
HETATM    8  N4  UNL     1      21.682  31.368  15.936  1.00  0.00    -0.287 N 
HETATM    9  C10 UNL     1      21.624  30.900  14.580  1.00  0.00     0.324 C 
HETATM   10  N2  UNL     1      20.771  29.844  14.188  1.00  0.00    -0.327 N 
HETATM   11  O1  UNL     1      22.358  31.452  13.723  1.00  0.00    -0.247 OA
ATOM     12  H4  UNL     1      21.601  30.727  16.725  1.00  0.00     0.172 HD
BRANCH  10  13
HETATM   13  C5  UNL     1      20.744  29.404  12.820  1.00  0.00     0.184 C 
BRANCH  13  14
HETATM   14  C4  UNL     1      21.489  28.155  12.573  1.00  0.00     0.027 A 
HETATM   15  N1  UNL     1      21.006  26.892  12.486  1.00  0.00    -0.367 N 
HETATM   16  C3  UNL     1      21.987  26.015  12.242  1.00  0.00     0.095 A 
ATOM     17  H1  UNL     1      20.022  26.642  12.592  1.00  0.00     0.165 HD
HETATM   18  C2  UNL     1      23.182  26.711  12.162  1.00  0.00    -0.045 A 
HETATM   19  C1  UNL     1      24.505  26.109  11.905  1.00  0.00     0.049 C 
HETATM   20  C22 UNL     1      22.860  28.017  12.366  1.00  0.00     0.034 A 
ENDBRANCH  13  14
ENDBRANCH  10  13
BRANCH  10  21
HETATM   21  C6  UNL     1      19.917  29.228  15.166  1.00  0.00     0.158 C 
BRANCH  21  22
HETATM   22  C7  UNL     1      18.453  29.385  14.925  1.00  0.00     0.291 C 
BRANCH  22  23
HETATM   23  N3  UNL     1      17.986  30.728  15.262  1.00  0.00     0.081 N 
HETATM   24  C8  UNL     1      18.319  31.089  16.606  1.00  0.00     0.309 C 
HETATM   25  C9  UNL     1      16.551  30.803  15.060  1.00  0.00     0.309 C 
ENDBRANCH  22  23
ENDBRANCH  21  22
ENDBRANCH  10  21
ENDBRANCH   1   8
BRANCH   6  26
HETATM   26  S1  UNL     1      23.057  36.664  17.329  1.00  0.00    -0.103 SA
BRANCH  26  27
HETATM   27  C13 UNL     1      22.986  36.760  19.085  1.00  0.00     0.082 C 
BRANCH  27  28
HETATM   28  C14 UNL     1      22.513  35.621  19.887  1.00  0.00     0.017 C 
BRANCH  28  29
HETATM   29  C15 UNL     1      21.198  35.668  20.551  1.00  0.00     0.067 C 
BRANCH  29  30
HETATM   30  C16 UNL     1      20.160  35.521  19.445  1.00  0.00     0.069 A 
HETATM   31  N7  UNL     1      19.687  34.406  18.916  1.00  0.00    -0.296 N 
HETATM   32  N8  UNL     1      18.817  34.460  17.992  1.00  0.00    -0.279 N 
ATOM     33  H7  UNL     1      20.022  33.502  19.250  1.00  0.00     0.187 HD
HETATM   34  C17 UNL     1      18.397  35.655  17.573  1.00  0.00     0.167 A 
ATOM     35  H8  UNL     1      18.447  33.605  17.577  1.00  0.00     0.189 HD
HETATM   36  N9  UNL     1      17.514  35.937  16.642  1.00  0.00    -0.306 N 
HETATM   37  S2  UNL     1      19.309  36.709  18.569  1.00  0.00    -0.038 SA
HETATM   38  C18 UNL     1      16.914  34.842  15.979  1.00  0.00     0.227 C 
ATOM     39  H9  UNL     1      17.273  36.899  16.408  1.00  0.00     0.171 HD
HETATM   40  O2  UNL     1      17.581  34.246  15.107  1.00  0.00    -0.273 OA
BRANCH  38  41
HETATM   41  C19 UNL     1      15.517  34.397  16.303  1.00  0.00     0.078 A 
HETATM   42  C20 UNL     1      14.894  34.957  17.546  1.00  0.00     0.015 A 
HETATM   43  C21 UNL     1      15.407  33.542  17.508  1.00  0.00     0.015 A 
ENDBRANCH  38  41
ENDBRANCH  29  30
ENDBRANCH  28  29
ENDBRANCH  27  28
ENDBRANCH  26  27
ENDBRANCH   6  26
TORSDOF 12
ENDMDL
MODEL 2
REMARK VINA RESULT: -8.397678242      2.122      4.591
REMARK  12 active torsions:
REMARK  status: ('A' for Active; 'I' for Inactive)
REMARK    1  A    between atoms: C4_6  and  C5_7 
REMARK    2  A    between atoms: C5_7  and  N2_8 
REMARK    3  A    between atoms: N2_8  and  C6_9 
REMARK       I    between atoms: N2_8  and  C10_14 
REMARK    4  A    between atoms: C6_9  and  C7_10 
REMARK    5  A    between atoms: C7_10  and  N3_11 
REMARK       I    between atoms: C10_14  and  N4_16 
REMARK    6  A    between atoms: N4_16  and  C11_18 
REMARK    7  A    between atoms: C12_23  and  S1_24 
REMARK    8  A    between atoms: S1_24  and  C13_25 
REMARK    9  A    between atoms: C13_25  and  C14_26 
REMARK   10  A    between atoms: C14_26  and  C15_27 
REMARK   11  A    between atoms: C15_27  and  C16_28 
REMARK       I    between atoms: N9_34  and  C18_36 
REMARK   12  A    between atoms: C18_36  and  C19_38 
ROOT
HETATM    1  C11 UNL     1      17.471  33.744  16.140  1.00  0.00     0.169 A 
HETATM    2  N5  UNL     1      17.294  34.734  15.263  1.00  0.00    -0.278 N 
ATOM      3  H5  UNL     1      17.415  34.570  14.264  1.00  0.00     0.189 HD
HETATM    4  N6  UNL     1      16.974  35.878  15.695  1.00  0.00    -0.286 N 
ATOM      5  H6  UNL     1      16.838  36.637  15.028  1.00  0.00     0.188 HD
HETATM    6  C12 UNL     1      16.812  36.117  16.976  1.00  0.00     0.130 A 
HETATM    7  S3  UNL     1      17.157  34.528  17.622  1.00  0.00    -0.026 SA
ENDROOT
BRANCH   1   8
HETATM    8  N4  UNL     1      17.803  32.498  15.884  1.00  0.00    -0.287 N 
HETATM    9  C10 UNL     1      18.736  32.277  14.815  1.00  0.00     0.324 C 
HETATM   10  N2  UNL     1      18.634  31.164  13.950  1.00  0.00    -0.327 N 
HETATM   11  O1  UNL     1      19.667  33.103  14.651  1.00  0.00    -0.247 OA
ATOM     12  H4  UNL     1      17.415  31.723  16.421  1.00  0.00     0.172 HD
BRANCH  10  13
HETATM   13  C5  UNL     1      19.589  30.978  12.893  1.00  0.00     0.184 C 
BRANCH  13  14
HETATM   14  C4  UNL     1      20.645  29.994  13.200  1.00  0.00     0.027 A 
HETATM   15  N1  UNL     1      20.952  29.438  14.397  1.00  0.00    -0.367 N 
HETATM   16  C3  UNL     1      21.969  28.576  14.282  1.00  0.00     0.095 A 
ATOM     17  H1  UNL     1      20.470  29.649  15.271  1.00  0.00     0.165 HD
HETATM   18  C2  UNL     1      22.367  28.548  12.956  1.00  0.00    -0.045 A 
HETATM   19  C1  UNL     1      23.463  27.721  12.411  1.00  0.00     0.049 C 
HETATM   20  C22 UNL     1      21.548  29.419  12.308  1.00  0.00     0.034 A 
ENDBRANCH  13  14
ENDBRANCH  10  13
BRANCH  10  21
HETATM   21  C6  UNL     1      17.555  30.231  14.126  1.00  0.00     0.158 C 
BRANCH  21  22
HETATM   22  C7  UNL     1      16.906  29.762  12.868  1.00  0.00     0.291 C 
BRANCH  22  23
HETATM   23  N3  UNL     1      17.167  28.348  12.613  1.00  0.00     0.081 N 
HETATM   24  C8  UNL     1      17.945  27.750  13.655  1.00  0.00     0.309 C 
HETATM   25  C9  UNL     1      17.840  28.205  11.335  1.00  0.00     0.309 C 
ENDBRANCH  22  23
ENDBRANCH  21  22
ENDBRANCH  10  21
ENDBRANCH   1   8
BRANCH   6  26
HETATM   26  S1  UNL     1      16.374  37.577  17.891  1.00  0.00    -0.103 SA
BRANCH  26  27
HETATM   27  C13 UNL     1      17.775  38.406  18.563  1.00  0.00     0.082 C 
BRANCH  27  28
HETATM   28  C14 UNL     1      19.022  37.677  18.843  1.00  0.00     0.017 C 
BRANCH  28  29
HETATM   29  C15 UNL     1      20.221  37.899  18.013  1.00  0.00     0.067 C 
BRANCH  29  30
HETATM   30  C16 UNL     1      20.787  36.517  17.710  1.00  0.00     0.069 A 
HETATM   31  N7  UNL     1      20.419  35.678  16.756  1.00  0.00    -0.296 N 
HETATM   32  N8  UNL     1      20.999  34.554  16.641  1.00  0.00    -0.279 N 
ATOM     33  H7  UNL     1      19.669  35.934  16.114  1.00  0.00     0.187 HD
HETATM   34  C17 UNL     1      21.977  34.244  17.495  1.00  0.00     0.167 A 
ATOM     35  H8  UNL     1      20.722  33.901  15.908  1.00  0.00     0.189 HD
HETATM   36  N9  UNL     1      22.701  33.149  17.553  1.00  0.00    -0.306 N 
HETATM   37  S2  UNL     1      22.031  35.644  18.479  1.00  0.00    -0.038 SA
HETATM   38  C18 UNL     1      22.426  32.149  16.592  1.00  0.00     0.227 C 
ATOM     39  H9  UNL     1      23.427  33.026  18.258  1.00  0.00     0.171 HD
HETATM   40  O2  UNL     1      21.413  31.437  16.758  1.00  0.00    -0.273 OA
BRANCH  38  41
HETATM   41  C19 UNL     1      23.316  31.938  15.402  1.00  0.00     0.078 A 
HETATM   42  C20 UNL     1      24.191  33.084  14.991  1.00  0.00     0.015 A 
HETATM   43  C21 UNL     1      22.951  32.738  14.210  1.00  0.00     0.015 A 
ENDBRANCH  38  41
ENDBRANCH  29  30
ENDBRANCH  28  29
ENDBRANCH  27  28
ENDBRANCH  26  27
ENDBRANCH   6  26
TORSDOF 12
ENDMDL
MODEL 3
REMARK VINA RESULT: -8.238207373      1.384      3.220
REMARK  12 active torsions:
REMARK  status: ('A' for Active; 'I' for Inactive)
REMARK    1  A    between atoms: C4_6  and  C5_7 
REMARK    2  A    between atoms: C5_7  and  N2_8 
REMARK    3  A    between atoms: N2_8  and  C6_9 
REMARK       I    between atoms: N2_8  and  C10_14 
REMARK    4  A    between atoms: C6_9  and  C7_10 
REMARK    5  A    between atoms: C7_10  and  N3_11 
REMARK       I    between atoms: C10_14  and  N4_16 
REMARK    6  A    between atoms: N4_16  and  C11_18 
REMARK    7  A    between atoms: C12_23  and  S1_24 
REMARK    8  A    between atoms: S1_24  and  C13_25 
REMARK    9  A    between atoms: C13_25  and  C14_26 
REMARK   10  A    between atoms: C14_26  and  C15_27 
REMARK   11  A    between atoms: C15_27  and  C16_28 
REMARK       I    between atoms: N9_34  and  C18_36 
REMARK   12  A    between atoms: C18_36  and  C19_38 
ROOT
HETATM    1  C11 UNL     1      21.851  33.688  15.304  1.00  0.00     0.169 A 
HETATM    2  N5  UNL     1      21.124  34.806  15.257  1.00  0.00    -0.278 N 
ATOM      3  H5  UNL     1      20.312  34.871  14.643  1.00  0.00     0.189 HD
HETATM    4  N6  UNL     1      21.461  35.782  15.985  1.00  0.00    -0.286 N 
ATOM      5  H6  UNL     1      20.908  36.638  15.952  1.00  0.00     0.188 HD
HETATM    6  C12 UNL     1      22.501  35.726  16.785  1.00  0.00     0.130 A 
HETATM    7  S3  UNL     1      23.048  34.097  16.448  1.00  0.00    -0.026 SA
ENDROOT
BRANCH   1   8
HETATM    8  N4  UNL     1      21.658  32.579  14.626  1.00  0.00    -0.287 N 
HETATM    9  C10 UNL     1      20.659  31.675  15.122  1.00  0.00     0.324 C 
HETATM   10  N2  UNL     1      20.815  30.273  15.051  1.00  0.00    -0.327 N 
HETATM   11  O1  UNL     1      19.617  32.154  15.634  1.00  0.00    -0.247 OA
ATOM     12  H4  UNL     1      22.195  32.370  13.785  1.00  0.00     0.172 HD
BRANCH  10  13
HETATM   13  C5  UNL     1      19.790  29.402  15.558  1.00  0.00     0.184 C 
BRANCH  13  14
HETATM   14  C4  UNL     1      18.897  28.853  14.519  1.00  0.00     0.027 A 
HETATM   15  N1  UNL     1      18.775  27.566  14.112  1.00  0.00    -0.367 N 
HETATM   16  C3  UNL     1      17.851  27.449  13.151  1.00  0.00     0.095 A 
ATOM     17  H1  UNL     1      19.317  26.788  14.488  1.00  0.00     0.165 HD
HETATM   18  C2  UNL     1      17.327  28.706  12.897  1.00  0.00    -0.045 A 
HETATM   19  C1  UNL     1      16.279  29.009  11.902  1.00  0.00     0.049 C 
HETATM   20  C22 UNL     1      17.977  29.552  13.742  1.00  0.00     0.034 A 
ENDBRANCH  13  14
ENDBRANCH  10  13
BRANCH  10  21
HETATM   21  C6  UNL     1      22.018  29.725  14.484  1.00  0.00     0.158 C 
BRANCH  21  22
HETATM   22  C7  UNL     1      21.975  29.478  13.014  1.00  0.00     0.291 C 
BRANCH  22  23
HETATM   23  N3  UNL     1      22.079  28.055  12.697  1.00  0.00     0.081 N 
HETATM   24  C8  UNL     1      23.431  27.662  12.439  1.00  0.00     0.309 C 
HETATM   25  C9  UNL     1      21.238  27.754  11.552  1.00  0.00     0.309 C 
ENDBRANCH  22  23
ENDBRANCH  21  22
ENDBRANCH  10  21
ENDBRANCH   1   8
BRANCH   6  26
HETATM   26  S1  UNL     1      23.228  36.892  17.913  1.00  0.00    -0.103 SA
BRANCH  26  27
HETATM   27  C13 UNL     1      23.147  36.359  19.589  1.00  0.00     0.082 C 
BRANCH  27  28
HETATM   28  C14 UNL     1      22.243  35.271  19.994  1.00  0.00     0.017 C 
BRANCH  28  29
HETATM   29  C15 UNL     1      20.895  35.572  20.511  1.00  0.00     0.067 C 
BRANCH  29  30
HETATM   30  C16 UNL     1      19.941  35.388  19.337  1.00  0.00     0.069 A 
HETATM   31  N7  UNL     1      19.725  34.293  18.629  1.00  0.00    -0.296 N 
HETATM   32  N8  UNL     1      18.889  34.309  17.672  1.00  0.00    -0.279 N 
ATOM     33  H7  UNL     1      20.230  33.434  18.850  1.00  0.00     0.187 HD
HETATM   34  C17 UNL     1      18.241  35.446  17.403  1.00  0.00     0.167 A 
ATOM     35  H8  UNL     1      18.715  33.470  17.120  1.00  0.00     0.189 HD
HETATM   36  N9  UNL     1      17.346  35.681  16.472  1.00  0.00    -0.306 N 
HETATM   37  S2  UNL     1      18.888  36.499  18.590  1.00  0.00    -0.038 SA
HETATM   38  C18 UNL     1      17.004  34.600  15.627  1.00  0.00     0.227 C 
ATOM     39  H9  UNL     1      16.917  36.600  16.363  1.00  0.00     0.171 HD
HETATM   40  O2  UNL     1      17.804  34.288  14.719  1.00  0.00    -0.273 OA
BRANCH  38  41
HETATM   41  C19 UNL     1      15.721  33.840  15.803  1.00  0.00     0.078 A 
HETATM   42  C20 UNL     1      15.422  33.314  17.175  1.00  0.00     0.015 A 
HETATM   43  C21 UNL     1      15.894  32.396  16.079  1.00  0.00     0.015 A 
ENDBRANCH  38  41
ENDBRANCH  29  30
ENDBRANCH  28  29
ENDBRANCH  27  28
ENDBRANCH  26  27
ENDBRANCH   6  26
TORSDOF 12
ENDMDL
MODEL 4
REMARK VINA RESULT: -8.237068125      4.450     10.038
REMARK  12 active torsions:
REMARK  status: ('A' for Active; 'I' for Inactive)
REMARK    1  A    between atoms: C4_6  and  C5_7 
REMARK    2  A    between atoms: C5_7  and  N2_8 
REMARK    3  A    between atoms: N2_8  and  C6_9 
REMARK       I    between atoms: N2_8  and  C10_14 
REMARK    4  A    between atoms: C6_9  and  C7_10 
REMARK    5  A    between atoms: C7_10  and  N3_11 
REMARK       I    between atoms: C10_14  and  N4_16 
REMARK    6  A    between atoms: N4_16  and  C11_18 
REMARK    7  A    between atoms: C12_23  and  S1_24 
REMARK    8  A    between atoms: S1_24  and  C13_25 
REMARK    9  A    between atoms: C13_25  and  C14_26 
REMARK   10  A    between atoms: C14_26  and  C15_27 
REMARK   11  A    between atoms: C15_27  and  C16_28 
REMARK       I    between atoms: N9_34  and  C18_36 
REMARK   12  A    between atoms: C18_36  and  C19_38 
ROOT
HETATM    1  C11 UNL     1      18.234  28.098  11.671  1.00  0.00     0.169 A 
HETATM    2  N5  UNL     1      17.498  27.216  12.350  1.00  0.00    -0.278 N 
ATOM      3  H5  UNL     1      17.358  27.322  13.355  1.00  0.00     0.189 HD
HETATM    4  N6  UNL     1      16.979  26.249  11.725  1.00  0.00    -0.286 N 
ATOM      5  H6  UNL     1      16.416  25.572  12.240  1.00  0.00     0.188 HD
HETATM    6  C12 UNL     1      17.143  26.089  10.432  1.00  0.00     0.130 A 
HETATM    7  S3  UNL     1      18.150  27.477  10.085  1.00  0.00    -0.026 SA
ENDROOT
BRANCH   1   8
HETATM    8  N4  UNL     1      18.849  29.159  12.144  1.00  0.00    -0.287 N 
HETATM    9  C10 UNL     1      19.404  29.059  13.464  1.00  0.00     0.324 C 
HETATM   10  N2  UNL     1      19.394  30.146  14.366  1.00  0.00    -0.327 N 
HETATM   11  O1  UNL     1      19.913  27.967  13.820  1.00  0.00    -0.247 OA
ATOM     12  H4  UNL     1      18.928  30.016  11.596  1.00  0.00     0.172 HD
BRANCH  10  13
HETATM   13  C5  UNL     1      19.962  30.005  15.679  1.00  0.00     0.184 C 
BRANCH  13  14
HETATM   14  C4  UNL     1      21.063  30.945  15.964  1.00  0.00     0.027 A 
HETATM   15  N1  UNL     1      21.345  31.580  17.128  1.00  0.00    -0.367 N 
HETATM   16  C3  UNL     1      22.434  32.349  17.007  1.00  0.00     0.095 A 
ATOM     17  H1  UNL     1      20.798  31.485  17.984  1.00  0.00     0.165 HD
HETATM   18  C2  UNL     1      22.907  32.230  15.711  1.00  0.00    -0.045 A 
HETATM   19  C1  UNL     1      24.095  32.920  15.169  1.00  0.00     0.049 C 
HETATM   20  C22 UNL     1      22.060  31.368  15.087  1.00  0.00     0.034 A 
ENDBRANCH  13  14
ENDBRANCH  10  13
BRANCH  10  21
HETATM   21  C6  UNL     1      18.793  31.389  13.965  1.00  0.00     0.158 C 
BRANCH  21  22
HETATM   22  C7  UNL     1      17.520  31.736  14.661  1.00  0.00     0.291 C 
BRANCH  22  23
HETATM   23  N3  UNL     1      17.624  32.997  15.391  1.00  0.00     0.081 N 
HETATM   24  C8  UNL     1      18.795  33.733  15.026  1.00  0.00     0.309 C 
HETATM   25  C9  UNL     1      17.619  32.729  16.818  1.00  0.00     0.309 C 
ENDBRANCH  22  23
ENDBRANCH  21  22
ENDBRANCH  10  21
ENDBRANCH   1   8
BRANCH   6  26
HETATM   26  S1  UNL     1      16.564  24.866   9.278  1.00  0.00    -0.103 SA
BRANCH  26  27
HETATM   27  C13 UNL     1      16.634  23.231   9.925  1.00  0.00     0.082 C 
BRANCH  27  28
HETATM   28  C14 UNL     1      17.924  22.563  10.154  1.00  0.00     0.017 C 
BRANCH  28  29
HETATM   29  C15 UNL     1      18.581  22.635  11.473  1.00  0.00     0.067 C 
BRANCH  29  30
HETATM   30  C16 UNL     1      19.586  23.777  11.382  1.00  0.00     0.069 A 
HETATM   31  N7  UNL     1      19.879  24.678  12.304  1.00  0.00    -0.296 N 
HETATM   32  N8  UNL     1      20.749  25.572  12.065  1.00  0.00    -0.279 N 
ATOM     33  H7  UNL     1      19.406  24.655  13.208  1.00  0.00     0.187 HD
HETATM   34  C17 UNL     1      21.353  25.580  10.874  1.00  0.00     0.167 A 
ATOM     35  H8  UNL     1      20.982  26.271  12.770  1.00  0.00     0.189 HD
HETATM   36  N9  UNL     1      22.271  26.404  10.423  1.00  0.00    -0.306 N 
HETATM   37  S2  UNL     1      20.614  24.239  10.105  1.00  0.00    -0.038 SA
HETATM   38  C18 UNL     1      22.694  27.430  11.299  1.00  0.00     0.227 C 
ATOM     39  H9  UNL     1      22.661  26.307   9.486  1.00  0.00     0.171 HD
HETATM   40  O2  UNL     1      21.945  28.417  11.453  1.00  0.00    -0.273 OA
BRANCH  38  41
HETATM   41  C19 UNL     1      24.003  27.348  12.030  1.00  0.00     0.078 A 
HETATM   42  C20 UNL     1      25.219  27.018  11.218  1.00  0.00     0.015 A 
HETATM   43  C21 UNL     1      24.580  25.987  12.110  1.00  0.00     0.015 A 
ENDBRANCH  38  41
ENDBRANCH  29  30
ENDBRANCH  28  29
ENDBRANCH  27  28
ENDBRANCH  26  27
ENDBRANCH   6  26
TORSDOF 12
ENDMDL
MODEL 5
REMARK VINA RESULT: -8.138408831      2.007      3.908
REMARK  12 active torsions:
REMARK  status: ('A' for Active; 'I' for Inactive)
REMARK    1  A    between atoms: C4_6  and  C5_7 
REMARK    2  A    between atoms: C5_7  and  N2_8 
REMARK    3  A    between atoms: N2_8  and  C6_9 
REMARK       I    between atoms: N2_8  and  C10_14 
REMARK    4  A    between atoms: C6_9  and  C7_10 
REMARK    5  A    between atoms: C7_10  and  N3_11 
REMARK       I    between atoms: C10_14  and  N4_16 
REMARK    6  A    between atoms: N4_16  and  C11_18 
REMARK    7  A    between atoms: C12_23  and  S1_24 
REMARK    8  A    between atoms: S1_24  and  C13_25 
REMARK    9  A    between atoms: C13_25  and  C14_26 
REMARK   10  A    between atoms: C14_26  and  C15_27 
REMARK   11  A    between atoms: C15_27  and  C16_28 
REMARK       I    between atoms: N9_34  and  C18_36 
REMARK   12  A    between atoms: C18_36  and  C19_38 
ROOT
HETATM    1  C11 UNL     1      22.723  32.000  15.734  1.00  0.00     0.169 A 
HETATM    2  N5  UNL     1      22.013  31.717  16.828  1.00  0.00    -0.278 N 
ATOM      3  H5  UNL     1      21.527  30.824  16.915  1.00  0.00     0.189 HD
HETATM    4  N6  UNL     1      21.954  32.575  17.753  1.00  0.00    -0.286 N 
ATOM      5  H6  UNL     1      21.413  32.364  18.591  1.00  0.00     0.188 HD
HETATM    6  C12 UNL     1      22.570  33.732  17.668  1.00  0.00     0.130 A 
HETATM    7  S3  UNL     1      23.308  33.562  16.090  1.00  0.00    -0.026 SA
ENDROOT
BRANCH   1   8
HETATM    8  N4  UNL     1      22.899  31.240  14.676  1.00  0.00    -0.287 N 
HETATM    9  C10 UNL     1      21.784  31.095  13.782  1.00  0.00     0.324 C 
HETATM   10  N2  UNL     1      21.506  29.878  13.123  1.00  0.00    -0.327 N 
HETATM   11  O1  UNL     1      21.040  32.088  13.587  1.00  0.00    -0.247 OA
ATOM     12  H4  UNL     1      23.789  30.774  14.498  1.00  0.00     0.172 HD
BRANCH  10  13
HETATM   13  C5  UNL     1      20.381  29.775  12.234  1.00  0.00     0.184 C 
BRANCH  13  14
HETATM   14  C4  UNL     1      19.497  28.626  12.511  1.00  0.00     0.027 A 
HETATM   15  N1  UNL     1      18.977  28.234  13.699  1.00  0.00    -0.367 N 
HETATM   16  C3  UNL     1      18.208  27.148  13.555  1.00  0.00     0.095 A 
ATOM     17  H1  UNL     1      19.149  28.705  14.588  1.00  0.00     0.165 HD
HETATM   18  C2  UNL     1      18.208  26.790  12.217  1.00  0.00    -0.045 A 
HETATM   19  C1  UNL     1      17.480  25.642  11.640  1.00  0.00     0.049 C 
HETATM   20  C22 UNL     1      19.000  27.704  11.593  1.00  0.00     0.034 A 
ENDBRANCH  13  14
ENDBRANCH  10  13
BRANCH  10  21
HETATM   21  C6  UNL     1      22.347  28.737  13.364  1.00  0.00     0.158 C 
BRANCH  21  22
HETATM   22  C7  UNL     1      23.010  28.167  12.156  1.00  0.00     0.291 C 
BRANCH  22  23
HETATM   23  N3  UNL     1      23.288  26.740  12.307  1.00  0.00     0.081 N 
HETATM   24  C8  UNL     1      24.597  26.397  11.843  1.00  0.00     0.309 C 
HETATM   25  C9  UNL     1      22.281  25.976  11.593  1.00  0.00     0.309 C 
ENDBRANCH  22  23
ENDBRANCH  21  22
ENDBRANCH  10  21
ENDBRANCH   1   8
BRANCH   6  26
HETATM   26  S1  UNL     1      22.687  35.128  18.764  1.00  0.00    -0.103 SA
BRANCH  26  27
HETATM   27  C13 UNL     1      21.472  36.357  18.434  1.00  0.00     0.082 C 
BRANCH  27  28
HETATM   28  C14 UNL     1      20.339  36.566  19.350  1.00  0.00     0.017 C 
BRANCH  28  29
HETATM   29  C15 UNL     1      18.953  36.517  18.849  1.00  0.00     0.067 C 
BRANCH  29  30
HETATM   30  C16 UNL     1      18.835  35.220  18.057  1.00  0.00     0.069 A 
HETATM   31  N7  UNL     1      18.676  33.994  18.524  1.00  0.00    -0.296 N 
HETATM   32  N8  UNL     1      18.596  33.013  17.719  1.00  0.00    -0.279 N 
ATOM     33  H7  UNL     1      18.617  33.835  19.530  1.00  0.00     0.187 HD
HETATM   34  C17 UNL     1      18.676  33.249  16.408  1.00  0.00     0.167 A 
ATOM     35  H8  UNL     1      18.473  32.064  18.070  1.00  0.00     0.189 HD
HETATM   36  N9  UNL     1      18.618  32.392  15.414  1.00  0.00    -0.306 N 
HETATM   37  S2  UNL     1      18.873  34.950  16.376  1.00  0.00    -0.038 SA
HETATM   38  C18 UNL     1      18.447  31.031  15.753  1.00  0.00     0.227 C 
ATOM     39  H9  UNL     1      18.692  32.696  14.443  1.00  0.00     0.171 HD
HETATM   40  O2  UNL     1      19.439  30.402  16.179  1.00  0.00    -0.273 OA
BRANCH  38  41
HETATM   41  C19 UNL     1      17.118  30.347  15.610  1.00  0.00     0.078 A 
HETATM   42  C20 UNL     1      16.404  30.508  14.301  1.00  0.00     0.015 A 
HETATM   43  C21 UNL     1      15.959  31.265  15.524  1.00  0.00     0.015 A 
ENDBRANCH  38  41
ENDBRANCH  29  30
ENDBRANCH  28  29
ENDBRANCH  27  28
ENDBRANCH  26  27
ENDBRANCH   6  26
TORSDOF 12
ENDMDL
