MODEL 1
REMARK VINA RESULT: -8.772298843      0.000      0.000
REMARK  21 active torsions:
REMARK  status: ('A' for Active; 'I' for Inactive)
REMARK    1  A    between atoms: C3_6  and  O1_7 
REMARK    2  A    between atoms: O1_7  and  C4_8 
REMARK    3  A    between atoms: C5_10  and  C6_11 
REMARK    4  A    between atoms: C6_11  and  O3_12 
REMARK    5  A    between atoms: C7_14  and  O4_15 
REMARK    6  A    between atoms: O4_15  and  C8_16 
REMARK    7  A    between atoms: C9_18  and  S1_19 
REMARK    8  A    between atoms: S1_19  and  C10_20 
REMARK    9  A    between atoms: C11_21  and  N2_22 
REMARK   10  A    between atoms: C12_26  and  O5_27 
REMARK   11  A    between atoms: C13_29  and  O6_30 
REMARK   12  A    between atoms: C14_32  and  O7_33 
REMARK   13  A    between atoms: O7_33  and  C15_34 
REMARK   14  A    between atoms: C16_36  and  C17_37 
REMARK   15  A    between atoms: C17_37  and  O9_38 
REMARK   16  A    between atoms: C18_40  and  O10_41 
REMARK   17  A    between atoms: C19_43  and  N3_44 
REMARK   18  A    between atoms: C20_48  and  N4_49 
REMARK   19  A    between atoms: C21_53  and  O11_54 
REMARK   20  A    between atoms: C22_56  and  N5_57 
REMARK   21  A    between atoms: C23_61  and  O12_62 
ROOT
HETATM    1  C10 UNL     1       9.860   2.795  -0.638  1.00  0.00     0.114 C 
HETATM    2  C11 UNL     1      10.841   3.482   0.243  1.00  0.00     0.230 C 
HETATM    3  C12 UNL     1      11.018   4.924  -0.187  1.00  0.00     0.181 C 
HETATM    4  C13 UNL     1      11.234   5.166  -1.620  1.00  0.00     0.180 C 
HETATM    5  C14 UNL     1      10.636   4.187  -2.572  1.00  0.00     0.187 C 
HETATM    6  C20 UNL     1      10.504   2.794  -2.046  1.00  0.00     0.230 C 
ENDROOT
BRANCH   1   7
HETATM    7  S1  UNL     1       9.403   1.204  -0.133  1.00  0.00    -0.150 SA
BRANCH   7   8
HETATM    8  C9  UNL     1      10.214   0.284   1.117  1.00  0.00     0.113 C 
HETATM    9  C7  UNL     1       9.944   0.737   2.540  1.00  0.00     0.172 C 
HETATM   10  C5  UNL     1      11.168   1.202   3.268  1.00  0.00     0.178 C 
HETATM   11  O2  UNL     1      12.346   0.646   2.784  1.00  0.00    -0.349 OA
HETATM   12  C4  UNL     1      12.185  -0.602   2.235  1.00  0.00     0.293 C 
HETATM   13  C21 UNL     1      11.528  -0.336   0.864  1.00  0.00     0.189 C 
BRANCH   9  14
HETATM   14  O4  UNL     1       9.045   1.801   2.565  1.00  0.00    -0.353 OA
BRANCH  14  15
HETATM   15  C8  UNL     1       8.167   1.718   3.643  1.00  0.00     0.392 C 
HETATM   16  F1  UNL     1       8.364   2.702   4.562  1.00  0.00    -0.227 F 
ENDBRANCH  14  15
ENDBRANCH   9  14
BRANCH  10  17
HETATM   17  C6  UNL     1      11.375   2.701   3.241  1.00  0.00     0.198 C 
BRANCH  17  18
HETATM   18  O3  UNL     1      12.681   3.107   3.295  1.00  0.00    -0.398 OA
ATOM     19  H3  UNL     1      12.807   4.035   3.458  1.00  0.00     0.209 HD
ENDBRANCH  17  18
ENDBRANCH  10  17
BRANCH  12  20
HETATM   20  O1  UNL     1      11.461  -1.486   2.991  1.00  0.00    -0.324 OA
BRANCH  20  21
HETATM   21  C3  UNL     1      11.759  -2.809   2.766  1.00  0.00     0.357 C 
HETATM   22  N1  UNL     1      10.831  -3.724   3.402  1.00  0.00    -0.040 N 
HETATM   23  C2  UNL     1      11.552  -4.989   3.459  1.00  0.00     0.215 C 
ATOM     24  H12 UNL     1       9.922  -3.783   2.943  1.00  0.00     0.280 HD
ATOM     25  H11 UNL     1      10.481  -3.403   4.304  1.00  0.00     0.280 HD
HETATM   26  C1  UNL     1      11.562  -5.620   2.089  1.00  0.00     0.043 C 
HETATM   27  C23 UNL     1      12.983  -4.614   3.815  1.00  0.00     0.183 C 
HETATM   28  C22 UNL     1      13.054  -3.145   3.496  1.00  0.00     0.270 C 
BRANCH  27  29
HETATM   29  O12 UNL     1      13.149  -4.798   5.198  1.00  0.00    -0.391 OA
ATOM     30  H12 UNL     1      13.676  -5.577   5.329  1.00  0.00     0.210 HD
ENDBRANCH  27  29
BRANCH  28  31
HETATM   31  N5  UNL     1      13.005  -2.380   4.752  1.00  0.00    -0.068 N 
ATOM     32  H53 UNL     1      12.145  -1.846   4.874  1.00  0.00     0.275 HD
ATOM     33  H52 UNL     1      12.905  -2.962   5.584  1.00  0.00     0.275 HD
ATOM     34  H51 UNL     1      13.848  -1.805   4.753  1.00  0.00     0.275 HD
ENDBRANCH  28  31
ENDBRANCH  20  21
ENDBRANCH  12  20
BRANCH  13  35
HETATM   35  O11 UNL     1      12.458   0.302   0.124  1.00  0.00    -0.389 OA
ATOM     36  H11 UNL     1      12.142   0.276  -0.771  1.00  0.00     0.210 HD
ENDBRANCH  13  35
ENDBRANCH   7   8
ENDBRANCH   1   7
BRANCH   2  37
HETATM   37  N2  UNL     1      12.112   2.805   0.374  1.00  0.00    -0.071 N 
ATOM     38  H23 UNL     1      12.067   2.106   1.115  1.00  0.00     0.274 HD
ATOM     39  H22 UNL     1      12.275   2.200  -0.431  1.00  0.00     0.274 HD
ATOM     40  H21 UNL     1      12.911   3.424   0.519  1.00  0.00     0.274 HD
ENDBRANCH   2  37
BRANCH   6  41
HETATM   41  N4  UNL     1      11.739   2.038  -2.061  1.00  0.00    -0.071 N 
ATOM     42  H43 UNL     1      12.434   2.445  -1.435  1.00  0.00     0.274 HD
ATOM     43  H42 UNL     1      11.630   1.133  -1.605  1.00  0.00     0.274 HD
ATOM     44  H41 UNL     1      12.104   1.938  -3.008  1.00  0.00     0.274 HD
ENDBRANCH   6  41
BRANCH   3  45
HETATM   45  O5  UNL     1      12.052   5.430   0.604  1.00  0.00    -0.391 OA
ATOM     46  H5  UNL     1      11.818   6.332   0.787  1.00  0.00     0.210 HD
ENDBRANCH   3  45
BRANCH   5  47
HETATM   47  O7  UNL     1      11.322   4.123  -3.785  1.00  0.00    -0.349 OA
BRANCH  47  48
HETATM   48  C15 UNL     1      10.513   4.280  -4.882  1.00  0.00     0.294 C 
HETATM   49  O8  UNL     1      10.806   5.424  -5.623  1.00  0.00    -0.349 OA
HETATM   50  C16 UNL     1      11.875   5.080  -6.412  1.00  0.00     0.179 C 
HETATM   51  C18 UNL     1      11.520   3.728  -6.953  1.00  0.00     0.184 C 
HETATM   52  C19 UNL     1      10.569   3.202  -5.901  1.00  0.00     0.269 C 
BRANCH  50  53
HETATM   53  C17 UNL     1      12.124   6.094  -7.503  1.00  0.00     0.198 C 
BRANCH  53  54
HETATM   54  O9  UNL     1      12.561   5.519  -8.683  1.00  0.00    -0.398 OA
ATOM     55  H9  UNL     1      13.482   5.285  -8.662  1.00  0.00     0.209 HD
ENDBRANCH  53  54
ENDBRANCH  50  53
BRANCH  51  56
HETATM   56  O10 UNL     1      12.660   2.930  -6.918  1.00  0.00    -0.391 OA
ATOM     57  H10 UNL     1      12.789   2.556  -7.781  1.00  0.00     0.210 HD
ENDBRANCH  51  56
BRANCH  52  58
HETATM   58  N3  UNL     1      10.913   1.905  -5.427  1.00  0.00    -0.068 N 
ATOM     59  H33 UNL     1      10.741   1.847  -4.423  1.00  0.00     0.275 HD
ATOM     60  H32 UNL     1      10.238   1.222  -5.770  1.00  0.00     0.275 HD
ATOM     61  H31 UNL     1      11.860   1.586  -5.633  1.00  0.00     0.275 HD
ENDBRANCH  52  58
ENDBRANCH  47  48
ENDBRANCH   5  47
BRANCH   4  62
HETATM   62  O6  UNL     1      12.620   5.191  -1.862  1.00  0.00    -0.390 OA
ATOM     63  H6  UNL     1      13.008   4.420  -1.466  1.00  0.00     0.210 HD
ENDBRANCH   4  62
TORSDOF 21
ENDMDL
MODEL 2
REMARK VINA RESULT: -8.755958040      2.887     10.339
REMARK  21 active torsions:
REMARK  status: ('A' for Active; 'I' for Inactive)
REMARK    1  A    between atoms: C3_6  and  O1_7 
REMARK    2  A    between atoms: O1_7  and  C4_8 
REMARK    3  A    between atoms: C5_10  and  C6_11 
REMARK    4  A    between atoms: C6_11  and  O3_12 
REMARK    5  A    between atoms: C7_14  and  O4_15 
REMARK    6  A    between atoms: O4_15  and  C8_16 
REMARK    7  A    between atoms: C9_18  and  S1_19 
REMARK    8  A    between atoms: S1_19  and  C10_20 
REMARK    9  A    between atoms: C11_21  and  N2_22 
REMARK   10  A    between atoms: C12_26  and  O5_27 
REMARK   11  A    between atoms: C13_29  and  O6_30 
REMARK   12  A    between atoms: C14_32  and  O7_33 
REMARK   13  A    between atoms: O7_33  and  C15_34 
REMARK   14  A    between atoms: C16_36  and  C17_37 
REMARK   15  A    between atoms: C17_37  and  O9_38 
REMARK   16  A    between atoms: C18_40  and  O10_41 
REMARK   17  A    between atoms: C19_43  and  N3_44 
REMARK   18  A    between atoms: C20_48  and  N4_49 
REMARK   19  A    between atoms: C21_53  and  O11_54 
REMARK   20  A    between atoms: C22_56  and  N5_57 
REMARK   21  A    between atoms: C23_61  and  O12_62 
ROOT
HETATM    1  C10 UNL     1       9.955   1.721  -1.665  1.00  0.00     0.114 C 
HETATM    2  C11 UNL     1      11.379   2.111  -1.843  1.00  0.00     0.230 C 
HETATM    3  C12 UNL     1      12.269   1.283  -0.939  1.00  0.00     0.181 C 
HETATM    4  C13 UNL     1      11.857   1.161   0.466  1.00  0.00     0.180 C 
HETATM    5  C14 UNL     1      10.396   1.245   0.755  1.00  0.00     0.187 C 
HETATM    6  C20 UNL     1       9.611   2.085  -0.201  1.00  0.00     0.230 C 
ENDROOT
BRANCH   1   7
HETATM    7  S1  UNL     1       8.849   2.437  -2.788  1.00  0.00    -0.150 SA
BRANCH   7   8
HETATM    8  C9  UNL     1       9.244   3.756  -3.872  1.00  0.00     0.113 C 
HETATM    9  C7  UNL     1       8.783   5.130  -3.423  1.00  0.00     0.172 C 
HETATM   10  C5  UNL     1       7.804   5.773  -4.358  1.00  0.00     0.178 C 
HETATM   11  O2  UNL     1       7.907   5.319  -5.666  1.00  0.00    -0.349 OA
HETATM   12  C4  UNL     1       9.170   4.909  -6.013  1.00  0.00     0.293 C 
HETATM   13  C21 UNL     1       9.328   3.534  -5.328  1.00  0.00     0.189 C 
BRANCH   9  14
HETATM   14  O4  UNL     1       8.155   5.067  -2.181  1.00  0.00    -0.353 OA
BRANCH  14  15
HETATM   15  C8  UNL     1       8.481   6.155  -1.375  1.00  0.00     0.392 C 
HETATM   16  F1  UNL     1       9.792   6.508  -1.467  1.00  0.00    -0.227 F 
ENDBRANCH  14  15
ENDBRANCH   9  14
BRANCH  10  17
HETATM   17  C6  UNL     1       6.355   5.585  -3.966  1.00  0.00     0.198 C 
BRANCH  17  18
HETATM   18  O3  UNL     1       5.891   4.301  -4.059  1.00  0.00    -0.398 OA
ATOM     19  H3  UNL     1       5.576   3.926  -3.245  1.00  0.00     0.209 HD
ENDBRANCH  17  18
ENDBRANCH  10  17
BRANCH  12  20
HETATM   20  O1  UNL     1      10.180   5.771  -5.678  1.00  0.00    -0.324 OA
BRANCH  20  21
HETATM   21  C3  UNL     1      10.261   6.893  -6.469  1.00  0.00     0.357 C 
HETATM   22  N1  UNL     1       9.375   6.853  -7.616  1.00  0.00    -0.040 N 
HETATM   23  C2  UNL     1       9.932   7.836  -8.537  1.00  0.00     0.215 C 
ATOM     24  H12 UNL     1       8.392   7.004  -7.390  1.00  0.00     0.280 HD
ATOM     25  H11 UNL     1       9.256   5.924  -8.019  1.00  0.00     0.280 HD
HETATM   26  C1  UNL     1       9.589   9.224  -8.055  1.00  0.00     0.043 C 
HETATM   27  C23 UNL     1      11.441   7.663  -8.437  1.00  0.00     0.183 C 
HETATM   28  C22 UNL     1      11.626   6.908  -7.147  1.00  0.00     0.270 C 
BRANCH  27  29
HETATM   29  O12 UNL     1      11.858   6.859  -9.510  1.00  0.00    -0.391 OA
ATOM     30  H12 UNL     1      11.801   7.376 -10.304  1.00  0.00     0.210 HD
ENDBRANCH  27  29
BRANCH  28  31
HETATM   31  N5  UNL     1      11.925   5.501  -7.456  1.00  0.00    -0.068 N 
ATOM     32  H53 UNL     1      11.783   4.869  -6.668  1.00  0.00     0.275 HD
ATOM     33  H52 UNL     1      11.249   5.065  -8.084  1.00  0.00     0.275 HD
ATOM     34  H51 UNL     1      12.880   5.499  -7.816  1.00  0.00     0.275 HD
ENDBRANCH  28  31
ENDBRANCH  20  21
ENDBRANCH  12  20
BRANCH  13  35
HETATM   35  O11 UNL     1       8.461   2.708  -5.948  1.00  0.00    -0.389 OA
ATOM     36  H11 UNL     1       8.956   1.928  -6.169  1.00  0.00     0.210 HD
ENDBRANCH  13  35
ENDBRANCH   7   8
ENDBRANCH   1   7
BRANCH   2  37
HETATM   37  N2  UNL     1      11.641   3.525  -1.698  1.00  0.00    -0.071 N 
ATOM     38  H23 UNL     1      11.407   4.019  -2.560  1.00  0.00     0.274 HD
ATOM     39  H22 UNL     1      10.962   3.947  -1.063  1.00  0.00     0.274 HD
ATOM     40  H21 UNL     1      12.591   3.755  -1.405  1.00  0.00     0.274 HD
ENDBRANCH   2  37
BRANCH   6  41
HETATM   41  N4  UNL     1       9.728   3.509   0.032  1.00  0.00    -0.071 N 
ATOM     42  H43 UNL     1       9.510   3.749   0.999  1.00  0.00     0.274 HD
ATOM     43  H42 UNL     1      10.701   3.813   0.010  1.00  0.00     0.274 HD
ATOM     44  H41 UNL     1       9.155   4.042  -0.623  1.00  0.00     0.274 HD
ENDBRANCH   6  41
BRANCH   3  45
HETATM   45  O5  UNL     1      13.551   1.820  -1.076  1.00  0.00    -0.391 OA
ATOM     46  H5  UNL     1      14.112   1.290  -0.523  1.00  0.00     0.210 HD
ENDBRANCH   3  45
BRANCH   5  47
HETATM   47  O7  UNL     1      10.125   1.698   2.046  1.00  0.00    -0.349 OA
BRANCH  47  48
HETATM   48  C15 UNL     1       9.371   0.824   2.787  1.00  0.00     0.294 C 
HETATM   49  O8  UNL     1       9.451  -0.493   2.336  1.00  0.00    -0.349 OA
HETATM   50  C16 UNL     1      10.617  -0.986   2.869  1.00  0.00     0.179 C 
HETATM   51  C18 UNL     1      10.599  -0.526   4.296  1.00  0.00     0.184 C 
HETATM   52  C19 UNL     1       9.723   0.705   4.223  1.00  0.00     0.269 C 
BRANCH  50  53
HETATM   53  C17 UNL     1      10.706  -2.488   2.745  1.00  0.00     0.198 C 
BRANCH  53  54
HETATM   54  O9  UNL     1       9.583  -3.136   3.229  1.00  0.00    -0.398 OA
ATOM     55  H9  UNL     1       9.362  -3.914   2.731  1.00  0.00     0.209 HD
ENDBRANCH  53  54
ENDBRANCH  50  53
BRANCH  51  56
HETATM   56  O10 UNL     1      11.882  -0.103   4.633  1.00  0.00    -0.391 OA
ATOM     57  H10 UNL     1      11.838   0.814   4.879  1.00  0.00     0.210 HD
ENDBRANCH  51  56
BRANCH  52  58
HETATM   58  N3  UNL     1      10.312   1.853   4.825  1.00  0.00    -0.068 N 
ATOM     59  H33 UNL     1       9.745   2.676   4.623  1.00  0.00     0.275 HD
ATOM     60  H32 UNL     1      10.209   1.802   5.839  1.00  0.00     0.275 HD
ATOM     61  H31 UNL     1      11.286   2.037   4.586  1.00  0.00     0.275 HD
ENDBRANCH  52  58
ENDBRANCH  47  48
ENDBRANCH   5  47
BRANCH   4  62
HETATM   62  O6  UNL     1      12.487   2.181   1.204  1.00  0.00    -0.390 OA
ATOM     63  H6  UNL     1      12.767   1.819   2.037  1.00  0.00     0.210 HD
ENDBRANCH   4  62
TORSDOF 21
ENDMDL
MODEL 3
REMARK VINA RESULT: -8.638596627      2.947      3.711
REMARK  21 active torsions:
REMARK  status: ('A' for Active; 'I' for Inactive)
REMARK    1  A    between atoms: C3_6  and  O1_7 
REMARK    2  A    between atoms: O1_7  and  C4_8 
REMARK    3  A    between atoms: C5_10  and  C6_11 
REMARK    4  A    between atoms: C6_11  and  O3_12 
REMARK    5  A    between atoms: C7_14  and  O4_15 
REMARK    6  A    between atoms: O4_15  and  C8_16 
REMARK    7  A    between atoms: C9_18  and  S1_19 
REMARK    8  A    between atoms: S1_19  and  C10_20 
REMARK    9  A    between atoms: C11_21  and  N2_22 
REMARK   10  A    between atoms: C12_26  and  O5_27 
REMARK   11  A    between atoms: C13_29  and  O6_30 
REMARK   12  A    between atoms: C14_32  and  O7_33 
REMARK   13  A    between atoms: O7_33  and  C15_34 
REMARK   14  A    between atoms: C16_36  and  C17_37 
REMARK   15  A    between atoms: C17_37  and  O9_38 
REMARK   16  A    between atoms: C18_40  and  O10_41 
REMARK   17  A    between atoms: C19_43  and  N3_44 
REMARK   18  A    between atoms: C20_48  and  N4_49 
REMARK   19  A    between atoms: C21_53  and  O11_54 
REMARK   20  A    between atoms: C22_56  and  N5_57 
REMARK   21  A    between atoms: C23_61  and  O12_62 
ROOT
HETATM    1  C10 UNL     1       9.623   3.179  -2.132  1.00  0.00     0.114 C 
HETATM    2  C11 UNL     1      10.088   2.121  -3.066  1.00  0.00     0.230 C 
HETATM    3  C12 UNL     1      10.434   2.721  -4.413  1.00  0.00     0.181 C 
HETATM    4  C13 UNL     1       9.452   3.643  -5.000  1.00  0.00     0.180 C 
HETATM    5  C14 UNL     1       8.594   4.413  -4.054  1.00  0.00     0.187 C 
HETATM    6  C20 UNL     1       8.317   3.730  -2.754  1.00  0.00     0.230 C 
ENDROOT
BRANCH   1   7
HETATM    7  S1  UNL     1       9.395   2.668  -0.494  1.00  0.00    -0.150 SA
BRANCH   7   8
HETATM    8  C9  UNL     1      10.108   1.232   0.211  1.00  0.00     0.113 C 
HETATM    9  C7  UNL     1       9.986   1.115   1.719  1.00  0.00     0.172 C 
HETATM   10  C5  UNL     1      11.304   1.093   2.432  1.00  0.00     0.178 C 
HETATM   11  O2  UNL     1      12.350   0.627   1.645  1.00  0.00    -0.349 OA
HETATM   12  C4  UNL     1      11.964  -0.270   0.681  1.00  0.00     0.293 C 
HETATM   13  C21 UNL     1      11.291   0.600  -0.403  1.00  0.00     0.189 C 
BRANCH   9  14
HETATM   14  O4  UNL     1       9.273   2.188   2.249  1.00  0.00    -0.353 OA
BRANCH  14  15
HETATM   15  C8  UNL     1       8.408   1.791   3.266  1.00  0.00     0.392 C 
HETATM   16  F1  UNL     1       8.735   2.322   4.475  1.00  0.00    -0.227 F 
ENDBRANCH  14  15
ENDBRANCH   9  14
BRANCH  10  17
HETATM   17  C6  UNL     1      11.748   2.439   2.960  1.00  0.00     0.198 C 
BRANCH  17  18
HETATM   18  O3  UNL     1      12.723   3.057   2.226  1.00  0.00    -0.398 OA
ATOM     19  H3  UNL     1      12.654   4.003   2.180  1.00  0.00     0.209 HD
ENDBRANCH  17  18
ENDBRANCH  10  17
BRANCH  12  20
HETATM   20  O1  UNL     1      11.146  -1.280   1.114  1.00  0.00    -0.324 OA
BRANCH  20  21
HETATM   21  C3  UNL     1      11.778  -2.486   1.306  1.00  0.00     0.357 C 
HETATM   22  N1  UNL     1      11.013  -3.619   0.824  1.00  0.00    -0.040 N 
HETATM   23  C2  UNL     1      11.584  -4.764   1.521  1.00  0.00     0.215 C 
ATOM     24  H12 UNL     1      11.002  -3.713  -0.192  1.00  0.00     0.280 HD
ATOM     25  H11 UNL     1      10.005  -3.522   0.939  1.00  0.00     0.280 HD
HETATM   26  C1  UNL     1      12.909  -5.122   0.894  1.00  0.00     0.043 C 
HETATM   27  C23 UNL     1      11.853  -4.273   2.937  1.00  0.00     0.183 C 
HETATM   28  C22 UNL     1      11.824  -2.773   2.802  1.00  0.00     0.270 C 
BRANCH  27  29
HETATM   29  O12 UNL     1      10.784  -4.686   3.750  1.00  0.00    -0.391 OA
ATOM     30  H12 UNL     1      11.138  -4.937   4.594  1.00  0.00     0.210 HD
ENDBRANCH  27  29
BRANCH  28  31
HETATM   31  N5  UNL     1      10.549  -2.269   3.338  1.00  0.00    -0.068 N 
ATOM     32  H53 UNL     1       9.785  -2.943   3.281  1.00  0.00     0.275 HD
ATOM     33  H52 UNL     1      10.543  -2.166   4.353  1.00  0.00     0.275 HD
ATOM     34  H51 UNL     1      10.368  -1.400   2.835  1.00  0.00     0.275 HD
ENDBRANCH  28  31
ENDBRANCH  20  21
ENDBRANCH  12  20
BRANCH  13  35
HETATM   35  O11 UNL     1      12.273   1.353  -0.938  1.00  0.00    -0.389 OA
ATOM     36  H11 UNL     1      13.083   0.888  -0.765  1.00  0.00     0.210 HD
ENDBRANCH  13  35
ENDBRANCH   7   8
ENDBRANCH   1   7
BRANCH   2  37
HETATM   37  N2  UNL     1       9.190   0.996  -3.200  1.00  0.00    -0.071 N 
ATOM     38  H23 UNL     1       9.617   0.154  -2.812  1.00  0.00     0.274 HD
ATOM     39  H22 UNL     1       8.397   1.098  -2.566  1.00  0.00     0.274 HD
ATOM     40  H21 UNL     1       8.863   0.822  -4.150  1.00  0.00     0.274 HD
ENDBRANCH   2  37
BRANCH   6  41
HETATM   41  N4  UNL     1       7.295   2.707  -2.831  1.00  0.00    -0.071 N 
ATOM     42  H43 UNL     1       7.646   1.862  -3.281  1.00  0.00     0.274 HD
ATOM     43  H42 UNL     1       7.084   2.319  -1.911  1.00  0.00     0.274 HD
ATOM     44  H41 UNL     1       6.454   3.054  -3.292  1.00  0.00     0.274 HD
ENDBRANCH   6  41
BRANCH   3  45
HETATM   45  O5  UNL     1      10.718   1.638  -5.248  1.00  0.00    -0.391 OA
ATOM     46  H5  UNL     1      11.568   1.317  -4.973  1.00  0.00     0.210 HD
ENDBRANCH   3  45
BRANCH   5  47
HETATM   47  O7  UNL     1       7.370   4.783  -4.613  1.00  0.00    -0.349 OA
BRANCH  47  48
HETATM   48  C15 UNL     1       7.158   6.138  -4.621  1.00  0.00     0.294 C 
HETATM   49  O8  UNL     1       7.840   6.797  -5.643  1.00  0.00    -0.349 OA
HETATM   50  C16 UNL     1       7.062   6.629  -6.762  1.00  0.00     0.179 C 
HETATM   51  C18 UNL     1       5.666   6.907  -6.291  1.00  0.00     0.184 C 
HETATM   52  C19 UNL     1       5.757   6.585  -4.816  1.00  0.00     0.269 C 
BRANCH  50  53
HETATM   53  C17 UNL     1       7.486   7.541  -7.889  1.00  0.00     0.198 C 
BRANCH  53  54
HETATM   54  O9  UNL     1       7.858   6.851  -9.030  1.00  0.00    -0.398 OA
ATOM     55  H9  UNL     1       7.487   5.978  -9.071  1.00  0.00     0.209 HD
ENDBRANCH  53  54
ENDBRANCH  50  53
BRANCH  51  56
HETATM   56  O10 UNL     1       4.816   5.969  -6.870  1.00  0.00    -0.391 OA
ATOM     57  H10 UNL     1       5.259   5.129  -6.876  1.00  0.00     0.210 HD
ENDBRANCH  51  56
BRANCH  52  58
HETATM   58  N3  UNL     1       4.743   5.690  -4.372  1.00  0.00    -0.068 N 
ATOM     59  H33 UNL     1       4.762   4.840  -4.935  1.00  0.00     0.275 HD
ATOM     60  H32 UNL     1       4.993   5.311  -3.458  1.00  0.00     0.275 HD
ATOM     61  H31 UNL     1       3.794   6.062  -4.342  1.00  0.00     0.275 HD
ENDBRANCH  52  58
ENDBRANCH  47  48
ENDBRANCH   5  47
BRANCH   4  62
HETATM   62  O6  UNL     1       8.593   2.904  -5.836  1.00  0.00    -0.390 OA
ATOM     63  H6  UNL     1       7.989   3.507  -6.254  1.00  0.00     0.210 HD
ENDBRANCH   4  62
TORSDOF 21
ENDMDL
MODEL 4
REMARK VINA RESULT: -8.601785162      3.065      3.898
REMARK  21 active torsions:
REMARK  status: ('A' for Active; 'I' for Inactive)
REMARK    1  A    between atoms: C3_6  and  O1_7 
REMARK    2  A    between atoms: O1_7  and  C4_8 
REMARK    3  A    between atoms: C5_10  and  C6_11 
REMARK    4  A    between atoms: C6_11  and  O3_12 
REMARK    5  A    between atoms: C7_14  and  O4_15 
REMARK    6  A    between atoms: O4_15  and  C8_16 
REMARK    7  A    between atoms: C9_18  and  S1_19 
REMARK    8  A    between atoms: S1_19  and  C10_20 
REMARK    9  A    between atoms: C11_21  and  N2_22 
REMARK   10  A    between atoms: C12_26  and  O5_27 
REMARK   11  A    between atoms: C13_29  and  O6_30 
REMARK   12  A    between atoms: C14_32  and  O7_33 
REMARK   13  A    between atoms: O7_33  and  C15_34 
REMARK   14  A    between atoms: C16_36  and  C17_37 
REMARK   15  A    between atoms: C17_37  and  O9_38 
REMARK   16  A    between atoms: C18_40  and  O10_41 
REMARK   17  A    between atoms: C19_43  and  N3_44 
REMARK   18  A    between atoms: C20_48  and  N4_49 
REMARK   19  A    between atoms: C21_53  and  O11_54 
REMARK   20  A    between atoms: C22_56  and  N5_57 
REMARK   21  A    between atoms: C23_61  and  O12_62 
ROOT
HETATM    1  C10 UNL     1       9.809   3.163  -2.199  1.00  0.00     0.114 C 
HETATM    2  C11 UNL     1      10.240   2.100  -3.143  1.00  0.00     0.230 C 
HETATM    3  C12 UNL     1      10.520   2.690  -4.510  1.00  0.00     0.181 C 
HETATM    4  C13 UNL     1       9.506   3.600  -5.060  1.00  0.00     0.180 C 
HETATM    5  C14 UNL     1       8.687   4.373  -4.083  1.00  0.00     0.187 C 
HETATM    6  C20 UNL     1       8.473   3.700  -2.766  1.00  0.00     0.230 C 
ENDROOT
BRANCH   1   7
HETATM    7  S1  UNL     1       9.659   2.666  -0.547  1.00  0.00    -0.150 SA
BRANCH   7   8
HETATM    8  C9  UNL     1      10.289   1.165   0.102  1.00  0.00     0.113 C 
HETATM    9  C7  UNL     1      10.080   0.961   1.592  1.00  0.00     0.172 C 
HETATM   10  C5  UNL     1      11.355   0.850   2.370  1.00  0.00     0.178 C 
HETATM   11  O2  UNL     1      12.429   0.398   1.613  1.00  0.00    -0.349 OA
HETATM   12  C4  UNL     1      12.069  -0.424   0.575  1.00  0.00     0.293 C 
HETATM   13  C21 UNL     1      11.483   0.532  -0.486  1.00  0.00     0.189 C 
BRANCH   9  14
HETATM   14  O4  UNL     1       9.372   2.023   2.149  1.00  0.00    -0.353 OA
BRANCH  14  15
HETATM   15  C8  UNL     1       8.443   1.595   3.094  1.00  0.00     0.392 C 
HETATM   16  F1  UNL     1       8.751   1.995   4.358  1.00  0.00    -0.227 F 
ENDBRANCH  14  15
ENDBRANCH   9  14
BRANCH  10  17
HETATM   17  C6  UNL     1      11.811   2.146   3.005  1.00  0.00     0.198 C 
BRANCH  17  18
HETATM   18  O3  UNL     1      12.737   2.850   2.285  1.00  0.00    -0.398 OA
ATOM     19  H3  UNL     1      13.328   3.385   2.802  1.00  0.00     0.209 HD
ENDBRANCH  17  18
ENDBRANCH  10  17
BRANCH  12  20
HETATM   20  O1  UNL     1      11.197  -1.430   0.900  1.00  0.00    -0.324 OA
BRANCH  20  21
HETATM   21  C3  UNL     1      11.749  -2.450   1.639  1.00  0.00     0.357 C 
HETATM   22  N1  UNL     1      13.187  -2.560   1.483  1.00  0.00    -0.040 N 
HETATM   23  C2  UNL     1      13.495  -3.915   1.922  1.00  0.00     0.215 C 
ATOM     24  H12 UNL     1      13.716  -1.835   1.967  1.00  0.00     0.280 HD
ATOM     25  H11 UNL     1      13.523  -2.339   0.546  1.00  0.00     0.280 HD
HETATM   26  C1  UNL     1      13.442  -3.976   3.429  1.00  0.00     0.043 C 
HETATM   27  C23 UNL     1      12.364  -4.776   1.377  1.00  0.00     0.183 C 
HETATM   28  C22 UNL     1      11.284  -3.778   1.055  1.00  0.00     0.270 C 
BRANCH  27  29
HETATM   29  O12 UNL     1      12.811  -5.377   0.188  1.00  0.00    -0.391 OA
ATOM     30  H12 UNL     1      13.231  -6.198   0.415  1.00  0.00     0.210 HD
ENDBRANCH  27  29
BRANCH  28  31
HETATM   31  N5  UNL     1      11.243  -3.572  -0.402  1.00  0.00    -0.068 N 
ATOM     32  H53 UNL     1      10.672  -4.257  -0.897  1.00  0.00     0.275 HD
ATOM     33  H52 UNL     1      10.712  -2.747  -0.685  1.00  0.00     0.275 HD
ATOM     34  H51 UNL     1      12.217  -3.556  -0.702  1.00  0.00     0.275 HD
ENDBRANCH  28  31
ENDBRANCH  20  21
ENDBRANCH  12  20
BRANCH  13  35
HETATM   35  O11 UNL     1      12.516   1.283  -0.920  1.00  0.00    -0.389 OA
ATOM     36  H11 UNL     1      13.301   0.788  -0.718  1.00  0.00     0.210 HD
ENDBRANCH  13  35
ENDBRANCH   7   8
ENDBRANCH   1   7
BRANCH   2  37
HETATM   37  N2  UNL     1       9.344   0.968  -3.227  1.00  0.00    -0.071 N 
ATOM     38  H23 UNL     1       8.731   1.060  -4.037  1.00  0.00     0.274 HD
ATOM     39  H22 UNL     1       9.859   0.127  -3.491  1.00  0.00     0.274 HD
ATOM     40  H21 UNL     1       8.794   0.796  -2.385  1.00  0.00     0.274 HD
ENDBRANCH   2  37
BRANCH   6  41
HETATM   41  N4  UNL     1       7.456   2.670  -2.787  1.00  0.00    -0.071 N 
ATOM     42  H43 UNL     1       6.985   2.628  -3.691  1.00  0.00     0.274 HD
ATOM     43  H42 UNL     1       7.869   1.737  -2.783  1.00  0.00     0.274 HD
ATOM     44  H41 UNL     1       6.790   2.787  -2.024  1.00  0.00     0.274 HD
ENDBRANCH   6  41
BRANCH   3  45
HETATM   45  O5  UNL     1      10.773   1.602  -5.348  1.00  0.00    -0.391 OA
ATOM     46  H5  UNL     1      11.047   1.974  -6.178  1.00  0.00     0.210 HD
ENDBRANCH   3  45
BRANCH   5  47
HETATM   47  O7  UNL     1       7.436   4.730  -4.589  1.00  0.00    -0.349 OA
BRANCH  47  48
HETATM   48  C15 UNL     1       7.209   6.083  -4.586  1.00  0.00     0.294 C 
HETATM   49  O8  UNL     1       7.878   6.756  -5.609  1.00  0.00    -0.349 OA
HETATM   50  C16 UNL     1       7.094   6.588  -6.724  1.00  0.00     0.179 C 
HETATM   51  C18 UNL     1       5.699   6.847  -6.242  1.00  0.00     0.184 C 
HETATM   52  C19 UNL     1       5.802   6.516  -4.770  1.00  0.00     0.269 C 
BRANCH  50  53
HETATM   53  C17 UNL     1       7.501   7.511  -7.847  1.00  0.00     0.198 C 
BRANCH  53  54
HETATM   54  O9  UNL     1       7.892   6.833  -8.988  1.00  0.00    -0.398 OA
ATOM     55  H9  UNL     1       8.464   7.347  -9.546  1.00  0.00     0.209 HD
ENDBRANCH  53  54
ENDBRANCH  50  53
BRANCH  51  56
HETATM   56  O10 UNL     1       4.855   5.904  -6.822  1.00  0.00    -0.391 OA
ATOM     57  H10 UNL     1       4.806   6.081  -7.754  1.00  0.00     0.210 HD
ENDBRANCH  51  56
BRANCH  52  58
HETATM   58  N3  UNL     1       4.801   5.607  -4.325  1.00  0.00    -0.068 N 
ATOM     59  H33 UNL     1       5.035   4.661  -4.628  1.00  0.00     0.275 HD
ATOM     60  H32 UNL     1       4.860   5.496  -3.313  1.00  0.00     0.275 HD
ATOM     61  H31 UNL     1       3.841   5.826  -4.592  1.00  0.00     0.275 HD
ENDBRANCH  52  58
ENDBRANCH  47  48
ENDBRANCH   5  47
BRANCH   4  62
HETATM   62  O6  UNL     1       8.616   2.849  -5.850  1.00  0.00    -0.390 OA
ATOM     63  H6  UNL     1       7.930   3.428  -6.163  1.00  0.00     0.210 HD
ENDBRANCH   4  62
TORSDOF 21
ENDMDL
MODEL 5
REMARK VINA RESULT: -8.535576608      3.823     10.164
REMARK  21 active torsions:
REMARK  status: ('A' for Active; 'I' for Inactive)
REMARK    1  A    between atoms: C3_6  and  O1_7 
REMARK    2  A    between atoms: O1_7  and  C4_8 
REMARK    3  A    between atoms: C5_10  and  C6_11 
REMARK    4  A    between atoms: C6_11  and  O3_12 
REMARK    5  A    between atoms: C7_14  and  O4_15 
REMARK    6  A    between atoms: O4_15  and  C8_16 
REMARK    7  A    between atoms: C9_18  and  S1_19 
REMARK    8  A    between atoms: S1_19  and  C10_20 
REMARK    9  A    between atoms: C11_21  and  N2_22 
REMARK   10  A    between atoms: C12_26  and  O5_27 
REMARK   11  A    between atoms: C13_29  and  O6_30 
REMARK   12  A    between atoms: C14_32  and  O7_33 
REMARK   13  A    between atoms: O7_33  and  C15_34 
REMARK   14  A    between atoms: C16_36  and  C17_37 
REMARK   15  A    between atoms: C17_37  and  O9_38 
REMARK   16  A    between atoms: C18_40  and  O10_41 
REMARK   17  A    between atoms: C19_43  and  N3_44 
REMARK   18  A    between atoms: C20_48  and  N4_49 
REMARK   19  A    between atoms: C21_53  and  O11_54 
REMARK   20  A    between atoms: C22_56  and  N5_57 
REMARK   21  A    between atoms: C23_61  and  O12_62 
ROOT
HETATM    1  C10 UNL     1      10.431   2.121   1.144  1.00  0.00     0.114 C 
HETATM    2  C11 UNL     1      11.496   1.573   2.025  1.00  0.00     0.230 C 
HETATM    3  C12 UNL     1      10.885   0.762   3.150  1.00  0.00     0.181 C 
HETATM    4  C13 UNL     1       9.767   1.377   3.879  1.00  0.00     0.180 C 
HETATM    5  C14 UNL     1       8.916   2.343   3.126  1.00  0.00     0.187 C 
HETATM    6  C20 UNL     1       9.618   3.089   2.037  1.00  0.00     0.230 C 
ENDROOT
BRANCH   1   7
HETATM    7  S1  UNL     1      10.994   2.891  -0.301  1.00  0.00    -0.150 SA
BRANCH   7   8
HETATM    8  C9  UNL     1       9.987   3.825  -1.389  1.00  0.00     0.113 C 
HETATM    9  C7  UNL     1       9.454   3.070  -2.593  1.00  0.00     0.172 C 
HETATM   10  C5  UNL     1       9.920   3.622  -3.906  1.00  0.00     0.178 C 
HETATM   11  O2  UNL     1      10.256   4.969  -3.852  1.00  0.00    -0.349 OA
HETATM   12  C4  UNL     1       9.559   5.678  -2.905  1.00  0.00     0.293 C 
HETATM   13  C21 UNL     1      10.210   5.271  -1.566  1.00  0.00     0.189 C 
BRANCH   9  14
HETATM   14  O4  UNL     1       9.852   1.736  -2.566  1.00  0.00    -0.353 OA
BRANCH  14  15
HETATM   15  C8  UNL     1       8.770   0.868  -2.447  1.00  0.00     0.392 C 
HETATM   16  F1  UNL     1       7.885   1.255  -1.488  1.00  0.00    -0.227 F 
ENDBRANCH  14  15
ENDBRANCH   9  14
BRANCH  10  17
HETATM   17  C6  UNL     1      11.127   2.916  -4.484  1.00  0.00     0.198 C 
BRANCH  17  18
HETATM   18  O3  UNL     1      10.843   1.846  -5.287  1.00  0.00    -0.398 OA
ATOM     19  H3  UNL     1      11.577   1.269  -5.463  1.00  0.00     0.209 HD
ENDBRANCH  17  18
ENDBRANCH  10  17
BRANCH  12  20
HETATM   20  O1  UNL     1       8.204   5.476  -2.902  1.00  0.00    -0.324 OA
BRANCH  20  21
HETATM   21  C3  UNL     1       7.488   6.383  -3.648  1.00  0.00     0.357 C 
HETATM   22  N1  UNL     1       6.477   7.087  -2.883  1.00  0.00    -0.040 N 
HETATM   23  C2  UNL     1       5.557   7.603  -3.888  1.00  0.00     0.215 C 
ATOM     24  H12 UNL     1       6.851   7.800  -2.255  1.00  0.00     0.280 HD
ATOM     25  H11 UNL     1       6.032   6.522  -2.160  1.00  0.00     0.280 HD
HETATM   26  C1  UNL     1       6.177   8.798  -4.567  1.00  0.00     0.043 C 
HETATM   27  C23 UNL     1       5.431   6.490  -4.918  1.00  0.00     0.183 C 
HETATM   28  C22 UNL     1       6.626   5.617  -4.644  1.00  0.00     0.270 C 
BRANCH  27  29
HETATM   29  O12 UNL     1       4.256   5.771  -4.639  1.00  0.00    -0.391 OA
ATOM     30  H12 UNL     1       3.516   6.339  -4.816  1.00  0.00     0.210 HD
ENDBRANCH  27  29
BRANCH  28  31
HETATM   31  N5  UNL     1       6.182   4.409  -3.929  1.00  0.00    -0.068 N 
ATOM     32  H53 UNL     1       6.894   3.681  -3.871  1.00  0.00     0.275 HD
ATOM     33  H52 UNL     1       6.067   4.545  -2.924  1.00  0.00     0.275 HD
ATOM     34  H51 UNL     1       5.329   4.111  -4.403  1.00  0.00     0.275 HD
ENDBRANCH  28  31
ENDBRANCH  20  21
ENDBRANCH  12  20
BRANCH  13  35
HETATM   35  O11 UNL     1      11.461   5.776  -1.593  1.00  0.00    -0.389 OA
ATOM     36  H11 UNL     1      11.602   6.170  -0.741  1.00  0.00     0.210 HD
ENDBRANCH  13  35
ENDBRANCH   7   8
ENDBRANCH   1   7
BRANCH   2  37
HETATM   37  N2  UNL     1      12.431   2.556   2.525  1.00  0.00    -0.071 N 
ATOM     38  H23 UNL     1      12.118   3.496   2.285  1.00  0.00     0.274 HD
ATOM     39  H22 UNL     1      12.380   2.607   3.543  1.00  0.00     0.274 HD
ATOM     40  H21 UNL     1      13.396   2.416   2.226  1.00  0.00     0.274 HD
ENDBRANCH   2  37
BRANCH   6  41
HETATM   41  N4  UNL     1      10.434   4.188   2.505  1.00  0.00    -0.071 N 
ATOM     42  H43 UNL     1      10.636   4.106   3.501  1.00  0.00     0.274 HD
ATOM     43  H42 UNL     1      11.387   4.126   2.146  1.00  0.00     0.274 HD
ATOM     44  H41 UNL     1      10.010   5.089   2.283  1.00  0.00     0.274 HD
ENDBRANCH   6  41
BRANCH   3  45
HETATM   45  O5  UNL     1      11.947   0.418   3.989  1.00  0.00    -0.391 OA
ATOM     46  H5  UNL     1      11.807   0.905   4.793  1.00  0.00     0.210 HD
ENDBRANCH   3  45
BRANCH   5  47
HETATM   47  O7  UNL     1       8.299   3.280   3.956  1.00  0.00    -0.349 OA
BRANCH  47  48
HETATM   48  C15 UNL     1       6.932   3.162   3.996  1.00  0.00     0.294 C 
HETATM   49  O8  UNL     1       6.444   2.826   5.258  1.00  0.00    -0.349 OA
HETATM   50  C16 UNL     1       6.402   4.009   5.955  1.00  0.00     0.179 C 
HETATM   51  C18 UNL     1       5.799   4.987   4.992  1.00  0.00     0.184 C 
HETATM   52  C19 UNL     1       6.155   4.379   3.654  1.00  0.00     0.269 C 
BRANCH  50  53
HETATM   53  C17 UNL     1       5.604   3.885   7.231  1.00  0.00     0.198 C 
BRANCH  53  54
HETATM   54  O9  UNL     1       4.937   5.051   7.565  1.00  0.00    -0.398 OA
ATOM     55  H9  UNL     1       4.676   5.079   8.478  1.00  0.00     0.209 HD
ENDBRANCH  53  54
ENDBRANCH  50  53
BRANCH  51  56
HETATM   56  O10 UNL     1       6.493   6.189   5.100  1.00  0.00    -0.391 OA
ATOM     57  H10 UNL     1       6.294   6.717   4.336  1.00  0.00     0.210 HD
ENDBRANCH  51  56
BRANCH  52  58
HETATM   58  N3  UNL     1       6.783   5.298   2.766  1.00  0.00    -0.068 N 
ATOM     59  H33 UNL     1       6.293   6.192   2.793  1.00  0.00     0.275 HD
ATOM     60  H32 UNL     1       7.691   5.575   3.141  1.00  0.00     0.275 HD
ATOM     61  H31 UNL     1       6.889   4.991   1.799  1.00  0.00     0.275 HD
ENDBRANCH  52  58
ENDBRANCH  47  48
ENDBRANCH   5  47
BRANCH   4  62
HETATM   62  O6  UNL     1      10.286   2.059   4.995  1.00  0.00    -0.390 OA
ATOM     63  H6  UNL     1       9.578   2.538   5.410  1.00  0.00     0.210 HD
ENDBRANCH   4  62
TORSDOF 21
ENDMDL
