MODEL 1
REMARK VINA RESULT: -8.506495582      0.000      0.000
REMARK  6 active torsions:
REMARK  status: ('A' for Active; 'I' for Inactive)
REMARK    1  A    between atoms: C3_4  and  O2_5 
REMARK    2  A    between atoms: O2_5  and  C4_6 
REMARK    3  A    between atoms: C8_12  and  O3_13 
REMARK    4  A    between atoms: C9_15  and  C10_16 
REMARK    5  A    between atoms: N1_17  and  O4_19 
REMARK    6  A    between atoms: O4_19  and  C11_20 
ROOT
HETATM    1  C4  UNL     1     -12.529  24.307 -35.972  1.00  0.00     0.114 A 
HETATM    2  C5  UNL     1     -13.899  24.435 -36.102  1.00  0.00     0.070 A 
HETATM    3 CL1  UNL     1     -14.682  25.646 -35.113  1.00  0.00    -0.081 Cl
HETATM    4  C6  UNL     1     -14.627  23.642 -36.976  1.00  0.00     0.053 A 
HETATM    5  C7  UNL     1     -13.948  22.705 -37.727  1.00  0.00     0.069 A 
HETATM    6 CL2  UNL     1     -14.803  21.659 -38.862  1.00  0.00    -0.081 Cl
HETATM    7  C8  UNL     1     -12.584  22.561 -37.613  1.00  0.00     0.102 A 
HETATM    8  C9  UNL     1     -11.870  23.366 -36.731  1.00  0.00     0.052 A 
ENDROOT
BRANCH   1   9
HETATM    9  O2  UNL     1     -11.820  25.092 -35.108  1.00  0.00    -0.290 OA
BRANCH   9  10
HETATM   10  C3  UNL     1     -11.328  26.338 -35.333  1.00  0.00     0.168 A 
HETATM   11  C2  UNL     1     -11.166  27.329 -34.397  1.00  0.00     0.133 A 
HETATM   12  C1  UNL     1     -10.635  28.427 -35.067  1.00  0.00     0.263 A 
HETATM   13  O1  UNL     1     -10.349  29.530 -34.541  1.00  0.00    -0.267 OA
HETATM   14  N3  UNL     1     -10.491  28.077 -36.364  1.00  0.00    -0.264 N 
HETATM   15  N2  UNL     1     -10.909  26.830 -36.505  1.00  0.00    -0.277 N 
ATOM     16  H3  UNL     1     -10.124  28.672 -37.107  1.00  0.00     0.190 HD
ATOM     17  H2  UNL     1     -10.911  26.314 -37.386  1.00  0.00     0.189 HD
ENDBRANCH   9  10
ENDBRANCH   1   9
BRANCH   8  18
HETATM   18  C10 UNL     1     -10.405  23.180 -36.638  1.00  0.00     0.131 C 
HETATM   19  N1  UNL     1      -9.898  22.150 -36.092  1.00  0.00    -0.277 N 
ATOM     20  H1  UNL     1     -10.496  21.422 -35.701  1.00  0.00     0.193 HD
BRANCH  19  21
HETATM   21  O4  UNL     1      -8.531  22.035 -36.036  1.00  0.00    -0.275 OA
BRANCH  21  22
HETATM   22  C11 UNL     1      -7.958  21.680 -34.799  1.00  0.00     0.152 C 
HETATM   23  C12 UNL     1      -6.733  20.770 -34.953  1.00  0.00     0.034 C 
HETATM   24  C13 UNL     1      -7.216  20.072 -33.685  1.00  0.00     0.005 C 
HETATM   25  C14 UNL     1      -8.626  20.521 -34.088  1.00  0.00     0.034 C 
ENDBRANCH  21  22
ENDBRANCH  19  21
ENDBRANCH   8  18
BRANCH   7  26
HETATM   26  O3  UNL     1     -11.877  21.626 -38.359  1.00  0.00    -0.358 OA
ATOM     27  H3  UNL     1     -11.319  21.880 -39.085  1.00  0.00     0.217 HD
ENDBRANCH   7  26
TORSDOF 6
ENDMDL
MODEL 2
REMARK VINA RESULT: -8.469208726      1.734      2.273
REMARK  6 active torsions:
REMARK  status: ('A' for Active; 'I' for Inactive)
REMARK    1  A    between atoms: C3_4  and  O2_5 
REMARK    2  A    between atoms: O2_5  and  C4_6 
REMARK    3  A    between atoms: C8_12  and  O3_13 
REMARK    4  A    between atoms: C9_15  and  C10_16 
REMARK    5  A    between atoms: N1_17  and  O4_19 
REMARK    6  A    between atoms: O4_19  and  C11_20 
ROOT
HETATM    1  C4  UNL     1     -12.777  24.594 -36.228  1.00  0.00     0.114 A 
HETATM    2  C5  UNL     1     -14.149  24.715 -36.345  1.00  0.00     0.070 A 
HETATM    3 CL1  UNL     1     -14.895  26.089 -35.562  1.00  0.00    -0.081 Cl
HETATM    4  C6  UNL     1     -14.906  23.793 -37.050  1.00  0.00     0.053 A 
HETATM    5  C7  UNL     1     -14.255  22.731 -37.644  1.00  0.00     0.069 A 
HETATM    6 CL2  UNL     1     -15.148  21.515 -38.559  1.00  0.00    -0.081 Cl
HETATM    7  C8  UNL     1     -12.889  22.591 -37.540  1.00  0.00     0.102 A 
HETATM    8  C9  UNL     1     -12.145  23.527 -36.829  1.00  0.00     0.052 A 
ENDROOT
BRANCH   1   9
HETATM    9  O2  UNL     1     -12.039  25.507 -35.531  1.00  0.00    -0.290 OA
BRANCH   9  10
HETATM   10  C3  UNL     1     -11.644  25.438 -34.233  1.00  0.00     0.168 A 
HETATM   11  C2  UNL     1     -12.014  24.482 -33.321  1.00  0.00     0.133 A 
HETATM   12  C1  UNL     1     -11.376  24.802 -32.126  1.00  0.00     0.263 A 
HETATM   13  O1  UNL     1     -11.472  24.154 -31.055  1.00  0.00    -0.267 OA
HETATM   14  N3  UNL     1     -10.651  25.921 -32.344  1.00  0.00    -0.264 N 
HETATM   15  N2  UNL     1     -10.821  26.287 -33.604  1.00  0.00    -0.277 N 
ATOM     16  H3  UNL     1     -10.071  26.401 -31.656  1.00  0.00     0.190 HD
ATOM     17  H2  UNL     1     -10.386  27.102 -34.037  1.00  0.00     0.189 HD
ENDBRANCH   9  10
ENDBRANCH   1   9
BRANCH   8  18
HETATM   18  C10 UNL     1     -10.681  23.341 -36.740  1.00  0.00     0.131 C 
HETATM   19  N1  UNL     1     -10.167  22.433 -36.014  1.00  0.00    -0.277 N 
ATOM     20  H1  UNL     1     -10.760  21.806 -35.470  1.00  0.00     0.193 HD
BRANCH  19  21
HETATM   21  O4  UNL     1      -8.800  22.310 -35.973  1.00  0.00    -0.275 OA
BRANCH  21  22
HETATM   22  C11 UNL     1      -8.270  21.123 -35.432  1.00  0.00     0.152 C 
HETATM   23  C12 UNL     1      -8.791  20.832 -34.019  1.00  0.00     0.034 C 
HETATM   24  C13 UNL     1      -7.394  20.294 -33.722  1.00  0.00     0.005 C 
HETATM   25  C14 UNL     1      -6.896  21.256 -34.808  1.00  0.00     0.034 C 
ENDBRANCH  21  22
ENDBRANCH  19  21
ENDBRANCH   8  18
BRANCH   7  26
HETATM   26  O3  UNL     1     -12.211  21.532 -38.130  1.00  0.00    -0.358 OA
ATOM     27  H3  UNL     1     -12.368  20.630 -37.876  1.00  0.00     0.217 HD
ENDBRANCH   7  26
TORSDOF 6
ENDMDL
MODEL 3
REMARK VINA RESULT: -8.364946837      2.443      4.958
REMARK  6 active torsions:
REMARK  status: ('A' for Active; 'I' for Inactive)
REMARK    1  A    between atoms: C3_4  and  O2_5 
REMARK    2  A    between atoms: O2_5  and  C4_6 
REMARK    3  A    between atoms: C8_12  and  O3_13 
REMARK    4  A    between atoms: C9_15  and  C10_16 
REMARK    5  A    between atoms: N1_17  and  O4_19 
REMARK    6  A    between atoms: O4_19  and  C11_20 
ROOT
HETATM    1  C4  UNL     1     -12.656  22.562 -37.436  1.00  0.00     0.114 A 
HETATM    2  C5  UNL     1     -13.796  23.338 -37.535  1.00  0.00     0.070 A 
HETATM    3 CL1  UNL     1     -14.870  23.004 -38.874  1.00  0.00    -0.081 Cl
HETATM    4  C6  UNL     1     -14.082  24.336 -36.617  1.00  0.00     0.053 A 
HETATM    5  C7  UNL     1     -13.192  24.549 -35.585  1.00  0.00     0.069 A 
HETATM    6 CL2  UNL     1     -13.485  25.801 -34.377  1.00  0.00    -0.081 Cl
HETATM    7  C8  UNL     1     -12.050  23.788 -35.467  1.00  0.00     0.102 A 
HETATM    8  C9  UNL     1     -11.780  22.789 -36.396  1.00  0.00     0.052 A 
ENDROOT
BRANCH   1   9
HETATM    9  O2  UNL     1     -12.382  21.580 -38.344  1.00  0.00    -0.290 OA
BRANCH   9  10
HETATM   10  C3  UNL     1     -11.637  21.681 -39.475  1.00  0.00     0.168 A 
HETATM   11  C2  UNL     1     -11.642  20.807 -40.533  1.00  0.00     0.133 A 
HETATM   12  C1  UNL     1     -10.733  21.301 -41.463  1.00  0.00     0.263 A 
HETATM   13  O1  UNL     1     -10.462  20.769 -42.568  1.00  0.00    -0.267 OA
HETATM   14  N3  UNL     1     -10.213  22.439 -40.954  1.00  0.00    -0.264 N 
HETATM   15  N2  UNL     1     -10.762  22.652 -39.769  1.00  0.00    -0.277 N 
ATOM     16  H3  UNL     1      -9.516  23.033 -41.405  1.00  0.00     0.190 HD
ATOM     17  H2  UNL     1     -10.549  23.444 -39.163  1.00  0.00     0.189 HD
ENDBRANCH   9  10
ENDBRANCH   1   9
BRANCH   8  18
HETATM   18  C10 UNL     1     -10.544  21.995 -36.235  1.00  0.00     0.131 C 
HETATM   19  N1  UNL     1      -9.399  22.545 -36.188  1.00  0.00    -0.277 N 
ATOM     20  H1  UNL     1      -9.307  23.558 -36.262  1.00  0.00     0.193 HD
BRANCH  19  21
HETATM   21  O4  UNL     1      -8.287  21.753 -36.037  1.00  0.00    -0.275 OA
BRANCH  21  22
HETATM   22  C11 UNL     1      -7.821  21.532 -34.727  1.00  0.00     0.152 C 
HETATM   23  C12 UNL     1      -6.586  20.622 -34.684  1.00  0.00     0.034 C 
HETATM   24  C13 UNL     1      -7.172  20.052 -33.396  1.00  0.00     0.005 C 
HETATM   25  C14 UNL     1      -8.544  20.444 -33.959  1.00  0.00     0.034 C 
ENDBRANCH  21  22
ENDBRANCH  19  21
ENDBRANCH   8  18
BRANCH   7  26
HETATM   26  O3  UNL     1     -11.140  23.982 -34.435  1.00  0.00    -0.358 OA
ATOM     27  H3  UNL     1     -10.236  24.221 -34.601  1.00  0.00     0.217 HD
ENDBRANCH   7  26
TORSDOF 6
ENDMDL
MODEL 4
REMARK VINA RESULT: -8.354984054      3.557      6.765
REMARK  6 active torsions:
REMARK  status: ('A' for Active; 'I' for Inactive)
REMARK    1  A    between atoms: C3_4  and  O2_5 
REMARK    2  A    between atoms: O2_5  and  C4_6 
REMARK    3  A    between atoms: C8_12  and  O3_13 
REMARK    4  A    between atoms: C9_15  and  C10_16 
REMARK    5  A    between atoms: N1_17  and  O4_19 
REMARK    6  A    between atoms: O4_19  and  C11_20 
ROOT
HETATM    1  C4  UNL     1      -9.893  26.027 -37.938  1.00  0.00     0.114 A 
HETATM    2  C5  UNL     1      -9.133  26.024 -39.093  1.00  0.00     0.070 A 
HETATM    3 CL1  UNL     1      -9.601  24.900 -40.348  1.00  0.00    -0.081 Cl
HETATM    4  C6  UNL     1      -8.049  26.871 -39.256  1.00  0.00     0.053 A 
HETATM    5  C7  UNL     1      -7.733  27.734 -38.226  1.00  0.00     0.069 A 
HETATM    6 CL2  UNL     1      -6.368  28.843 -38.357  1.00  0.00    -0.081 Cl
HETATM    7  C8  UNL     1      -8.476  27.753 -37.067  1.00  0.00     0.102 A 
HETATM    8  C9  UNL     1      -9.562  26.896 -36.922  1.00  0.00     0.052 A 
ENDROOT
BRANCH   1   9
HETATM    9  O2  UNL     1     -10.960  25.188 -37.786  1.00  0.00    -0.290 OA
BRANCH   9  10
HETATM   10  C3  UNL     1     -10.940  23.876 -37.436  1.00  0.00     0.168 A 
HETATM   11  C2  UNL     1     -10.861  23.376 -36.161  1.00  0.00     0.133 A 
HETATM   12  C1  UNL     1     -10.871  21.989 -36.275  1.00  0.00     0.263 A 
HETATM   13  O1  UNL     1     -10.812  21.181 -35.316  1.00  0.00    -0.267 OA
HETATM   14  N3  UNL     1     -10.956  21.693 -37.591  1.00  0.00    -0.264 N 
HETATM   15  N2  UNL     1     -10.997  22.829 -38.268  1.00  0.00    -0.277 N 
ATOM     16  H3  UNL     1     -10.984  20.756 -37.992  1.00  0.00     0.190 HD
ATOM     17  H2  UNL     1     -11.062  22.897 -39.285  1.00  0.00     0.189 HD
ENDBRANCH   9  10
ENDBRANCH   1   9
BRANCH   8  18
HETATM   18  C10 UNL     1     -10.334  26.948 -35.662  1.00  0.00     0.131 C 
HETATM   19  N1  UNL     1     -11.605  27.006 -35.660  1.00  0.00    -0.277 N 
ATOM     20  H1  UNL     1     -12.124  27.019 -36.538  1.00  0.00     0.193 HD
BRANCH  19  21
HETATM   21  O4  UNL     1     -12.265  27.052 -34.458  1.00  0.00    -0.275 OA
BRANCH  21  22
HETATM   22  C11 UNL     1     -13.124  25.981 -34.147  1.00  0.00     0.152 C 
HETATM   23  C12 UNL     1     -14.607  26.354 -34.274  1.00  0.00     0.034 C 
HETATM   24  C13 UNL     1     -14.836  25.452 -33.065  1.00  0.00     0.005 C 
HETATM   25  C14 UNL     1     -13.390  25.774 -32.669  1.00  0.00     0.034 C 
ENDBRANCH  21  22
ENDBRANCH  19  21
ENDBRANCH   8  18
BRANCH   7  26
HETATM   26  O3  UNL     1      -8.179  28.613 -36.017  1.00  0.00    -0.358 OA
ATOM     27  H3  UNL     1      -8.334  28.372 -35.111  1.00  0.00     0.217 HD
ENDBRANCH   7  26
TORSDOF 6
ENDMDL
MODEL 5
REMARK VINA RESULT: -8.350772947      3.417      4.947
REMARK  6 active torsions:
REMARK  status: ('A' for Active; 'I' for Inactive)
REMARK    1  A    between atoms: C3_4  and  O2_5 
REMARK    2  A    between atoms: O2_5  and  C4_6 
REMARK    3  A    between atoms: C8_12  and  O3_13 
REMARK    4  A    between atoms: C9_15  and  C10_16 
REMARK    5  A    between atoms: N1_17  and  O4_19 
REMARK    6  A    between atoms: O4_19  and  C11_20 
ROOT
HETATM    1  C4  UNL     1     -11.155  26.389 -35.315  1.00  0.00     0.114 A 
HETATM    2  C5  UNL     1     -12.131  25.505 -34.894  1.00  0.00     0.070 A 
HETATM    3 CL1  UNL     1     -13.255  26.080 -33.684  1.00  0.00    -0.081 Cl
HETATM    4  C6  UNL     1     -12.221  24.219 -35.404  1.00  0.00     0.053 A 
HETATM    5  C7  UNL     1     -11.303  23.828 -36.356  1.00  0.00     0.069 A 
HETATM    6 CL2  UNL     1     -11.351  22.209 -37.054  1.00  0.00    -0.081 Cl
HETATM    7  C8  UNL     1     -10.322  24.693 -36.790  1.00  0.00     0.102 A 
HETATM    8  C9  UNL     1     -10.247  25.980 -36.267  1.00  0.00     0.052 A 
ENDROOT
BRANCH   1   9
HETATM    9  O2  UNL     1     -11.073  27.654 -34.807  1.00  0.00    -0.290 OA
BRANCH   9  10
HETATM   10  C3  UNL     1     -10.197  28.120 -33.880  1.00  0.00     0.168 A 
HETATM   11  C2  UNL     1      -9.832  29.429 -33.693  1.00  0.00     0.133 A 
HETATM   12  C1  UNL     1      -8.920  29.443 -32.641  1.00  0.00     0.263 A 
HETATM   13  O1  UNL     1      -8.360  30.467 -32.179  1.00  0.00    -0.267 OA
HETATM   14  N3  UNL     1      -8.763  28.166 -32.228  1.00  0.00    -0.264 N 
HETATM   15  N2  UNL     1      -9.530  27.391 -32.975  1.00  0.00    -0.277 N 
ATOM     16  H3  UNL     1      -8.156  27.854 -31.469  1.00  0.00     0.190 HD
ATOM     17  H2  UNL     1      -9.605  26.378 -32.877  1.00  0.00     0.189 HD
ENDBRANCH   9  10
ENDBRANCH   1   9
BRANCH   8  18
HETATM   18  C10 UNL     1      -9.180  26.877 -36.759  1.00  0.00     0.131 C 
HETATM   19  N1  UNL     1      -9.376  27.680 -37.726  1.00  0.00    -0.277 N 
ATOM     20  H1  UNL     1     -10.284  27.722 -38.188  1.00  0.00     0.193 HD
BRANCH  19  21
HETATM   21  O4  UNL     1      -8.345  28.488 -38.137  1.00  0.00    -0.275 OA
BRANCH  21  22
HETATM   22  C11 UNL     1      -7.070  27.904 -38.256  1.00  0.00     0.152 C 
HETATM   23  C12 UNL     1      -5.982  28.927 -38.610  1.00  0.00     0.034 C 
HETATM   24  C13 UNL     1      -5.359  27.822 -39.460  1.00  0.00     0.005 C 
HETATM   25  C14 UNL     1      -6.779  27.257 -39.595  1.00  0.00     0.034 C 
ENDBRANCH  21  22
ENDBRANCH  19  21
ENDBRANCH   8  18
BRANCH   7  26
HETATM   26  O3  UNL     1      -9.387  24.323 -37.748  1.00  0.00    -0.358 OA
ATOM     27  H3  UNL     1      -9.302  24.788 -38.573  1.00  0.00     0.217 HD
ENDBRANCH   7  26
TORSDOF 6
ENDMDL
