MODEL 1
REMARK VINA RESULT: -9.236106327      0.000      0.000
REMARK  13 active torsions:
REMARK  status: ('A' for Active; 'I' for Inactive)
REMARK    1  A    between atoms: N1_1  and  C1_4 
REMARK    2  A    between atoms: C2_9  and  C3_10 
REMARK    3  A    between atoms: N4_12  and  C5_13 
REMARK    4  A    between atoms: C5_13  and  C6_14 
REMARK    5  A    between atoms: C6_14  and  N5_15 
REMARK    6  A    between atoms: C8_17  and  C9_18 
REMARK    7  A    between atoms: C12_21  and  C13_22 
REMARK    8  A    between atoms: C13_22  and  N6_23 
REMARK    9  A    between atoms: C17_30  and  C18_31 
REMARK   10  A    between atoms: C18_31  and  O1_32 
REMARK   11  A    between atoms: C18_31  and  C19_34 
REMARK       I    between atoms: C19_34  and  N7_36 
REMARK   12  A    between atoms: N7_36  and  N8_38 
REMARK   13  A    between atoms: C20_43  and  N10_44 
ROOT
HETATM    1  N5  UNL     1     219.502 -69.220  -2.719  1.00  0.00    -0.340 N 
HETATM    2  C7  UNL     1     220.145 -70.010  -3.572  1.00  0.00     0.106 A 
HETATM    3  C8  UNL     1     220.885 -69.235  -4.515  1.00  0.00     0.006 A 
HETATM    4  C16 UNL     1     220.638 -67.934  -4.157  1.00  0.00     0.051 A 
HETATM    5  C17 UNL     1     221.064 -66.746  -4.712  1.00  0.00     0.102 A 
HETATM    6  N9  UNL     1     220.552 -65.637  -4.072  1.00  0.00    -0.188 N 
ATOM      7  H9  UNL     1     220.819 -64.719  -4.427  1.00  0.00     0.184 HD
HETATM    8  C20 UNL     1     219.730 -65.681  -3.021  1.00  0.00     0.678 A 
HETATM    9  N11 UNL     1     219.350 -66.837  -2.514  1.00  0.00    -0.176 N 
ATOM     10  H11 UNL     1     218.725 -66.866  -1.708  1.00  0.00     0.186 HD
HETATM   11  C21 UNL     1     219.793 -67.977  -3.068  1.00  0.00     0.136 A 
ENDROOT
BRANCH   1  12
HETATM   12  C6  UNL     1     218.660 -69.695  -1.638  1.00  0.00     0.152 C 
BRANCH  12  13
HETATM   13  C5  UNL     1     217.885 -70.901  -2.119  1.00  0.00     0.170 C 
BRANCH  13  14
HETATM   14  N4  UNL     1     216.471 -70.647  -1.803  1.00  0.00    -0.285 N 
HETATM   15  C4  UNL     1     215.570 -71.590  -1.501  1.00  0.00     0.145 A 
HETATM   16  C3  UNL     1     214.381 -70.950  -1.274  1.00  0.00     0.096 A 
HETATM   17  N13 UNL     1     214.625 -69.647  -1.451  1.00  0.00    -0.283 N 
HETATM   18  N12 UNL     1     215.874 -69.481  -1.765  1.00  0.00    -0.240 N 
ATOM     19  H13 UNL     1     213.937 -68.900  -1.354  1.00  0.00     0.188 HD
ATOM     20  H12 UNL     1     216.320 -68.583  -1.952  1.00  0.00     0.208 HD
BRANCH  16  21
HETATM   21  C2  UNL     1     213.104 -71.566  -0.913  1.00  0.00     0.094 A 
HETATM   22  N3  UNL     1     212.484 -71.285   0.247  1.00  0.00    -0.283 N 
HETATM   23  N2  UNL     1     211.330 -71.849   0.562  1.00  0.00    -0.132 N 
ATOM     24  H3  UNL     1     212.912 -70.625   0.896  1.00  0.00     0.187 HD
HETATM   25  C1  UNL     1     210.705 -72.730  -0.241  1.00  0.00     0.690 A 
ATOM     26  H2  UNL     1     210.895 -71.606   1.451  1.00  0.00     0.205 HD
HETATM   27  N14 UNL     1     211.313 -73.024  -1.409  1.00  0.00    -0.199 N 
HETATM   28  C22 UNL     1     212.487 -72.466  -1.755  1.00  0.00     0.139 A 
ATOM     29  H14 UNL     1     210.870 -73.687  -2.046  1.00  0.00     0.183 HD
BRANCH  25  30
HETATM   30  N1  UNL     1     209.564 -73.281   0.083  1.00  0.00    -0.233 N 
ATOM     31  H12 UNL     1     209.085 -73.028   0.947  1.00  0.00     0.174 HD
ATOM     32  H11 UNL     1     209.111 -73.978  -0.507  1.00  0.00     0.174 HD
ENDBRANCH  25  30
ENDBRANCH  16  21
ENDBRANCH  13  14
ENDBRANCH  12  13
ENDBRANCH   1  12
BRANCH   3  33
HETATM   33  C9  UNL     1     221.582 -69.836  -5.607  1.00  0.00    -0.024 A 
HETATM   34  C10 UNL     1     220.971 -70.016  -6.796  1.00  0.00     0.013 A 
HETATM   35  C11 UNL     1     221.628 -70.502  -7.925  1.00  0.00     0.010 A 
HETATM   36  C12 UNL     1     222.963 -70.807  -7.799  1.00  0.00    -0.033 A 
HETATM   37  C14 UNL     1     223.618 -70.641  -6.615  1.00  0.00     0.010 A 
HETATM   38  C15 UNL     1     222.894 -70.147  -5.522  1.00  0.00     0.013 A 
BRANCH  36  39
HETATM   39  C13 UNL     1     223.737 -71.340  -8.989  1.00  0.00     0.268 C 
BRANCH  39  40
HETATM   40  N6  UNL     1     223.344 -70.534 -10.131  1.00  0.00    -0.075 N 
ATOM     41  H63 UNL     1     223.143 -71.085 -10.965  1.00  0.00     0.274 HD
ATOM     42  H62 UNL     1     222.419 -70.114 -10.031  1.00  0.00     0.274 HD
ATOM     43  H61 UNL     1     224.086 -69.848 -10.270  1.00  0.00     0.274 HD
ENDBRANCH  39  40
ENDBRANCH  36  39
ENDBRANCH   3  33
BRANCH   5  44
HETATM   44  C18 UNL     1     222.051 -66.571  -5.774  1.00  0.00     0.164 C 
BRANCH  44  45
HETATM   45  O1  UNL     1     221.709 -66.524  -7.080  1.00  0.00    -0.354 OA
ATOM     46  H1  UNL     1     221.230 -67.226  -7.505  1.00  0.00     0.218 HD
ENDBRANCH  44  45
BRANCH  44  47
HETATM   47  C19 UNL     1     223.400 -66.161  -5.354  1.00  0.00     0.294 C 
HETATM   48  O2  UNL     1     223.580 -65.925  -4.134  1.00  0.00    -0.264 OA
HETATM   49  N7  UNL     1     224.476 -66.024  -6.237  1.00  0.00    -0.271 N 
ATOM     50  H7  UNL     1     224.329 -66.217  -7.229  1.00  0.00     0.189 HD
BRANCH  49  51
HETATM   51  N8  UNL     1     225.745 -65.633  -5.807  1.00  0.00    -0.342 N 
ATOM     52  H82 UNL     1     225.816 -65.134  -4.920  1.00  0.00     0.176 HD
ATOM     53  H81 UNL     1     226.587 -65.830  -6.349  1.00  0.00     0.176 HD
ENDBRANCH  49  51
ENDBRANCH  44  47
ENDBRANCH   5  44
BRANCH   8  54
HETATM   54  N10 UNL     1     219.292 -64.569  -2.477  1.00  0.00    -0.234 N 
ATOM     55 2H10 UNL     1     219.965 -63.897  -2.109  1.00  0.00     0.174 HD
ATOM     56 1H10 UNL     1     218.291 -64.382  -2.425  1.00  0.00     0.174 HD
ENDBRANCH   8  54
TORSDOF 13
ENDMDL
MODEL 2
REMARK VINA RESULT: -9.183761683      1.735      2.506
REMARK  13 active torsions:
REMARK  status: ('A' for Active; 'I' for Inactive)
REMARK    1  A    between atoms: N1_1  and  C1_4 
REMARK    2  A    between atoms: C2_9  and  C3_10 
REMARK    3  A    between atoms: N4_12  and  C5_13 
REMARK    4  A    between atoms: C5_13  and  C6_14 
REMARK    5  A    between atoms: C6_14  and  N5_15 
REMARK    6  A    between atoms: C8_17  and  C9_18 
REMARK    7  A    between atoms: C12_21  and  C13_22 
REMARK    8  A    between atoms: C13_22  and  N6_23 
REMARK    9  A    between atoms: C17_30  and  C18_31 
REMARK   10  A    between atoms: C18_31  and  O1_32 
REMARK   11  A    between atoms: C18_31  and  C19_34 
REMARK       I    between atoms: C19_34  and  N7_36 
REMARK   12  A    between atoms: N7_36  and  N8_38 
REMARK   13  A    between atoms: C20_43  and  N10_44 
ROOT
HETATM    1  N5  UNL     1     221.351 -67.571  -2.510  1.00  0.00    -0.340 N 
HETATM    2  C7  UNL     1     221.816 -68.338  -3.489  1.00  0.00     0.106 A 
HETATM    3  C8  UNL     1     222.016 -67.571  -4.677  1.00  0.00     0.006 A 
HETATM    4  C16 UNL     1     221.643 -66.299  -4.328  1.00  0.00     0.051 A 
HETATM    5  C17 UNL     1     221.602 -65.133  -5.064  1.00  0.00     0.102 A 
HETATM    6  N9  UNL     1     221.119 -64.059  -4.348  1.00  0.00    -0.188 N 
ATOM      7  H9  UNL     1     221.056 -63.160  -4.825  1.00  0.00     0.184 HD
HETATM    8  C20 UNL     1     220.730 -64.112  -3.072  1.00  0.00     0.678 A 
HETATM    9  N11 UNL     1     220.790 -65.244  -2.399  1.00  0.00    -0.176 N 
ATOM     10  H11 UNL     1     220.495 -65.280  -1.423  1.00  0.00     0.186 HD
HETATM   11  C21 UNL     1     221.244 -66.350  -3.009  1.00  0.00     0.136 A 
ENDROOT
BRANCH   1  12
HETATM   12  C6  UNL     1     221.042 -68.046  -1.175  1.00  0.00     0.152 C 
BRANCH  12  13
HETATM   13  C5  UNL     1     220.542 -69.470  -1.268  1.00  0.00     0.170 C 
BRANCH  13  14
HETATM   14  N4  UNL     1     219.126 -69.396  -1.658  1.00  0.00    -0.285 N 
HETATM   15  C4  UNL     1     218.168 -70.230  -1.235  1.00  0.00     0.145 A 
HETATM   16  C3  UNL     1     216.998 -69.827  -1.822  1.00  0.00     0.096 A 
HETATM   17  N13 UNL     1     217.310 -68.765  -2.573  1.00  0.00    -0.283 N 
HETATM   18  N12 UNL     1     218.580 -68.518  -2.465  1.00  0.00    -0.240 N 
ATOM     19  H13 UNL     1     216.652 -68.231  -3.141  1.00  0.00     0.188 HD
ATOM     20  H12 UNL     1     219.076 -67.761  -2.935  1.00  0.00     0.208 HD
BRANCH  16  21
HETATM   21  C2  UNL     1     215.677 -70.435  -1.661  1.00  0.00     0.094 A 
HETATM   22  N3  UNL     1     214.601 -69.710  -1.307  1.00  0.00    -0.283 N 
HETATM   23  N2  UNL     1     213.412 -70.271  -1.166  1.00  0.00    -0.132 N 
ATOM     24  H3  UNL     1     214.703 -68.708  -1.146  1.00  0.00     0.187 HD
HETATM   25  C1  UNL     1     213.198 -71.585  -1.360  1.00  0.00     0.690 A 
ATOM     26  H2  UNL     1     212.624 -69.683  -0.898  1.00  0.00     0.205 HD
HETATM   27  N14 UNL     1     214.266 -72.329  -1.715  1.00  0.00    -0.199 N 
HETATM   28  C22 UNL     1     215.487 -71.784  -1.867  1.00  0.00     0.139 A 
ATOM     29  H14 UNL     1     214.145 -73.329  -1.872  1.00  0.00     0.183 HD
BRANCH  25  30
HETATM   30  N1  UNL     1     212.017 -72.128  -1.215  1.00  0.00    -0.233 N 
ATOM     31  H12 UNL     1     211.239 -71.597  -0.822  1.00  0.00     0.174 HD
ATOM     32  H11 UNL     1     211.825 -73.092  -1.485  1.00  0.00     0.174 HD
ENDBRANCH  25  30
ENDBRANCH  16  21
ENDBRANCH  13  14
ENDBRANCH  12  13
ENDBRANCH   1  12
BRANCH   3  33
HETATM   33  C9  UNL     1     222.411 -68.175  -5.910  1.00  0.00    -0.024 A 
HETATM   34  C10 UNL     1     223.705 -68.169  -6.293  1.00  0.00     0.013 A 
HETATM   35  C11 UNL     1     224.165 -68.828  -7.431  1.00  0.00     0.010 A 
HETATM   36  C12 UNL     1     223.241 -69.511  -8.186  1.00  0.00    -0.033 A 
HETATM   37  C14 UNL     1     221.923 -69.541  -7.834  1.00  0.00     0.010 A 
HETATM   38  C15 UNL     1     221.532 -68.856  -6.676  1.00  0.00     0.013 A 
BRANCH  36  39
HETATM   39  C13 UNL     1     223.675 -70.249  -9.437  1.00  0.00     0.268 C 
BRANCH  39  40
HETATM   40  N6  UNL     1     224.203 -71.529  -8.997  1.00  0.00    -0.075 N 
ATOM     41  H63 UNL     1     224.920 -71.444  -8.277  1.00  0.00     0.274 HD
ATOM     42  H62 UNL     1     223.538 -72.075  -8.449  1.00  0.00     0.274 HD
ATOM     43  H61 UNL     1     224.527 -72.011  -9.836  1.00  0.00     0.274 HD
ENDBRANCH  39  40
ENDBRANCH  36  39
ENDBRANCH   3  33
BRANCH   5  44
HETATM   44  C18 UNL     1     222.113 -64.925  -6.416  1.00  0.00     0.164 C 
BRANCH  44  45
HETATM   45  O1  UNL     1     221.311 -64.938  -7.503  1.00  0.00    -0.354 OA
ATOM     46  H1  UNL     1     221.566 -65.356  -8.317  1.00  0.00     0.218 HD
ENDBRANCH  44  45
BRANCH  44  47
HETATM   47  C19 UNL     1     223.488 -64.414  -6.525  1.00  0.00     0.294 C 
HETATM   48  O2  UNL     1     223.702 -63.496  -7.353  1.00  0.00    -0.264 OA
HETATM   49  N7  UNL     1     224.554 -64.897  -5.757  1.00  0.00    -0.271 N 
ATOM     50  H7  UNL     1     224.380 -65.643  -5.083  1.00  0.00     0.189 HD
BRANCH  49  51
HETATM   51  N8  UNL     1     225.849 -64.391  -5.884  1.00  0.00    -0.342 N 
ATOM     52  H82 UNL     1     226.568 -65.008  -6.261  1.00  0.00     0.176 HD
ATOM     53  H81 UNL     1     226.088 -63.437  -5.612  1.00  0.00     0.176 HD
ENDBRANCH  49  51
ENDBRANCH  44  47
ENDBRANCH   5  44
BRANCH   8  54
HETATM   54  N10 UNL     1     220.282 -63.034  -2.471  1.00  0.00    -0.234 N 
ATOM     55 2H10 UNL     1     220.950 -62.367  -2.085  1.00  0.00     0.174 HD
ATOM     56 1H10 UNL     1     219.279 -62.867  -2.393  1.00  0.00     0.174 HD
ENDBRANCH   8  54
TORSDOF 13
ENDMDL
MODEL 3
REMARK VINA RESULT: -8.999406128      5.019      9.773
REMARK  13 active torsions:
REMARK  status: ('A' for Active; 'I' for Inactive)
REMARK    1  A    between atoms: N1_1  and  C1_4 
REMARK    2  A    between atoms: C2_9  and  C3_10 
REMARK    3  A    between atoms: N4_12  and  C5_13 
REMARK    4  A    between atoms: C5_13  and  C6_14 
REMARK    5  A    between atoms: C6_14  and  N5_15 
REMARK    6  A    between atoms: C8_17  and  C9_18 
REMARK    7  A    between atoms: C12_21  and  C13_22 
REMARK    8  A    between atoms: C13_22  and  N6_23 
REMARK    9  A    between atoms: C17_30  and  C18_31 
REMARK   10  A    between atoms: C18_31  and  O1_32 
REMARK   11  A    between atoms: C18_31  and  C19_34 
REMARK       I    between atoms: C19_34  and  N7_36 
REMARK   12  A    between atoms: N7_36  and  N8_38 
REMARK   13  A    between atoms: C20_43  and  N10_44 
ROOT
HETATM    1  N5  UNL     1     221.426 -66.212  -4.641  1.00  0.00    -0.340 N 
HETATM    2  C7  UNL     1     220.649 -67.287  -4.712  1.00  0.00     0.106 A 
HETATM    3  C8  UNL     1     221.320 -68.348  -5.391  1.00  0.00     0.006 A 
HETATM    4  C16 UNL     1     222.548 -67.827  -5.710  1.00  0.00     0.051 A 
HETATM    5  C17 UNL     1     223.617 -68.375  -6.385  1.00  0.00     0.102 A 
HETATM    6  N9  UNL     1     224.669 -67.497  -6.538  1.00  0.00    -0.188 N 
ATOM      7  H9  UNL     1     225.497 -67.829  -7.031  1.00  0.00     0.184 HD
HETATM    8  C20 UNL     1     224.678 -66.241  -6.085  1.00  0.00     0.678 A 
HETATM    9  N11 UNL     1     223.639 -65.753  -5.437  1.00  0.00    -0.176 N 
ATOM     10  H11 UNL     1     223.652 -64.794  -5.090  1.00  0.00     0.186 HD
HETATM   11  C21 UNL     1     222.562 -66.530  -5.239  1.00  0.00     0.136 A 
ENDROOT
BRANCH   1  12
HETATM   12  C6  UNL     1     221.039 -64.962  -4.014  1.00  0.00     0.152 C 
BRANCH  12  13
HETATM   13  C5  UNL     1     221.238 -65.086  -2.520  1.00  0.00     0.170 C 
BRANCH  13  14
HETATM   14  N4  UNL     1     221.686 -63.769  -2.043  1.00  0.00    -0.285 N 
HETATM   15  C4  UNL     1     222.951 -63.332  -2.065  1.00  0.00     0.145 A 
HETATM   16  C3  UNL     1     222.949 -62.068  -1.538  1.00  0.00     0.096 A 
HETATM   17  N13 UNL     1     221.676 -61.804  -1.223  1.00  0.00    -0.283 N 
HETATM   18  N12 UNL     1     220.935 -62.824  -1.530  1.00  0.00    -0.240 N 
ATOM     19  H13 UNL     1     221.341 -60.935  -0.806  1.00  0.00     0.188 HD
ATOM     20  H12 UNL     1     219.926 -62.882  -1.393  1.00  0.00     0.208 HD
BRANCH  16  21
HETATM   21  C2  UNL     1     224.103 -61.188  -1.356  1.00  0.00     0.094 A 
HETATM   22  N3  UNL     1     224.979 -60.953  -2.349  1.00  0.00    -0.283 N 
HETATM   23  N2  UNL     1     226.019 -60.155  -2.172  1.00  0.00    -0.132 N 
ATOM     24  H3  UNL     1     224.839 -61.399  -3.255  1.00  0.00     0.187 HD
HETATM   25  C1  UNL     1     226.271 -59.533  -1.005  1.00  0.00     0.690 A 
ATOM     26  H2  UNL     1     226.656 -60.004  -2.952  1.00  0.00     0.205 HD
HETATM   27  N14 UNL     1     225.402 -59.757   0.003  1.00  0.00    -0.199 N 
HETATM   28  C22 UNL     1     224.336 -60.564  -0.149  1.00  0.00     0.139 A 
ATOM     29  H14 UNL     1     225.558 -59.303   0.903  1.00  0.00     0.183 HD
BRANCH  25  30
HETATM   30  N1  UNL     1     227.303 -58.747  -0.843  1.00  0.00    -0.233 N 
ATOM     31  H12 UNL     1     228.066 -58.735  -1.521  1.00  0.00     0.174 HD
ATOM     32  H11 UNL     1     227.389 -58.120  -0.044  1.00  0.00     0.174 HD
ENDBRANCH  25  30
ENDBRANCH  16  21
ENDBRANCH  13  14
ENDBRANCH  12  13
ENDBRANCH   1  12
BRANCH   3  33
HETATM   33  C9  UNL     1     220.670 -69.582  -5.696  1.00  0.00    -0.024 A 
HETATM   34  C10 UNL     1     220.743 -70.625  -4.843  1.00  0.00     0.013 A 
HETATM   35  C11 UNL     1     220.047 -71.817  -5.036  1.00  0.00     0.010 A 
HETATM   36  C12 UNL     1     219.254 -71.915  -6.155  1.00  0.00    -0.033 A 
HETATM   37  C14 UNL     1     219.153 -70.884  -7.043  1.00  0.00     0.010 A 
HETATM   38  C15 UNL     1     219.881 -69.715  -6.785  1.00  0.00     0.013 A 
BRANCH  36  39
HETATM   39  C13 UNL     1     218.471 -73.184  -6.425  1.00  0.00     0.268 C 
BRANCH  39  40
HETATM   40  N6  UNL     1     219.008 -74.197  -5.532  1.00  0.00    -0.075 N 
ATOM     41  H63 UNL     1     219.287 -73.826  -4.624  1.00  0.00     0.274 HD
ATOM     42  H62 UNL     1     218.303 -74.851  -5.191  1.00  0.00     0.274 HD
ATOM     43  H61 UNL     1     219.771 -74.651  -6.035  1.00  0.00     0.274 HD
ENDBRANCH  39  40
ENDBRANCH  36  39
ENDBRANCH   3  33
BRANCH   5  44
HETATM   44  C18 UNL     1     223.772 -69.763  -6.816  1.00  0.00     0.164 C 
BRANCH  44  45
HETATM   45  O1  UNL     1     223.897 -70.783  -5.939  1.00  0.00    -0.354 OA
ATOM     46  H1  UNL     1     224.661 -71.347  -5.921  1.00  0.00     0.218 HD
ENDBRANCH  44  45
BRANCH  44  47
HETATM   47  C19 UNL     1     223.499 -70.043  -8.234  1.00  0.00     0.294 C 
HETATM   48  O2  UNL     1     224.193 -69.440  -9.088  1.00  0.00    -0.264 OA
HETATM   49  N7  UNL     1     222.516 -70.939  -8.669  1.00  0.00    -0.271 N 
ATOM     50  H7  UNL     1     221.953 -71.431  -7.974  1.00  0.00     0.189 HD
BRANCH  49  51
HETATM   51  N8  UNL     1     222.281 -71.184 -10.023  1.00  0.00    -0.342 N 
ATOM     52  H82 UNL     1     223.074 -71.130 -10.663  1.00  0.00     0.176 HD
ATOM     53  H81 UNL     1     221.353 -71.410 -10.380  1.00  0.00     0.176 HD
ENDBRANCH  49  51
ENDBRANCH  44  47
ENDBRANCH   5  44
BRANCH   8  54
HETATM   54  N10 UNL     1     225.728 -65.476  -6.279  1.00  0.00    -0.234 N 
ATOM     55 2H10 UNL     1     226.650 -65.821  -6.016  1.00  0.00     0.174 HD
ATOM     56 1H10 UNL     1     225.619 -64.548  -6.689  1.00  0.00     0.174 HD
ENDBRANCH   8  54
TORSDOF 13
ENDMDL
MODEL 4
REMARK VINA RESULT: -8.977765411      5.049      9.269
REMARK  13 active torsions:
REMARK  status: ('A' for Active; 'I' for Inactive)
REMARK    1  A    between atoms: N1_1  and  C1_4 
REMARK    2  A    between atoms: C2_9  and  C3_10 
REMARK    3  A    between atoms: N4_12  and  C5_13 
REMARK    4  A    between atoms: C5_13  and  C6_14 
REMARK    5  A    between atoms: C6_14  and  N5_15 
REMARK    6  A    between atoms: C8_17  and  C9_18 
REMARK    7  A    between atoms: C12_21  and  C13_22 
REMARK    8  A    between atoms: C13_22  and  N6_23 
REMARK    9  A    between atoms: C17_30  and  C18_31 
REMARK   10  A    between atoms: C18_31  and  O1_32 
REMARK   11  A    between atoms: C18_31  and  C19_34 
REMARK       I    between atoms: C19_34  and  N7_36 
REMARK   12  A    between atoms: N7_36  and  N8_38 
REMARK   13  A    between atoms: C20_43  and  N10_44 
ROOT
HETATM    1  N5  UNL     1     221.369 -66.316  -4.582  1.00  0.00    -0.340 N 
HETATM    2  C7  UNL     1     220.601 -67.397  -4.654  1.00  0.00     0.106 A 
HETATM    3  C8  UNL     1     221.274 -68.447  -5.349  1.00  0.00     0.006 A 
HETATM    4  C16 UNL     1     222.494 -67.912  -5.676  1.00  0.00     0.051 A 
HETATM    5  C17 UNL     1     223.561 -68.445  -6.368  1.00  0.00     0.102 A 
HETATM    6  N9  UNL     1     224.603 -67.556  -6.524  1.00  0.00    -0.188 N 
ATOM      7  H9  UNL     1     225.429 -67.878  -7.029  1.00  0.00     0.184 HD
HETATM    8  C20 UNL     1     224.606 -66.304  -6.061  1.00  0.00     0.678 A 
HETATM    9  N11 UNL     1     223.569 -65.831  -5.398  1.00  0.00    -0.176 N 
ATOM     10  H11 UNL     1     223.577 -64.875  -5.043  1.00  0.00     0.186 HD
HETATM   11  C21 UNL     1     222.502 -66.619  -5.195  1.00  0.00     0.136 A 
ENDROOT
BRANCH   1  12
HETATM   12  C6  UNL     1     220.978 -65.075  -3.940  1.00  0.00     0.152 C 
BRANCH  12  13
HETATM   13  C5  UNL     1     221.382 -65.132  -2.485  1.00  0.00     0.170 C 
BRANCH  13  14
HETATM   14  N4  UNL     1     222.036 -63.851  -2.177  1.00  0.00    -0.285 N 
HETATM   15  C4  UNL     1     221.828 -63.128  -1.070  1.00  0.00     0.145 A 
HETATM   16  C3  UNL     1     222.620 -62.015  -1.163  1.00  0.00     0.096 A 
HETATM   17  N13 UNL     1     223.269 -62.122  -2.327  1.00  0.00    -0.283 N 
HETATM   18  N12 UNL     1     222.912 -63.220  -2.920  1.00  0.00    -0.240 N 
ATOM     19  H13 UNL     1     223.940 -61.446  -2.692  1.00  0.00     0.188 HD
ATOM     20  H12 UNL     1     223.260 -63.542  -3.823  1.00  0.00     0.208 HD
BRANCH  16  21
HETATM   21  C2  UNL     1     222.731 -60.930  -0.188  1.00  0.00     0.094 A 
HETATM   22  N3  UNL     1     222.129 -60.991   1.013  1.00  0.00    -0.283 N 
HETATM   23  N2  UNL     1     222.239 -60.003   1.886  1.00  0.00    -0.132 N 
ATOM     24  H3  UNL     1     221.579 -61.814   1.256  1.00  0.00     0.187 HD
HETATM   25  C1  UNL     1     222.946 -58.886   1.639  1.00  0.00     0.690 A 
ATOM     26  H2  UNL     1     221.766 -60.093   2.785  1.00  0.00     0.205 HD
HETATM   27  N14 UNL     1     223.557 -58.806   0.439  1.00  0.00    -0.199 N 
HETATM   28  C22 UNL     1     223.463 -59.796  -0.469  1.00  0.00     0.139 A 
ATOM     29  H14 UNL     1     224.104 -57.975   0.213  1.00  0.00     0.183 HD
BRANCH  25  30
HETATM   30  N1  UNL     1     223.045 -57.916   2.511  1.00  0.00    -0.233 N 
ATOM     31  H12 UNL     1     223.099 -56.943   2.210  1.00  0.00     0.174 HD
ATOM     32  H11 UNL     1     223.073 -58.090   3.515  1.00  0.00     0.174 HD
ENDBRANCH  25  30
ENDBRANCH  16  21
ENDBRANCH  13  14
ENDBRANCH  12  13
ENDBRANCH   1  12
BRANCH   3  33
HETATM   33  C9  UNL     1     220.632 -69.684  -5.657  1.00  0.00    -0.024 A 
HETATM   34  C10 UNL     1     220.745 -70.742  -4.827  1.00  0.00     0.013 A 
HETATM   35  C11 UNL     1     220.061 -71.940  -5.021  1.00  0.00     0.010 A 
HETATM   36  C12 UNL     1     219.234 -72.028  -6.116  1.00  0.00    -0.033 A 
HETATM   37  C14 UNL     1     219.092 -70.982  -6.980  1.00  0.00     0.010 A 
HETATM   38  C15 UNL     1     219.811 -69.808  -6.723  1.00  0.00     0.013 A 
BRANCH  36  39
HETATM   39  C13 UNL     1     218.461 -73.303  -6.386  1.00  0.00     0.268 C 
BRANCH  39  40
HETATM   40  N6  UNL     1     219.060 -74.332  -5.553  1.00  0.00    -0.075 N 
ATOM     41  H63 UNL     1     219.927 -74.708  -5.938  1.00  0.00     0.274 HD
ATOM     42  H62 UNL     1     219.453 -73.971  -4.684  1.00  0.00     0.274 HD
ATOM     43  H61 UNL     1     218.341 -75.041  -5.408  1.00  0.00     0.274 HD
ENDBRANCH  39  40
ENDBRANCH  36  39
ENDBRANCH   3  33
BRANCH   5  44
HETATM   44  C18 UNL     1     223.723 -69.828  -6.811  1.00  0.00     0.164 C 
BRANCH  44  45
HETATM   45  O1  UNL     1     223.843 -70.857  -5.944  1.00  0.00    -0.354 OA
ATOM     46  H1  UNL     1     224.687 -71.162  -5.631  1.00  0.00     0.218 HD
ENDBRANCH  44  45
BRANCH  44  47
HETATM   47  C19 UNL     1     223.463 -70.094  -8.234  1.00  0.00     0.294 C 
HETATM   48  O2  UNL     1     224.180 -69.500  -9.075  1.00  0.00    -0.264 OA
HETATM   49  N7  UNL     1     222.468 -70.968  -8.687  1.00  0.00    -0.271 N 
ATOM     50  H7  UNL     1     221.886 -71.452  -8.003  1.00  0.00     0.189 HD
BRANCH  49  51
HETATM   51  N8  UNL     1     222.246 -71.199 -10.046  1.00  0.00    -0.342 N 
ATOM     52  H82 UNL     1     223.017 -71.029 -10.692  1.00  0.00     0.176 HD
ATOM     53  H81 UNL     1     221.347 -71.528 -10.401  1.00  0.00     0.176 HD
ENDBRANCH  49  51
ENDBRANCH  44  47
ENDBRANCH   5  44
BRANCH   8  54
HETATM   54  N10 UNL     1     225.646 -65.528  -6.260  1.00  0.00    -0.234 N 
ATOM     55 2H10 UNL     1     226.327 -65.782  -6.976  1.00  0.00     0.174 HD
ATOM     56 1H10 UNL     1     225.770 -64.682  -5.705  1.00  0.00     0.174 HD
ENDBRANCH   8  54
TORSDOF 13
ENDMDL
MODEL 5
REMARK VINA RESULT: -8.962909101      3.669      9.547
REMARK  13 active torsions:
REMARK  status: ('A' for Active; 'I' for Inactive)
REMARK    1  A    between atoms: N1_1  and  C1_4 
REMARK    2  A    between atoms: C2_9  and  C3_10 
REMARK    3  A    between atoms: N4_12  and  C5_13 
REMARK    4  A    between atoms: C5_13  and  C6_14 
REMARK    5  A    between atoms: C6_14  and  N5_15 
REMARK    6  A    between atoms: C8_17  and  C9_18 
REMARK    7  A    between atoms: C12_21  and  C13_22 
REMARK    8  A    between atoms: C13_22  and  N6_23 
REMARK    9  A    between atoms: C17_30  and  C18_31 
REMARK   10  A    between atoms: C18_31  and  O1_32 
REMARK   11  A    between atoms: C18_31  and  C19_34 
REMARK       I    between atoms: C19_34  and  N7_36 
REMARK   12  A    between atoms: N7_36  and  N8_38 
REMARK   13  A    between atoms: C20_43  and  N10_44 
ROOT
HETATM    1  N5  UNL     1     223.854 -66.648  -5.425  1.00  0.00    -0.340 N 
HETATM    2  C7  UNL     1     222.896 -67.011  -4.581  1.00  0.00     0.106 A 
HETATM    3  C8  UNL     1     222.392 -68.304  -4.916  1.00  0.00     0.006 A 
HETATM    4  C16 UNL     1     223.124 -68.680  -6.013  1.00  0.00     0.051 A 
HETATM    5  C17 UNL     1     223.073 -69.819  -6.789  1.00  0.00     0.102 A 
HETATM    6  N9  UNL     1     223.961 -69.795  -7.843  1.00  0.00    -0.188 N 
ATOM      7  H9  UNL     1     223.981 -70.604  -8.465  1.00  0.00     0.184 HD
HETATM    8  C20 UNL     1     224.797 -68.789  -8.107  1.00  0.00     0.678 A 
HETATM    9  N11 UNL     1     224.821 -67.717  -7.338  1.00  0.00    -0.176 N 
ATOM     10  H11 UNL     1     225.464 -66.952  -7.541  1.00  0.00     0.186 HD
HETATM   11  C21 UNL     1     223.992 -67.643  -6.285  1.00  0.00     0.136 A 
ENDROOT
BRANCH   1  12
HETATM   12  C6  UNL     1     224.570 -65.388  -5.359  1.00  0.00     0.152 C 
BRANCH  12  13
HETATM   13  C5  UNL     1     223.572 -64.256  -5.447  1.00  0.00     0.170 C 
BRANCH  13  14
HETATM   14  N4  UNL     1     223.787 -63.409  -4.264  1.00  0.00    -0.285 N 
HETATM   15  C4  UNL     1     222.987 -63.367  -3.192  1.00  0.00     0.145 A 
HETATM   16  C3  UNL     1     223.531 -62.462  -2.320  1.00  0.00     0.096 A 
HETATM   17  N13 UNL     1     224.638 -62.001  -2.912  1.00  0.00    -0.283 N 
HETATM   18  N12 UNL     1     224.779 -62.574  -4.069  1.00  0.00    -0.240 N 
ATOM     19  H13 UNL     1     225.272 -61.307  -2.516  1.00  0.00     0.188 HD
ATOM     20  H12 UNL     1     225.542 -62.400  -4.723  1.00  0.00     0.208 HD
BRANCH  16  21
HETATM   21  C2  UNL     1     223.007 -62.079  -1.009  1.00  0.00     0.094 A 
HETATM   22  N3  UNL     1     221.978 -61.222  -0.879  1.00  0.00    -0.283 N 
HETATM   23  N2  UNL     1     221.513 -60.884   0.311  1.00  0.00    -0.132 N 
ATOM     24  H3  UNL     1     221.548 -60.827  -1.715  1.00  0.00     0.187 HD
HETATM   25  C1  UNL     1     222.029 -61.363   1.459  1.00  0.00     0.690 A 
ATOM     26  H2  UNL     1     220.731 -60.233   0.363  1.00  0.00     0.205 HD
HETATM   27  N14 UNL     1     223.062 -62.223   1.348  1.00  0.00    -0.199 N 
HETATM   28  C22 UNL     1     223.555 -62.585   0.150  1.00  0.00     0.139 A 
ATOM     29  H14 UNL     1     223.480 -62.609   2.195  1.00  0.00     0.183 HD
BRANCH  25  30
HETATM   30  N1  UNL     1     221.560 -61.019   2.630  1.00  0.00    -0.233 N 
ATOM     31  H12 UNL     1     220.689 -60.494   2.714  1.00  0.00     0.174 HD
ATOM     32  H11 UNL     1     222.039 -61.257   3.498  1.00  0.00     0.174 HD
ENDBRANCH  25  30
ENDBRANCH  16  21
ENDBRANCH  13  14
ENDBRANCH  12  13
ENDBRANCH   1  12
BRANCH   3  33
HETATM   33  C9  UNL     1     221.283 -68.885  -4.230  1.00  0.00    -0.024 A 
HETATM   34  C10 UNL     1     221.478 -69.653  -3.138  1.00  0.00     0.013 A 
HETATM   35  C11 UNL     1     220.434 -70.163  -2.369  1.00  0.00     0.010 A 
HETATM   36  C12 UNL     1     219.151 -69.857  -2.759  1.00  0.00    -0.033 A 
HETATM   37  C14 UNL     1     218.911 -69.086  -3.857  1.00  0.00     0.010 A 
HETATM   38  C15 UNL     1     220.009 -68.607  -4.583  1.00  0.00     0.013 A 
BRANCH  36  39
HETATM   39  C13 UNL     1     217.970 -70.381  -1.966  1.00  0.00     0.268 C 
BRANCH  39  40
HETATM   40  N6  UNL     1     216.872 -69.459  -2.206  1.00  0.00    -0.075 N 
ATOM     41  H63 UNL     1     217.179 -68.500  -2.366  1.00  0.00     0.274 HD
ATOM     42  H62 UNL     1     216.417 -69.599  -3.109  1.00  0.00     0.274 HD
ATOM     43  H61 UNL     1     216.237 -69.554  -1.414  1.00  0.00     0.274 HD
ENDBRANCH  39  40
ENDBRANCH  36  39
ENDBRANCH   3  33
BRANCH   5  44
HETATM   44  C18 UNL     1     222.296 -71.029  -6.530  1.00  0.00     0.164 C 
BRANCH  44  45
HETATM   45  O1  UNL     1     222.631 -71.911  -5.564  1.00  0.00    -0.354 OA
ATOM     46  H1  UNL     1     222.078 -72.648  -5.335  1.00  0.00     0.218 HD
ENDBRANCH  44  45
BRANCH  44  47
HETATM   47  C19 UNL     1     220.973 -71.106  -7.169  1.00  0.00     0.294 C 
HETATM   48  O2  UNL     1     220.893 -70.779  -8.378  1.00  0.00    -0.264 OA
HETATM   49  N7  UNL     1     219.816 -71.524  -6.501  1.00  0.00    -0.271 N 
ATOM     50  H7  UNL     1     219.882 -71.792  -5.519  1.00  0.00     0.189 HD
BRANCH  49  51
HETATM   51  N8  UNL     1     218.575 -71.587  -7.136  1.00  0.00    -0.342 N 
ATOM     52  H82 UNL     1     218.559 -71.780  -8.137  1.00  0.00     0.176 HD
ATOM     53  H81 UNL     1     217.699 -71.447  -6.631  1.00  0.00     0.176 HD
ENDBRANCH  49  51
ENDBRANCH  44  47
ENDBRANCH   5  44
BRANCH   8  54
HETATM   54  N10 UNL     1     225.608 -68.855  -9.137  1.00  0.00    -0.234 N 
ATOM     55 2H10 UNL     1     225.888 -69.770  -9.491  1.00  0.00     0.174 HD
ATOM     56 1H10 UNL     1     225.952 -68.001  -9.577  1.00  0.00     0.174 HD
ENDBRANCH   8  54
TORSDOF 13
ENDMDL
