MODEL 1
REMARK VINA RESULT: -6.145691577      0.000      0.000
REMARK  6 active torsions:
REMARK  status: ('A' for Active; 'I' for Inactive)
REMARK    1  A    between atoms: N1_1  and  C1_4 
REMARK    2  A    between atoms: C2_7  and  C3_8 
REMARK    3  A    between atoms: N3_9  and  C4_11 
REMARK    4  A    between atoms: C4_11  and  C5_12 
REMARK    5  A    between atoms: C5_12  and  N4_13 
REMARK    6  A    between atoms: C5_12  and  N5_17 
ROOT
HETATM    1  C3  UNL     1     -24.702  14.594  57.470  1.00  0.00     0.142 C 
HETATM    2  N3  UNL     1     -25.820  15.076  57.106  1.00  0.00    -0.392 N 
ATOM      3  H3  UNL     1     -25.911  15.308  56.117  1.00  0.00     0.159 HD
ENDROOT
BRANCH   2   4
HETATM    4  C4  UNL     1     -26.973  15.334  57.931  1.00  0.00     0.181 C 
BRANCH   4   5
HETATM    5  C5  UNL     1     -28.197  14.806  57.191  1.00  0.00     0.395 C 
BRANCH   5   6
HETATM    6  N4  UNL     1     -27.947  14.996  55.765  1.00  0.00    -0.049 N 
ATOM      7  H43 UNL     1     -27.926  15.978  55.488  1.00  0.00     0.276 HD
ATOM      8  H42 UNL     1     -26.992  14.764  55.491  1.00  0.00     0.276 HD
ATOM      9  H41 UNL     1     -28.650  14.452  55.265  1.00  0.00     0.276 HD
ENDBRANCH   5   6
BRANCH   5  10
HETATM   10  N5  UNL     1     -29.387  15.512  57.539  1.00  0.00    -0.049 N 
ATOM     11  H53 UNL     1     -29.339  15.866  58.494  1.00  0.00     0.276 HD
ATOM     12  H52 UNL     1     -29.449  16.399  57.039  1.00  0.00     0.276 HD
ATOM     13  H51 UNL     1     -30.226  14.950  57.396  1.00  0.00     0.276 HD
ENDBRANCH   5  10
ENDBRANCH   4   5
ENDBRANCH   2   4
BRANCH   1  14
HETATM   14  C2  UNL     1     -24.482  14.235  58.857  1.00  0.00     0.200 A 
HETATM   15  N2  UNL     1     -24.861  13.180  59.578  1.00  0.00    -0.166 N 
HETATM   16  C1  UNL     1     -24.416  13.284  60.844  1.00  0.00     0.698 A 
ATOM     17  H2  UNL     1     -25.413  12.401  59.218  1.00  0.00     0.186 HD
HETATM   18  N6  UNL     1     -23.744  14.448  60.880  1.00  0.00    -0.089 N 
HETATM   19  O1  UNL     1     -23.792  14.994  59.707  1.00  0.00    -0.203 OA
ATOM     20  H6  UNL     1     -23.274  14.838  61.698  1.00  0.00     0.213 HD
BRANCH  16  21
HETATM   21  N1  UNL     1     -24.590  12.454  61.818  1.00  0.00    -0.233 N 
ATOM     22  H12 UNL     1     -25.365  12.437  62.480  1.00  0.00     0.174 HD
ATOM     23  H11 UNL     1     -23.990  11.677  62.094  1.00  0.00     0.174 HD
ENDBRANCH  16  21
ENDBRANCH   1  14
TORSDOF 6
ENDMDL
MODEL 2
REMARK VINA RESULT: -5.371187484      1.749      4.837
REMARK  6 active torsions:
REMARK  status: ('A' for Active; 'I' for Inactive)
REMARK    1  A    between atoms: N1_1  and  C1_4 
REMARK    2  A    between atoms: C2_7  and  C3_8 
REMARK    3  A    between atoms: N3_9  and  C4_11 
REMARK    4  A    between atoms: C4_11  and  C5_12 
REMARK    5  A    between atoms: C5_12  and  N4_13 
REMARK    6  A    between atoms: C5_12  and  N5_17 
ROOT
HETATM    1  C3  UNL     1     -24.696  15.084  57.502  1.00  0.00     0.142 C 
HETATM    2  N3  UNL     1     -24.154  14.373  58.404  1.00  0.00    -0.392 N 
ATOM      3  H3  UNL     1     -23.136  14.416  58.463  1.00  0.00     0.159 HD
ENDROOT
BRANCH   2   4
HETATM    4  C4  UNL     1     -24.812  13.512  59.355  1.00  0.00     0.181 C 
BRANCH   4   5
HETATM    5  C5  UNL     1     -24.687  14.161  60.728  1.00  0.00     0.395 C 
BRANCH   5   6
HETATM    6  N4  UNL     1     -23.621  13.459  61.437  1.00  0.00    -0.049 N 
ATOM      7  H43 UNL     1     -23.949  12.630  61.935  1.00  0.00     0.276 HD
ATOM      8  H42 UNL     1     -22.969  12.985  60.812  1.00  0.00     0.276 HD
ATOM      9  H41 UNL     1     -23.170  14.140  62.046  1.00  0.00     0.276 HD
ENDBRANCH   5   6
BRANCH   5  10
HETATM   10  N5  UNL     1     -25.887  14.050  61.492  1.00  0.00    -0.049 N 
ATOM     11  H53 UNL     1     -25.853  14.645  62.320  1.00  0.00     0.276 HD
ATOM     12  H52 UNL     1     -26.672  14.488  61.009  1.00  0.00     0.276 HD
ATOM     13  H51 UNL     1     -26.100  13.085  61.741  1.00  0.00     0.276 HD
ENDBRANCH   5  10
ENDBRANCH   4   5
ENDBRANCH   2   4
BRANCH   1  14
HETATM   14  C2  UNL     1     -26.138  15.085  57.345  1.00  0.00     0.200 A 
HETATM   15  N2  UNL     1     -27.117  15.578  58.101  1.00  0.00    -0.166 N 
HETATM   16  C1  UNL     1     -28.318  15.334  57.543  1.00  0.00     0.698 A 
ATOM     17  H2  UNL     1     -26.977  16.073  58.982  1.00  0.00     0.186 HD
HETATM   18  N6  UNL     1     -28.043  14.667  56.408  1.00  0.00    -0.089 N 
HETATM   19  O1  UNL     1     -26.759  14.529  56.306  1.00  0.00    -0.203 OA
ATOM     20  H6  UNL     1     -28.732  14.326  55.737  1.00  0.00     0.213 HD
BRANCH  16  21
HETATM   21  N1  UNL     1     -29.484  15.662  57.991  1.00  0.00    -0.233 N 
ATOM     22  H12 UNL     1     -30.386  15.298  57.685  1.00  0.00     0.174 HD
ATOM     23  H11 UNL     1     -29.707  16.337  58.722  1.00  0.00     0.174 HD
ENDBRANCH  16  21
ENDBRANCH   1  14
TORSDOF 6
ENDMDL
MODEL 3
REMARK VINA RESULT: -5.340631843      0.689      1.170
REMARK  6 active torsions:
REMARK  status: ('A' for Active; 'I' for Inactive)
REMARK    1  A    between atoms: N1_1  and  C1_4 
REMARK    2  A    between atoms: C2_7  and  C3_8 
REMARK    3  A    between atoms: N3_9  and  C4_11 
REMARK    4  A    between atoms: C4_11  and  C5_12 
REMARK    5  A    between atoms: C5_12  and  N4_13 
REMARK    6  A    between atoms: C5_12  and  N5_17 
ROOT
HETATM    1  C3  UNL     1     -24.629  14.027  57.985  1.00  0.00     0.142 C 
HETATM    2  N3  UNL     1     -25.703  14.459  57.462  1.00  0.00    -0.392 N 
ATOM      3  H3  UNL     1     -25.750  14.438  56.443  1.00  0.00     0.159 HD
ENDROOT
BRANCH   2   4
HETATM    4  C4  UNL     1     -26.863  14.976  58.143  1.00  0.00     0.181 C 
BRANCH   4   5
HETATM    5  C5  UNL     1     -27.833  15.485  57.082  1.00  0.00     0.395 C 
BRANCH   5   6
HETATM    6  N4  UNL     1     -29.166  15.040  57.475  1.00  0.00    -0.049 N 
ATOM      7  H43 UNL     1     -29.272  14.025  57.456  1.00  0.00     0.276 HD
ATOM      8  H42 UNL     1     -29.357  15.170  58.469  1.00  0.00     0.276 HD
ATOM      9  H41 UNL     1     -29.831  15.524  56.872  1.00  0.00     0.276 HD
ENDBRANCH   5   6
BRANCH   5  10
HETATM   10  N5  UNL     1     -27.544  14.960  55.788  1.00  0.00    -0.049 N 
ATOM     11  H53 UNL     1     -27.795  13.973  55.726  1.00  0.00     0.276 HD
ATOM     12  H52 UNL     1     -28.183  15.335  55.087  1.00  0.00     0.276 HD
ATOM     13  H51 UNL     1     -26.572  15.109  55.517  1.00  0.00     0.276 HD
ENDBRANCH   5  10
ENDBRANCH   4   5
ENDBRANCH   2   4
BRANCH   1  14
HETATM   14  C2  UNL     1     -24.474  14.019  59.427  1.00  0.00     0.200 A 
HETATM   15  N2  UNL     1     -24.944  13.204  60.370  1.00  0.00    -0.166 N 
HETATM   16  C1  UNL     1     -24.530  13.600  61.589  1.00  0.00     0.698 A 
ATOM     17  H2  UNL     1     -25.535  12.392  60.193  1.00  0.00     0.186 HD
HETATM   18  N6  UNL     1     -23.784  14.695  61.363  1.00  0.00    -0.089 N 
HETATM   19  O1  UNL     1     -23.761  14.928  60.089  1.00  0.00    -0.203 OA
ATOM     20  H6  UNL     1     -23.313  15.251  62.077  1.00  0.00     0.213 HD
BRANCH  16  21
HETATM   21  N1  UNL     1     -24.788  13.054  62.731  1.00  0.00    -0.233 N 
ATOM     22  H12 UNL     1     -25.675  12.653  63.035  1.00  0.00     0.174 HD
ATOM     23  H11 UNL     1     -24.158  12.929  63.523  1.00  0.00     0.174 HD
ENDBRANCH  16  21
ENDBRANCH   1  14
TORSDOF 6
ENDMDL
MODEL 4
REMARK VINA RESULT: -5.336074195      2.801      4.081
REMARK  6 active torsions:
REMARK  status: ('A' for Active; 'I' for Inactive)
REMARK    1  A    between atoms: N1_1  and  C1_4 
REMARK    2  A    between atoms: C2_7  and  C3_8 
REMARK    3  A    between atoms: N3_9  and  C4_11 
REMARK    4  A    between atoms: C4_11  and  C5_12 
REMARK    5  A    between atoms: C5_12  and  N4_13 
REMARK    6  A    between atoms: C5_12  and  N5_17 
ROOT
HETATM    1  C3  UNL     1     -27.436  15.775  58.053  1.00  0.00     0.142 C 
HETATM    2  N3  UNL     1     -26.539  15.200  57.362  1.00  0.00    -0.392 N 
ATOM      3  H3  UNL     1     -26.246  15.681  56.511  1.00  0.00     0.159 HD
ENDROOT
BRANCH   2   4
HETATM    4  C4  UNL     1     -25.889  13.944  57.641  1.00  0.00     0.181 C 
BRANCH   4   5
HETATM    5  C5  UNL     1     -24.750  14.222  58.616  1.00  0.00     0.395 C 
BRANCH   5   6
HETATM    6  N4  UNL     1     -23.509  14.161  57.851  1.00  0.00    -0.049 N 
ATOM      7  H43 UNL     1     -23.230  13.208  57.613  1.00  0.00     0.276 HD
ATOM      8  H42 UNL     1     -23.608  14.509  56.897  1.00  0.00     0.276 HD
ATOM      9  H41 UNL     1     -22.803  14.663  58.389  1.00  0.00     0.276 HD
ENDBRANCH   5   6
BRANCH   5  10
HETATM   10  N5  UNL     1     -24.684  13.255  59.663  1.00  0.00    -0.049 N 
ATOM     11  H53 UNL     1     -25.304  13.504  60.434  1.00  0.00     0.276 HD
ATOM     12  H52 UNL     1     -25.120  12.377  59.381  1.00  0.00     0.276 HD
ATOM     13  H51 UNL     1     -23.731  13.104  59.992  1.00  0.00     0.276 HD
ENDBRANCH   5  10
ENDBRANCH   4   5
ENDBRANCH   2   4
BRANCH   1  14
HETATM   14  C2  UNL     1     -27.914  15.165  59.278  1.00  0.00     0.200 A 
HETATM   15  N2  UNL     1     -27.546  15.310  60.550  1.00  0.00    -0.166 N 
HETATM   16  C1  UNL     1     -28.287  14.523  61.353  1.00  0.00     0.698 A 
ATOM     17  H2  UNL     1     -26.804  15.932  60.872  1.00  0.00     0.186 HD
HETATM   18  N6  UNL     1     -29.131  13.882  60.525  1.00  0.00    -0.089 N 
HETATM   19  O1  UNL     1     -28.900  14.270  59.311  1.00  0.00    -0.203 OA
ATOM     20  H6  UNL     1     -29.838  13.203  60.808  1.00  0.00     0.213 HD
BRANCH  16  21
HETATM   21  N1  UNL     1     -28.211  14.402  62.636  1.00  0.00    -0.233 N 
ATOM     22  H12 UNL     1     -27.734  15.026  63.287  1.00  0.00     0.174 HD
ATOM     23  H11 UNL     1     -28.611  13.668  63.221  1.00  0.00     0.174 HD
ENDBRANCH  16  21
ENDBRANCH   1  14
TORSDOF 6
ENDMDL
MODEL 5
REMARK VINA RESULT: -5.246176173      1.482      2.081
REMARK  6 active torsions:
REMARK  status: ('A' for Active; 'I' for Inactive)
REMARK    1  A    between atoms: N1_1  and  C1_4 
REMARK    2  A    between atoms: C2_7  and  C3_8 
REMARK    3  A    between atoms: N3_9  and  C4_11 
REMARK    4  A    between atoms: C4_11  and  C5_12 
REMARK    5  A    between atoms: C5_12  and  N4_13 
REMARK    6  A    between atoms: C5_12  and  N5_17 
ROOT
HETATM    1  C3  UNL     1     -27.347  15.065  60.583  1.00  0.00     0.142 C 
HETATM    2  N3  UNL     1     -27.839  15.237  59.424  1.00  0.00    -0.392 N 
ATOM      3  H3  UNL     1     -28.789  15.607  59.386  1.00  0.00     0.159 HD
ENDROOT
BRANCH   2   4
HETATM    4  C4  UNL     1     -27.208  14.968  58.156  1.00  0.00     0.181 C 
BRANCH   4   5
HETATM    5  C5  UNL     1     -28.089  15.566  57.066  1.00  0.00     0.395 C 
BRANCH   5   6
HETATM    6  N4  UNL     1     -29.474  15.377  57.487  1.00  0.00    -0.049 N 
ATOM      7  H43 UNL     1     -30.046  16.215  57.373  1.00  0.00     0.276 HD
ATOM      8  H42 UNL     1     -30.005  14.772  56.860  1.00  0.00     0.276 HD
ATOM      9  H41 UNL     1     -29.449  15.035  58.447  1.00  0.00     0.276 HD
ENDBRANCH   5   6
BRANCH   5  10
HETATM   10  N5  UNL     1     -27.907  14.922  55.807  1.00  0.00    -0.049 N 
ATOM     11  H53 UNL     1     -28.667  14.270  55.613  1.00  0.00     0.276 HD
ATOM     12  H52 UNL     1     -28.051  15.574  55.036  1.00  0.00     0.276 HD
ATOM     13  H51 UNL     1     -27.000  14.461  55.734  1.00  0.00     0.276 HD
ENDBRANCH   5  10
ENDBRANCH   4   5
ENDBRANCH   2   4
BRANCH   1  14
HETATM   14  C2  UNL     1     -26.003  14.543  60.733  1.00  0.00     0.200 A 
HETATM   15  N2  UNL     1     -25.502  13.576  61.500  1.00  0.00    -0.166 N 
HETATM   16  C1  UNL     1     -24.178  13.445  61.297  1.00  0.00     0.698 A 
ATOM     17  H2  UNL     1     -26.048  13.012  62.153  1.00  0.00     0.186 HD
HETATM   18  N6  UNL     1     -23.877  14.372  60.371  1.00  0.00    -0.089 N 
HETATM   19  O1  UNL     1     -24.959  15.008  60.050  1.00  0.00    -0.203 OA
ATOM     20  H6  UNL     1     -22.949  14.546  59.984  1.00  0.00     0.213 HD
BRANCH  16  21
HETATM   21  N1  UNL     1     -23.366  12.615  61.862  1.00  0.00    -0.233 N 
ATOM     22  H12 UNL     1     -23.611  11.796  62.418  1.00  0.00     0.174 HD
ATOM     23  H11 UNL     1     -22.346  12.631  61.852  1.00  0.00     0.174 HD
ENDBRANCH  16  21
ENDBRANCH   1  14
TORSDOF 6
ENDMDL
