MODEL 1
REMARK VINA RESULT: -3.781943211      0.000      0.000
REMARK  6 active torsions:
REMARK  status: ('A' for Active; 'I' for Inactive)
REMARK    1  A    between atoms: N1_2  and  O1_4 
REMARK    2  A    between atoms: O1_4  and  C2_5 
REMARK    3  A    between atoms: C2_5  and  C3_6 
REMARK    4  A    between atoms: C3_6  and  N2_7 
REMARK    5  A    between atoms: C4_11  and  N3_12 
REMARK    6  A    between atoms: C5_16  and  O2_17 
ROOT
HETATM    1  C3  UNL     1      22.034  69.623  93.498  1.00  0.00     0.204 A 
HETATM    2  C4  UNL     1      22.476  69.089  94.814  1.00  0.00     0.255 A 
HETATM    3  C5  UNL     1      21.601  68.276  93.880  1.00  0.00     0.191 A 
ENDROOT
BRANCH   1   4
HETATM    4  C2  UNL     1      21.016  70.767  93.608  1.00  0.00     0.244 C 
BRANCH   4   5
HETATM    5  O1  UNL     1      19.789  70.183  93.787  1.00  0.00    -0.283 OA
BRANCH   5   6
HETATM    6  N1  UNL     1      18.899  70.885  94.459  1.00  0.00    -0.307 N 
HETATM    7  C1  UNL     1      18.129  70.179  95.417  1.00  0.00     0.175 C 
ATOM      8  H1  UNL     1      18.772  71.885  94.299  1.00  0.00     0.186 HD
ENDBRANCH   5   6
ENDBRANCH   4   5
ENDBRANCH   1   4
BRANCH   1   9
HETATM    9  N2  UNL     1      22.994  69.807  92.448  1.00  0.00    -0.063 N 
ATOM     10  H23 UNL     1      22.526  69.941  91.551  1.00  0.00     0.275 HD
ATOM     11  H22 UNL     1      23.455  70.712  92.536  1.00  0.00     0.275 HD
ATOM     12  H21 UNL     1      23.681  69.057  92.387  1.00  0.00     0.275 HD
ENDBRANCH   1   9
BRANCH   2  13
HETATM   13  N3  UNL     1      21.829  69.501  96.036  1.00  0.00    -0.070 N 
ATOM     14  H33 UNL     1      21.242  68.733  96.359  1.00  0.00     0.274 HD
ATOM     15  H32 UNL     1      22.536  69.546  96.769  1.00  0.00     0.274 HD
ATOM     16  H31 UNL     1      21.279  70.359  96.073  1.00  0.00     0.274 HD
ENDBRANCH   2  13
BRANCH   3  17
HETATM   17  O2  UNL     1      22.228  67.152  93.356  1.00  0.00    -0.391 OA
ATOM     18  H2  UNL     1      22.883  66.683  93.859  1.00  0.00     0.210 HD
ENDBRANCH   3  17
TORSDOF 6
ENDMDL
MODEL 2
REMARK VINA RESULT: -3.777967187      1.788      2.086
REMARK  6 active torsions:
REMARK  status: ('A' for Active; 'I' for Inactive)
REMARK    1  A    between atoms: N1_2  and  O1_4 
REMARK    2  A    between atoms: O1_4  and  C2_5 
REMARK    3  A    between atoms: C2_5  and  C3_6 
REMARK    4  A    between atoms: C3_6  and  N2_7 
REMARK    5  A    between atoms: C4_11  and  N3_12 
REMARK    6  A    between atoms: C5_16  and  O2_17 
ROOT
HETATM    1  C3  UNL     1      21.505  68.907  95.391  1.00  0.00     0.204 A 
HETATM    2  C4  UNL     1      21.323  68.578  96.830  1.00  0.00     0.255 A 
HETATM    3  C5  UNL     1      22.062  67.647  95.890  1.00  0.00     0.191 A 
ENDROOT
BRANCH   1   4
HETATM    4  C2  UNL     1      20.204  68.849  94.577  1.00  0.00     0.244 C 
BRANCH   4   5
HETATM    5  O1  UNL     1      20.013  70.102  94.054  1.00  0.00    -0.283 OA
BRANCH   5   6
HETATM    6  N1  UNL     1      18.931  70.741  94.449  1.00  0.00    -0.307 N 
HETATM    7  C1  UNL     1      17.972  69.981  95.164  1.00  0.00     0.175 C 
ATOM      8  H1  UNL     1      18.790  71.732  94.250  1.00  0.00     0.186 HD
ENDBRANCH   5   6
ENDBRANCH   4   5
ENDBRANCH   1   4
BRANCH   1   9
HETATM    9  N2  UNL     1      22.371  69.986  95.013  1.00  0.00    -0.063 N 
ATOM     10  H23 UNL     1      22.019  70.457  94.180  1.00  0.00     0.275 HD
ATOM     11  H22 UNL     1      22.306  70.752  95.683  1.00  0.00     0.275 HD
ATOM     12  H21 UNL     1      23.342  69.703  94.883  1.00  0.00     0.275 HD
ENDBRANCH   1   9
BRANCH   2  13
HETATM   13  N3  UNL     1      20.067  68.064  97.319  1.00  0.00    -0.070 N 
ATOM     14  H33 UNL     1      19.343  68.292  96.638  1.00  0.00     0.274 HD
ATOM     15  H32 UNL     1      20.096  67.047  97.260  1.00  0.00     0.274 HD
ATOM     16  H31 UNL     1      19.722  68.318  98.245  1.00  0.00     0.274 HD
ENDBRANCH   2  13
BRANCH   3  17
HETATM   17  O2  UNL     1      23.419  67.529  96.166  1.00  0.00    -0.391 OA
ATOM     18  H2  UNL     1      23.831  66.676  96.224  1.00  0.00     0.210 HD
ENDBRANCH   3  17
TORSDOF 6
ENDMDL
MODEL 3
REMARK VINA RESULT: -3.766437795      2.052      4.383
REMARK  6 active torsions:
REMARK  status: ('A' for Active; 'I' for Inactive)
REMARK    1  A    between atoms: N1_2  and  O1_4 
REMARK    2  A    between atoms: O1_4  and  C2_5 
REMARK    3  A    between atoms: C2_5  and  C3_6 
REMARK    4  A    between atoms: C3_6  and  N2_7 
REMARK    5  A    between atoms: C4_11  and  N3_12 
REMARK    6  A    between atoms: C5_16  and  O2_17 
ROOT
HETATM    1  C3  UNL     1      22.166  69.396  94.655  1.00  0.00     0.204 A 
HETATM    2  C4  UNL     1      21.981  70.670  93.911  1.00  0.00     0.255 A 
HETATM    3  C5  UNL     1      20.914  69.594  93.919  1.00  0.00     0.191 A 
ENDROOT
BRANCH   1   4
HETATM    4  C2  UNL     1      23.226  68.471  94.039  1.00  0.00     0.244 C 
BRANCH   4   5
HETATM    5  O1  UNL     1      24.436  69.092  94.214  1.00  0.00    -0.283 OA
BRANCH   5   6
HETATM    6  N1  UNL     1      25.337  68.893  93.274  1.00  0.00    -0.307 N 
HETATM    7  C1  UNL     1      24.928  68.115  92.161  1.00  0.00     0.175 C 
ATOM      8  H1  UNL     1      26.279  69.279  93.342  1.00  0.00     0.186 HD
ENDBRANCH   5   6
ENDBRANCH   4   5
ENDBRANCH   1   4
BRANCH   1   9
HETATM    9  N2  UNL     1      22.175  69.405  96.089  1.00  0.00    -0.063 N 
ATOM     10  H23 UNL     1      21.288  69.062  96.457  1.00  0.00     0.275 HD
ATOM     11  H22 UNL     1      22.799  68.685  96.450  1.00  0.00     0.275 HD
ATOM     12  H21 UNL     1      22.403  70.314  96.490  1.00  0.00     0.275 HD
ENDBRANCH   1   9
BRANCH   2  13
HETATM   13  N3  UNL     1      22.614  70.879  92.631  1.00  0.00    -0.070 N 
ATOM     14  H33 UNL     1      23.332  70.166  92.512  1.00  0.00     0.274 HD
ATOM     15  H32 UNL     1      21.946  70.627  91.903  1.00  0.00     0.274 HD
ATOM     16  H31 UNL     1      23.021  71.783  92.390  1.00  0.00     0.274 HD
ENDBRANCH   2  13
BRANCH   3  17
HETATM   17  O2  UNL     1      19.749  69.961  94.583  1.00  0.00    -0.391 OA
ATOM     18  H2  UNL     1      19.655  70.830  94.954  1.00  0.00     0.210 HD
ENDBRANCH   3  17
TORSDOF 6
ENDMDL
MODEL 4
REMARK VINA RESULT: -3.759970285      3.690      5.176
REMARK  6 active torsions:
REMARK  status: ('A' for Active; 'I' for Inactive)
REMARK    1  A    between atoms: N1_2  and  O1_4 
REMARK    2  A    between atoms: O1_4  and  C2_5 
REMARK    3  A    between atoms: C2_5  and  C3_6 
REMARK    4  A    between atoms: C3_6  and  N2_7 
REMARK    5  A    between atoms: C4_11  and  N3_12 
REMARK    6  A    between atoms: C5_16  and  O2_17 
ROOT
HETATM    1  C3  UNL     1      21.816  67.227  96.518  1.00  0.00     0.204 A 
HETATM    2  C4  UNL     1      23.131  67.310  95.828  1.00  0.00     0.255 A 
HETATM    3  C5  UNL     1      22.011  68.286  95.524  1.00  0.00     0.191 A 
ENDROOT
BRANCH   1   4
HETATM    4  C2  UNL     1      20.984  66.002  96.114  1.00  0.00     0.244 C 
BRANCH   4   5
HETATM    5  O1  UNL     1      21.434  64.954  96.876  1.00  0.00    -0.283 OA
BRANCH   5   6
HETATM    6  N1  UNL     1      21.572  63.799  96.258  1.00  0.00    -0.307 N 
HETATM    7  C1  UNL     1      20.399  63.240  95.690  1.00  0.00     0.175 C 
ATOM      8  H1  UNL     1      22.476  63.331  96.191  1.00  0.00     0.186 HD
ENDBRANCH   5   6
ENDBRANCH   4   5
ENDBRANCH   1   4
BRANCH   1   9
HETATM    9  N2  UNL     1      21.725  67.548  97.913  1.00  0.00    -0.063 N 
ATOM     10  H23 UNL     1      22.596  67.321  98.393  1.00  0.00     0.275 HD
ATOM     11  H22 UNL     1      21.714  68.558  98.050  1.00  0.00     0.275 HD
ATOM     12  H21 UNL     1      20.931  67.112  98.382  1.00  0.00     0.275 HD
ENDBRANCH   1   9
BRANCH   2  13
HETATM   13  N3  UNL     1      23.457  66.414  94.745  1.00  0.00    -0.070 N 
ATOM     14  H33 UNL     1      23.881  65.576  95.143  1.00  0.00     0.274 HD
ATOM     15  H32 UNL     1      22.585  66.046  94.365  1.00  0.00     0.274 HD
ATOM     16  H31 UNL     1      24.037  66.724  93.966  1.00  0.00     0.274 HD
ENDBRANCH   2  13
BRANCH   3  17
HETATM   17  O2  UNL     1      22.280  69.591  95.918  1.00  0.00    -0.391 OA
ATOM     18  H2  UNL     1      23.173  69.911  95.965  1.00  0.00     0.210 HD
ENDBRANCH   3  17
TORSDOF 6
ENDMDL
MODEL 5
REMARK VINA RESULT: -3.756445177      2.312      4.604
REMARK  6 active torsions:
REMARK  status: ('A' for Active; 'I' for Inactive)
REMARK    1  A    between atoms: N1_2  and  O1_4 
REMARK    2  A    between atoms: O1_4  and  C2_5 
REMARK    3  A    between atoms: C2_5  and  C3_6 
REMARK    4  A    between atoms: C3_6  and  N2_7 
REMARK    5  A    between atoms: C4_11  and  N3_12 
REMARK    6  A    between atoms: C5_16  and  O2_17 
ROOT
HETATM    1  C3  UNL     1      17.900  69.670  95.259  1.00  0.00     0.204 A 
HETATM    2  C4  UNL     1      17.893  69.679  96.746  1.00  0.00     0.255 A 
HETATM    3  C5  UNL     1      17.511  70.907  95.943  1.00  0.00     0.191 A 
ENDROOT
BRANCH   1   4
HETATM    4  C2  UNL     1      19.307  69.594  94.650  1.00  0.00     0.244 C 
BRANCH   4   5
HETATM    5  O1  UNL     1      19.453  70.705  93.861  1.00  0.00    -0.283 OA
BRANCH   5   6
HETATM    6  N1  UNL     1      20.664  71.219  93.792  1.00  0.00    -0.307 N 
HETATM    7  C1  UNL     1      21.706  70.335  93.415  1.00  0.00     0.175 C 
ATOM      8  H1  UNL     1      20.843  72.202  93.999  1.00  0.00     0.186 HD
ENDBRANCH   5   6
ENDBRANCH   4   5
ENDBRANCH   1   4
BRANCH   1   9
HETATM    9  N2  UNL     1      16.924  68.895  94.549  1.00  0.00    -0.063 N 
ATOM     10  H23 UNL     1      16.336  68.373  95.199  1.00  0.00     0.275 HD
ATOM     11  H22 UNL     1      16.218  69.501  94.131  1.00  0.00     0.275 HD
ATOM     12  H21 UNL     1      17.327  68.274  93.848  1.00  0.00     0.275 HD
ENDBRANCH   1   9
BRANCH   2  13
HETATM   13  N3  UNL     1      19.121  69.807  97.492  1.00  0.00    -0.070 N 
ATOM     14  H33 UNL     1      19.171  70.757  97.861  1.00  0.00     0.274 HD
ATOM     15  H32 UNL     1      19.033  69.256  98.345  1.00  0.00     0.274 HD
ATOM     16  H31 UNL     1      20.020  69.586  97.063  1.00  0.00     0.274 HD
ENDBRANCH   2  13
BRANCH   3  17
HETATM   17  O2  UNL     1      16.173  71.263  96.062  1.00  0.00    -0.391 OA
ATOM     18  H2  UNL     1      15.489  70.605  96.022  1.00  0.00     0.210 HD
ENDBRANCH   3  17
TORSDOF 6
ENDMDL
