MODEL 1
REMARK VINA RESULT: -6.607611369      0.000      0.000
REMARK  8 active torsions:
REMARK  status: ('A' for Active; 'I' for Inactive)
REMARK    1  A    between atoms: C6_6  and  C7_7 
REMARK    2  A    between atoms: C7_7  and  N2_11 
REMARK    3  A    between atoms: N2_11  and  C8_13 
REMARK    4  A    between atoms: C8_13  and  C9_14 
REMARK    5  A    between atoms: C9_14  and  N3_15 
REMARK    6  A    between atoms: C9_14  and  C10_19 
REMARK    7  A    between atoms: C10_19  and  N4_20 
REMARK    8  A    between atoms: C10_19  and  C11_24 
ROOT
HETATM    1  N2  UNL     1      31.799  12.243  -6.559  1.00  0.00    -0.374 N 
ATOM      2  H2  UNL     1      31.173  12.756  -5.938  1.00  0.00     0.161 HD
ENDROOT
BRANCH   1   3
HETATM    3  C7  UNL     1      32.308  12.930  -7.756  1.00  0.00     0.105 C 
HETATM    4  N1  UNL     1      33.456  12.713  -8.007  1.00  0.00    -0.385 N 
ATOM      5  H12 UNL     1      33.809  13.189  -8.838  1.00  0.00     0.157 HD
ATOM      6  H11 UNL     1      34.109  12.103  -7.514  1.00  0.00     0.157 HD
BRANCH   3   7
HETATM    7  C6  UNL     1      31.373  13.803  -8.464  1.00  0.00     0.017 A 
HETATM    8  C5  UNL     1      31.464  15.187  -8.240  1.00  0.00     0.016 A 
HETATM    9  C4  UNL     1      30.621  16.121  -8.780  1.00  0.00     0.002 A 
HETATM   10  C3  UNL     1      29.620  15.680  -9.593  1.00  0.00     0.011 A 
HETATM   11  C2  UNL     1      29.483  14.313  -9.852  1.00  0.00    -0.035 A 
HETATM   12  C1  UNL     1      28.496  13.983 -10.640  1.00  0.00     0.024 C 
HETATM   13  C12 UNL     1      30.358  13.366  -9.287  1.00  0.00    -0.022 A 
HETATM   14  C13 UNL     1      30.205  12.101  -9.611  1.00  0.00     0.025 C 
ENDBRANCH   3   7
ENDBRANCH   1   3
BRANCH   1  15
HETATM   15  C8  UNL     1      32.136  10.894  -6.221  1.00  0.00     0.156 C 
BRANCH  15  16
HETATM   16  C9  UNL     1      32.773  10.729  -4.900  1.00  0.00     0.238 C 
BRANCH  16  17
HETATM   17  N3  UNL     1      32.188  11.541  -3.861  1.00  0.00    -0.071 N 
ATOM     18  H33 UNL     1      31.561  12.238  -4.263  1.00  0.00     0.274 HD
ATOM     19  H32 UNL     1      31.518  10.998  -3.317  1.00  0.00     0.274 HD
ATOM     20  H31 UNL     1      32.871  11.985  -3.247  1.00  0.00     0.274 HD
ENDBRANCH  16  17
BRANCH  16  21
HETATM   21  C10 UNL     1      34.283  10.867  -4.908  1.00  0.00     0.276 C 
BRANCH  21  22
HETATM   22  N4  UNL     1      34.987   9.847  -4.219  1.00  0.00    -0.067 N 
ATOM     23  H43 UNL     1      35.080   9.022  -4.812  1.00  0.00     0.275 HD
ATOM     24  H42 UNL     1      35.967  10.106  -4.116  1.00  0.00     0.275 HD
ATOM     25  H41 UNL     1      34.596   9.584  -3.313  1.00  0.00     0.275 HD
ENDBRANCH  21  22
BRANCH  21  26
HETATM   26  C11 UNL     1      34.692  12.191  -4.378  1.00  0.00     0.266 C 
HETATM   27  O1  UNL     1      34.482  13.182  -5.034  1.00  0.00    -0.305 OA
ENDBRANCH  21  26
ENDBRANCH  16  21
ENDBRANCH  15  16
ENDBRANCH   1  15
TORSDOF 8
ENDMDL
MODEL 2
REMARK VINA RESULT: -6.530880273      2.903      6.602
REMARK  8 active torsions:
REMARK  status: ('A' for Active; 'I' for Inactive)
REMARK    1  A    between atoms: C6_6  and  C7_7 
REMARK    2  A    between atoms: C7_7  and  N2_11 
REMARK    3  A    between atoms: N2_11  and  C8_13 
REMARK    4  A    between atoms: C8_13  and  C9_14 
REMARK    5  A    between atoms: C9_14  and  N3_15 
REMARK    6  A    between atoms: C9_14  and  C10_19 
REMARK    7  A    between atoms: C10_19  and  N4_20 
REMARK    8  A    between atoms: C10_19  and  C11_24 
ROOT
HETATM    1  N2  UNL     1      31.320  13.053  -8.436  1.00  0.00    -0.374 N 
ATOM      2  H2  UNL     1      31.533  12.418  -9.206  1.00  0.00     0.161 HD
ENDROOT
BRANCH   1   3
HETATM    3  C7  UNL     1      32.325  13.223  -7.375  1.00  0.00     0.105 C 
HETATM    4  N1  UNL     1      32.932  14.252  -7.420  1.00  0.00    -0.385 N 
ATOM      5  H12 UNL     1      33.628  14.370  -6.684  1.00  0.00     0.157 HD
ATOM      6  H11 UNL     1      32.825  15.022  -8.081  1.00  0.00     0.157 HD
BRANCH   3   7
HETATM    7  C6  UNL     1      32.478  12.120  -6.428  1.00  0.00     0.017 A 
HETATM    8  C5  UNL     1      31.360  11.744  -5.665  1.00  0.00     0.016 A 
HETATM    9  C4  UNL     1      31.366  10.775  -4.698  1.00  0.00     0.002 A 
HETATM   10  C3  UNL     1      32.540  10.126  -4.456  1.00  0.00     0.011 A 
HETATM   11  C2  UNL     1      33.684  10.458  -5.186  1.00  0.00    -0.035 A 
HETATM   12  C1  UNL     1      34.763   9.787  -4.884  1.00  0.00     0.024 C 
HETATM   13  C12 UNL     1      33.661  11.459  -6.176  1.00  0.00    -0.022 A 
HETATM   14  C13 UNL     1      34.759  11.687  -6.861  1.00  0.00     0.025 C 
ENDBRANCH   3   7
ENDBRANCH   1   3
BRANCH   1  15
HETATM   15  C8  UNL     1      30.060  13.731  -8.444  1.00  0.00     0.156 C 
BRANCH  15  16
HETATM   16  C9  UNL     1      29.791  14.517  -9.664  1.00  0.00     0.238 C 
BRANCH  16  17
HETATM   17  N3  UNL     1      29.744  15.942  -9.445  1.00  0.00    -0.071 N 
ATOM     18  H33 UNL     1      28.888  16.201  -8.955  1.00  0.00     0.274 HD
ATOM     19  H32 UNL     1      30.434  16.220  -8.747  1.00  0.00     0.274 HD
ATOM     20  H31 UNL     1      29.851  16.496 -10.295  1.00  0.00     0.274 HD
ENDBRANCH  16  17
BRANCH  16  21
HETATM   21  C10 UNL     1      28.587  14.052 -10.459  1.00  0.00     0.276 C 
BRANCH  21  22
HETATM   22  N4  UNL     1      27.723  13.155  -9.782  1.00  0.00    -0.067 N 
ATOM     23  H43 UNL     1      27.407  12.423 -10.419  1.00  0.00     0.275 HD
ATOM     24  H42 UNL     1      28.254  12.595  -9.115  1.00  0.00     0.275 HD
ATOM     25  H41 UNL     1      26.923  13.586  -9.319  1.00  0.00     0.275 HD
ENDBRANCH  21  22
BRANCH  21  26
HETATM   26  C11 UNL     1      29.011  13.449 -11.748  1.00  0.00     0.266 C 
HETATM   27  O1  UNL     1      30.152  13.079 -11.881  1.00  0.00    -0.305 OA
ENDBRANCH  21  26
ENDBRANCH  16  21
ENDBRANCH  15  16
ENDBRANCH   1  15
TORSDOF 8
ENDMDL
MODEL 3
REMARK VINA RESULT: -6.520294813      2.702      6.504
REMARK  8 active torsions:
REMARK  status: ('A' for Active; 'I' for Inactive)
REMARK    1  A    between atoms: C6_6  and  C7_7 
REMARK    2  A    between atoms: C7_7  and  N2_11 
REMARK    3  A    between atoms: N2_11  and  C8_13 
REMARK    4  A    between atoms: C8_13  and  C9_14 
REMARK    5  A    between atoms: C9_14  and  N3_15 
REMARK    6  A    between atoms: C9_14  and  C10_19 
REMARK    7  A    between atoms: C10_19  and  N4_20 
REMARK    8  A    between atoms: C10_19  and  C11_24 
ROOT
HETATM    1  N2  UNL     1      32.240  13.330  -7.688  1.00  0.00    -0.374 N 
ATOM      2  H2  UNL     1      32.755  12.808  -8.398  1.00  0.00     0.161 HD
ENDROOT
BRANCH   1   3
HETATM    3  C7  UNL     1      31.985  12.678  -6.394  1.00  0.00     0.105 C 
HETATM    4  N1  UNL     1      30.836  12.642  -6.070  1.00  0.00    -0.385 N 
ATOM      5  H12 UNL     1      30.659  12.190  -5.173  1.00  0.00     0.157 HD
ATOM      6  H11 UNL     1      30.022  12.982  -6.582  1.00  0.00     0.157 HD
BRANCH   3   7
HETATM    7  C6  UNL     1      33.151  12.190  -5.660  1.00  0.00     0.017 A 
HETATM    8  C5  UNL     1      34.029  13.139  -5.107  1.00  0.00     0.016 A 
HETATM    9  C4  UNL     1      35.190  12.836  -4.449  1.00  0.00     0.002 A 
HETATM   10  C3  UNL     1      35.523  11.521  -4.320  1.00  0.00     0.011 A 
HETATM   11  C2  UNL     1      34.687  10.534  -4.850  1.00  0.00    -0.035 A 
HETATM   12  C1  UNL     1      35.088   9.303  -4.681  1.00  0.00     0.024 C 
HETATM   13  C12 UNL     1      33.497  10.863  -5.525  1.00  0.00    -0.022 A 
HETATM   14  C13 UNL     1      32.730   9.885  -5.955  1.00  0.00     0.025 C 
ENDBRANCH   3   7
ENDBRANCH   1   3
BRANCH   1  15
HETATM   15  C8  UNL     1      31.804  14.656  -8.003  1.00  0.00     0.156 C 
BRANCH  15  16
HETATM   16  C9  UNL     1      30.938  14.754  -9.194  1.00  0.00     0.238 C 
BRANCH  16  17
HETATM   17  N3  UNL     1      30.109  15.934  -9.221  1.00  0.00    -0.071 N 
ATOM     18  H33 UNL     1      30.392  16.587  -8.490  1.00  0.00     0.274 HD
ATOM     19  H32 UNL     1      30.315  16.497 -10.046  1.00  0.00     0.274 HD
ATOM     20  H31 UNL     1      29.110  15.740  -9.161  1.00  0.00     0.274 HD
ENDBRANCH  16  17
BRANCH  16  21
HETATM   21  C10 UNL     1      30.120  13.510  -9.482  1.00  0.00     0.276 C 
BRANCH  21  22
HETATM   22  N4  UNL     1      30.257  12.986 -10.792  1.00  0.00    -0.067 N 
ATOM     23  H43 UNL     1      31.156  13.262 -11.188  1.00  0.00     0.275 HD
ATOM     24  H42 UNL     1      30.379  11.975 -10.754  1.00  0.00     0.275 HD
ATOM     25  H41 UNL     1      29.502  13.224 -11.437  1.00  0.00     0.275 HD
ENDBRANCH  21  22
BRANCH  21  26
HETATM   26  C11 UNL     1      28.684  13.750  -9.195  1.00  0.00     0.266 C 
HETATM   27  O1  UNL     1      27.933  14.004 -10.105  1.00  0.00    -0.305 OA
ENDBRANCH  21  26
ENDBRANCH  16  21
ENDBRANCH  15  16
ENDBRANCH   1  15
TORSDOF 8
ENDMDL
MODEL 4
REMARK VINA RESULT: -6.459223762      1.160      1.306
REMARK  8 active torsions:
REMARK  status: ('A' for Active; 'I' for Inactive)
REMARK    1  A    between atoms: C6_6  and  C7_7 
REMARK    2  A    between atoms: C7_7  and  N2_11 
REMARK    3  A    between atoms: N2_11  and  C8_13 
REMARK    4  A    between atoms: C8_13  and  C9_14 
REMARK    5  A    between atoms: C9_14  and  N3_15 
REMARK    6  A    between atoms: C9_14  and  C10_19 
REMARK    7  A    between atoms: C10_19  and  N4_20 
REMARK    8  A    between atoms: C10_19  and  C11_24 
ROOT
HETATM    1  N2  UNL     1      31.867  12.005  -6.720  1.00  0.00    -0.374 N 
ATOM      2  H2  UNL     1      31.269  11.213  -6.957  1.00  0.00     0.161 HD
ENDROOT
BRANCH   1   3
HETATM    3  C7  UNL     1      32.404  12.826  -7.817  1.00  0.00     0.105 C 
HETATM    4  N1  UNL     1      33.565  12.662  -8.043  1.00  0.00    -0.385 N 
ATOM      5  H12 UNL     1      33.937  13.231  -8.804  1.00  0.00     0.157 HD
ATOM      6  H11 UNL     1      34.214  12.018  -7.590  1.00  0.00     0.157 HD
BRANCH   3   7
HETATM    7  C6  UNL     1      31.474  13.748  -8.466  1.00  0.00     0.017 A 
HETATM    8  C5  UNL     1      31.598  15.120  -8.185  1.00  0.00     0.016 A 
HETATM    9  C4  UNL     1      30.765  16.093  -8.666  1.00  0.00     0.002 A 
HETATM   10  C3  UNL     1      29.740  15.709  -9.477  1.00  0.00     0.011 A 
HETATM   11  C2  UNL     1      29.568  14.358  -9.791  1.00  0.00    -0.035 A 
HETATM   12  C1  UNL     1      28.558  14.082 -10.572  1.00  0.00     0.024 C 
HETATM   13  C12 UNL     1      30.433  13.369  -9.286  1.00  0.00    -0.022 A 
HETATM   14  C13 UNL     1      30.247  12.123  -9.662  1.00  0.00     0.025 C 
ENDBRANCH   3   7
ENDBRANCH   1   3
BRANCH   1  15
HETATM   15  C8  UNL     1      32.140  12.260  -5.339  1.00  0.00     0.156 C 
BRANCH  15  16
HETATM   16  C9  UNL     1      33.246  11.465  -4.772  1.00  0.00     0.238 C 
BRANCH  16  17
HETATM   17  N3  UNL     1      32.825  10.479  -3.806  1.00  0.00    -0.071 N 
ATOM     18  H33 UNL     1      32.732  10.900  -2.882  1.00  0.00     0.274 HD
ATOM     19  H32 UNL     1      31.856  10.207  -3.972  1.00  0.00     0.274 HD
ATOM     20  H31 UNL     1      33.426   9.656  -3.765  1.00  0.00     0.274 HD
ENDBRANCH  16  17
BRANCH  16  21
HETATM   21  C10 UNL     1      34.403  12.286  -4.237  1.00  0.00     0.276 C 
BRANCH  21  22
HETATM   22  N4  UNL     1      34.514  13.594  -4.772  1.00  0.00    -0.067 N 
ATOM     23  H43 UNL     1      34.055  13.642  -5.682  1.00  0.00     0.275 HD
ATOM     24  H42 UNL     1      33.928  14.240  -4.242  1.00  0.00     0.275 HD
ATOM     25  H41 UNL     1      35.465  13.958  -4.839  1.00  0.00     0.275 HD
ENDBRANCH  21  22
BRANCH  21  26
HETATM   26  C11 UNL     1      35.688  11.567  -4.425  1.00  0.00     0.266 C 
HETATM   27  O1  UNL     1      36.720  12.105  -4.105  1.00  0.00    -0.305 OA
ENDBRANCH  21  26
ENDBRANCH  16  21
ENDBRANCH  15  16
ENDBRANCH   1  15
TORSDOF 8
ENDMDL
MODEL 5
REMARK VINA RESULT: -6.334806330      3.090      6.578
REMARK  8 active torsions:
REMARK  status: ('A' for Active; 'I' for Inactive)
REMARK    1  A    between atoms: C6_6  and  C7_7 
REMARK    2  A    between atoms: C7_7  and  N2_11 
REMARK    3  A    between atoms: N2_11  and  C8_13 
REMARK    4  A    between atoms: C8_13  and  C9_14 
REMARK    5  A    between atoms: C9_14  and  N3_15 
REMARK    6  A    between atoms: C9_14  and  C10_19 
REMARK    7  A    between atoms: C10_19  and  N4_20 
REMARK    8  A    between atoms: C10_19  and  C11_24 
ROOT
HETATM    1  N2  UNL     1      31.431  12.904  -8.560  1.00  0.00    -0.374 N 
ATOM      2  H2  UNL     1      31.115  11.947  -8.720  1.00  0.00     0.161 HD
ENDROOT
BRANCH   1   3
HETATM    3  C7  UNL     1      32.315  13.164  -7.414  1.00  0.00     0.105 C 
HETATM    4  N1  UNL     1      32.840  14.237  -7.419  1.00  0.00    -0.385 N 
ATOM      5  H12 UNL     1      33.453  14.417  -6.624  1.00  0.00     0.157 HD
ATOM      6  H11 UNL     1      32.735  14.991  -8.099  1.00  0.00     0.157 HD
BRANCH   3   7
HETATM    7  C6  UNL     1      32.466  12.085  -6.439  1.00  0.00     0.017 A 
HETATM    8  C5  UNL     1      31.341  11.713  -5.684  1.00  0.00     0.016 A 
HETATM    9  C4  UNL     1      31.343  10.768  -4.695  1.00  0.00     0.002 A 
HETATM   10  C3  UNL     1      32.520  10.138  -4.419  1.00  0.00     0.011 A 
HETATM   11  C2  UNL     1      33.671  10.467  -5.140  1.00  0.00    -0.035 A 
HETATM   12  C1  UNL     1      34.753   9.815  -4.806  1.00  0.00     0.024 C 
HETATM   13  C12 UNL     1      33.652  11.444  -6.153  1.00  0.00    -0.022 A 
HETATM   14  C13 UNL     1      34.758  11.669  -6.827  1.00  0.00     0.025 C 
ENDBRANCH   3   7
ENDBRANCH   1   3
BRANCH   1  15
HETATM   15  C8  UNL     1      30.991  13.923  -9.464  1.00  0.00     0.156 C 
BRANCH  15  16
HETATM   16  C9  UNL     1      29.548  13.893  -9.771  1.00  0.00     0.238 C 
BRANCH  16  17
HETATM   17  N3  UNL     1      28.699  14.137  -8.630  1.00  0.00    -0.071 N 
ATOM     18  H33 UNL     1      29.078  13.681  -7.800  1.00  0.00     0.274 HD
ATOM     19  H32 UNL     1      28.764  15.111  -8.338  1.00  0.00     0.274 HD
ATOM     20  H31 UNL     1      27.726  13.869  -8.773  1.00  0.00     0.274 HD
ENDBRANCH  16  17
BRANCH  16  21
HETATM   21  C10 UNL     1      29.092  12.664 -10.533  1.00  0.00     0.276 C 
BRANCH  21  22
HETATM   22  N4  UNL     1      29.760  12.431 -11.761  1.00  0.00    -0.067 N 
ATOM     23  H43 UNL     1      29.094  12.122 -12.470  1.00  0.00     0.275 HD
ATOM     24  H42 UNL     1      30.061  13.315 -12.170  1.00  0.00     0.275 HD
ATOM     25  H41 UNL     1      30.546  11.782 -11.713  1.00  0.00     0.275 HD
ENDBRANCH  21  22
BRANCH  21  26
HETATM   26  C11 UNL     1      27.627  12.708 -10.770  1.00  0.00     0.266 C 
HETATM   27  O1  UNL     1      26.889  12.102 -10.032  1.00  0.00    -0.305 OA
ENDBRANCH  21  26
ENDBRANCH  16  21
ENDBRANCH  15  16
ENDBRANCH   1  15
TORSDOF 8
ENDMDL
