MODEL 1
REMARK VINA RESULT: -6.769635689      0.000      0.000
REMARK  7 active torsions:
REMARK  status: ('A' for Active; 'I' for Inactive)
REMARK    1  A    between atoms: C2_2  and  C3_3 
REMARK    2  A    between atoms: C3_3  and  C4_4 
REMARK    3  A    between atoms: C4_4  and  N1_5 
REMARK    4  A    between atoms: N5_24  and  C14_25 
REMARK    5  A    between atoms: C14_25  and  C15_26 
REMARK    6  A    between atoms: C16_27  and  C17_28 
REMARK    7  A    between atoms: C17_28  and  O1_30 
ROOT
HETATM    1  C17 UNL     1       2.363  -7.610  31.519  1.00  0.00     0.207 C 
HETATM    2  C18 UNL     1       1.934  -9.034  31.791  1.00  0.00     0.077 C 
HETATM    3  C19 UNL     1       2.959  -7.100  32.754  1.00  0.00     0.111 C 
HETATM    4  N6  UNL     1       3.441  -6.715  33.738  1.00  0.00    -0.193 NA
ENDROOT
BRANCH   1   5
HETATM    5  C16 UNL     1       1.139  -6.880  31.156  1.00  0.00    -0.051 C 
HETATM    6  C15 UNL     1       0.132  -6.274  30.875  1.00  0.00    -0.081 C 
BRANCH   6   7
HETATM    7  C14 UNL     1      -1.100  -5.515  30.554  1.00  0.00     0.236 C 
BRANCH   7   8
HETATM    8  N5  UNL     1      -2.130  -6.407  30.081  1.00  0.00    -0.310 N 
HETATM    9  N1  UNL     1      -3.220  -6.473  30.865  1.00  0.00    -0.288 N 
HETATM   10  C5  UNL     1      -4.486  -6.214  30.322  1.00  0.00     0.089 C 
HETATM   11  C6  UNL     1      -5.679  -6.731  31.019  1.00  0.00     0.074 C 
HETATM   12  C7  UNL     1      -6.494  -7.726  30.196  1.00  0.00     0.237 C 
HETATM   13  N2  UNL     1      -6.967  -7.103  28.974  1.00  0.00    -0.073 N 
HETATM   14  C8  UNL     1      -7.673  -8.098  28.188  1.00  0.00     0.259 C 
ATOM     15  H22 UNL     1      -7.532  -6.273  29.152  1.00  0.00     0.277 HD
ATOM     16  H21 UNL     1      -6.216  -6.653  28.450  1.00  0.00     0.277 HD
HETATM   17  C9  UNL     1      -7.374  -7.827  26.730  1.00  0.00     0.259 C 
HETATM   18  N3  UNL     1      -6.190  -7.018  26.596  1.00  0.00    -0.072 N 
HETATM   19  C10 UNL     1      -5.253  -7.551  25.639  1.00  0.00     0.259 C 
ATOM     20  H32 UNL     1      -6.431  -6.053  26.372  1.00  0.00     0.277 HD
ATOM     21  H31 UNL     1      -5.744  -6.871  27.502  1.00  0.00     0.277 HD
HETATM   22  C11 UNL     1      -4.193  -8.302  26.417  1.00  0.00     0.259 C 
HETATM   23  N4  UNL     1      -3.032  -7.469  26.658  1.00  0.00    -0.072 N 
HETATM   24  C12 UNL     1      -2.490  -7.656  27.983  1.00  0.00     0.253 C 
ATOM     25  H42 UNL     1      -2.318  -7.616  25.944  1.00  0.00     0.277 HD
ATOM     26  H41 UNL     1      -3.240  -6.487  26.480  1.00  0.00     0.277 HD
HETATM   27  C13 UNL     1      -2.353  -6.312  28.668  1.00  0.00     0.171 C 
BRANCH   9  28
HETATM   28  C4  UNL     1      -3.079  -6.846  32.198  1.00  0.00     0.088 C 
BRANCH  28  29
HETATM   29  C3  UNL     1      -2.474  -8.178  32.485  1.00  0.00     0.046 C 
BRANCH  29  30
HETATM   30  C2  UNL     1      -3.546  -9.272  32.583  1.00  0.00     0.001 C 
HETATM   31  C1  UNL     1      -3.664 -10.059  31.329  1.00  0.00     0.005 C 
ENDBRANCH  29  30
ENDBRANCH  28  29
ENDBRANCH   9  28
ENDBRANCH   7   8
ENDBRANCH   6   7
ENDBRANCH   1   5
BRANCH   1  32
HETATM   32  O1  UNL     1       3.294  -7.582  30.480  1.00  0.00    -0.366 OA
ATOM     33  H1  UNL     1       4.036  -8.146  30.668  1.00  0.00     0.212 HD
ENDBRANCH   1  32
TORSDOF 7
ENDMDL
MODEL 2
REMARK VINA RESULT: -6.727012062      1.657      1.910
REMARK  7 active torsions:
REMARK  status: ('A' for Active; 'I' for Inactive)
REMARK    1  A    between atoms: C2_2  and  C3_3 
REMARK    2  A    between atoms: C3_3  and  C4_4 
REMARK    3  A    between atoms: C4_4  and  N1_5 
REMARK    4  A    between atoms: N5_24  and  C14_25 
REMARK    5  A    between atoms: C14_25  and  C15_26 
REMARK    6  A    between atoms: C16_27  and  C17_28 
REMARK    7  A    between atoms: C17_28  and  O1_30 
ROOT
HETATM    1  C17 UNL     1       2.671  -7.360  32.648  1.00  0.00     0.207 C 
HETATM    2  C18 UNL     1       2.553  -8.741  32.045  1.00  0.00     0.077 C 
HETATM    3  C19 UNL     1       2.927  -7.539  34.078  1.00  0.00     0.111 C 
HETATM    4  N6  UNL     1       3.142  -7.698  35.208  1.00  0.00    -0.193 NA
ENDROOT
BRANCH   1   5
HETATM    5  C16 UNL     1       1.382  -6.697  32.398  1.00  0.00    -0.051 C 
HETATM    6  C15 UNL     1       0.321  -6.151  32.211  1.00  0.00    -0.081 C 
BRANCH   6   7
HETATM    7  C14 UNL     1      -0.981  -5.473  32.007  1.00  0.00     0.236 C 
BRANCH   7   8
HETATM    8  N5  UNL     1      -1.891  -6.337  31.296  1.00  0.00    -0.310 N 
HETATM    9  N1  UNL     1      -3.000  -6.672  31.979  1.00  0.00    -0.288 N 
HETATM   10  C5  UNL     1      -4.262  -6.423  31.423  1.00  0.00     0.089 C 
HETATM   11  C6  UNL     1      -5.422  -7.187  31.921  1.00  0.00     0.074 C 
HETATM   12  C7  UNL     1      -6.093  -8.056  30.860  1.00  0.00     0.237 C 
HETATM   13  N2  UNL     1      -6.578  -7.234  29.766  1.00  0.00    -0.073 N 
HETATM   14  C8  UNL     1      -7.142  -8.101  28.748  1.00  0.00     0.259 C 
ATOM     15  H22 UNL     1      -7.234  -6.518  30.077  1.00  0.00     0.277 HD
ATOM     16  H21 UNL     1      -5.857  -6.614  29.396  1.00  0.00     0.277 HD
HETATM   17  C9  UNL     1      -6.813  -7.498  27.400  1.00  0.00     0.259 C 
HETATM   18  N3  UNL     1      -5.716  -6.571  27.512  1.00  0.00    -0.072 N 
HETATM   19  C10 UNL     1      -4.689  -6.798  26.526  1.00  0.00     0.259 C 
ATOM     20  H32 UNL     1      -6.048  -5.608  27.479  1.00  0.00     0.277 HD
ATOM     21  H31 UNL     1      -5.326  -6.580  28.455  1.00  0.00     0.277 HD
HETATM   22  C11 UNL     1      -3.588  -7.593  27.196  1.00  0.00     0.259 C 
HETATM   23  N4  UNL     1      -2.533  -6.725  27.677  1.00  0.00    -0.072 N 
HETATM   24  C12 UNL     1      -2.030  -7.139  28.965  1.00  0.00     0.253 C 
ATOM     25  H42 UNL     1      -1.779  -6.649  26.994  1.00  0.00     0.277 HD
ATOM     26  H41 UNL     1      -2.836  -5.752  27.694  1.00  0.00     0.277 HD
HETATM   27  C13 UNL     1      -2.064  -5.965  29.922  1.00  0.00     0.171 C 
BRANCH   9  28
HETATM   28  C4  UNL     1      -2.876  -7.304  33.211  1.00  0.00     0.088 C 
BRANCH  28  29
HETATM   29  C3  UNL     1      -3.236  -6.525  34.430  1.00  0.00     0.046 C 
BRANCH  29  30
HETATM   30  C2  UNL     1      -4.076  -7.362  35.405  1.00  0.00     0.001 C 
HETATM   31  C1  UNL     1      -4.413  -6.614  36.644  1.00  0.00     0.005 C 
ENDBRANCH  29  30
ENDBRANCH  28  29
ENDBRANCH   9  28
ENDBRANCH   7   8
ENDBRANCH   6   7
ENDBRANCH   1   5
BRANCH   1  32
HETATM   32  O1  UNL     1       3.721  -6.665  32.048  1.00  0.00    -0.366 OA
ATOM     33  H1  UNL     1       3.521  -6.455  31.143  1.00  0.00     0.212 HD
ENDBRANCH   1  32
TORSDOF 7
ENDMDL
MODEL 3
REMARK VINA RESULT: -6.534471057      0.771      1.148
REMARK  7 active torsions:
REMARK  status: ('A' for Active; 'I' for Inactive)
REMARK    1  A    between atoms: C2_2  and  C3_3 
REMARK    2  A    between atoms: C3_3  and  C4_4 
REMARK    3  A    between atoms: C4_4  and  N1_5 
REMARK    4  A    between atoms: N5_24  and  C14_25 
REMARK    5  A    between atoms: C14_25  and  C15_26 
REMARK    6  A    between atoms: C16_27  and  C17_28 
REMARK    7  A    between atoms: C17_28  and  O1_30 
ROOT
HETATM    1  C17 UNL     1       2.232  -7.605  31.243  1.00  0.00     0.207 C 
HETATM    2  C18 UNL     1       1.854  -9.046  31.496  1.00  0.00     0.077 C 
HETATM    3  C19 UNL     1       2.898  -7.118  32.451  1.00  0.00     0.111 C 
HETATM    4  N6  UNL     1       3.435  -6.752  33.413  1.00  0.00    -0.193 NA
ENDROOT
BRANCH   1   5
HETATM    5  C16 UNL     1       0.969  -6.894  30.985  1.00  0.00    -0.051 C 
HETATM    6  C15 UNL     1      -0.057  -6.295  30.774  1.00  0.00    -0.081 C 
BRANCH   6   7
HETATM    7  C14 UNL     1      -1.303  -5.536  30.507  1.00  0.00     0.236 C 
BRANCH   7   8
HETATM    8  N5  UNL     1      -2.313  -6.408  29.957  1.00  0.00    -0.310 N 
HETATM    9  N1  UNL     1      -3.516  -6.319  30.551  1.00  0.00    -0.288 N 
HETATM   10  C5  UNL     1      -4.653  -6.041  29.781  1.00  0.00     0.089 C 
HETATM   11  C6  UNL     1      -5.980  -6.402  30.315  1.00  0.00     0.074 C 
HETATM   12  C7  UNL     1      -6.731  -7.428  29.468  1.00  0.00     0.237 C 
HETATM   13  N2  UNL     1      -6.950  -6.913  28.129  1.00  0.00    -0.073 N 
HETATM   14  C8  UNL     1      -7.600  -7.940  27.336  1.00  0.00     0.259 C 
ATOM     15  H22 UNL     1      -7.468  -6.034  28.128  1.00  0.00     0.277 HD
ATOM     16  H21 UNL     1      -6.092  -6.571  27.697  1.00  0.00     0.277 HD
HETATM   17  C9  UNL     1      -7.051  -7.849  25.929  1.00  0.00     0.259 C 
HETATM   18  N3  UNL     1      -5.799  -7.136  25.918  1.00  0.00    -0.072 N 
HETATM   19  C10 UNL     1      -4.767  -7.829  25.188  1.00  0.00     0.259 C 
ATOM     20  H32 UNL     1      -5.923  -6.188  25.564  1.00  0.00     0.277 HD
ATOM     21  H31 UNL     1      -5.493  -6.920  26.867  1.00  0.00     0.277 HD
HETATM   22  C11 UNL     1      -3.908  -8.555  26.201  1.00  0.00     0.259 C 
HETATM   23  N4  UNL     1      -2.738  -7.777  26.550  1.00  0.00    -0.072 N 
HETATM   24  C12 UNL     1      -2.432  -7.852  27.959  1.00  0.00     0.253 C 
ATOM     25  H42 UNL     1      -1.934  -8.046  25.983  1.00  0.00     0.277 HD
ATOM     26  H41 UNL     1      -2.835  -6.809  26.246  1.00  0.00     0.277 HD
HETATM   27  C13 UNL     1      -2.299  -6.453  28.524  1.00  0.00     0.171 C 
BRANCH   9  28
HETATM   28  C4  UNL     1      -3.620  -6.553  31.918  1.00  0.00     0.088 C 
BRANCH  28  29
HETATM   29  C3  UNL     1      -3.247  -7.906  32.420  1.00  0.00     0.046 C 
BRANCH  29  30
HETATM   30  C2  UNL     1      -2.992  -7.893  33.933  1.00  0.00     0.001 C 
HETATM   31  C1  UNL     1      -3.336  -6.586  34.552  1.00  0.00     0.005 C 
ENDBRANCH  29  30
ENDBRANCH  28  29
ENDBRANCH   9  28
ENDBRANCH   7   8
ENDBRANCH   6   7
ENDBRANCH   1   5
BRANCH   1  32
HETATM   32  O1  UNL     1       3.090  -7.523  30.146  1.00  0.00    -0.366 OA
ATOM     33  H1  UNL     1       3.096  -8.335  29.653  1.00  0.00     0.212 HD
ENDBRANCH   1  32
TORSDOF 7
ENDMDL
MODEL 4
REMARK VINA RESULT: -6.462161799      2.987      5.503
REMARK  7 active torsions:
REMARK  status: ('A' for Active; 'I' for Inactive)
REMARK    1  A    between atoms: C2_2  and  C3_3 
REMARK    2  A    between atoms: C3_3  and  C4_4 
REMARK    3  A    between atoms: C4_4  and  N1_5 
REMARK    4  A    between atoms: N5_24  and  C14_25 
REMARK    5  A    between atoms: C14_25  and  C15_26 
REMARK    6  A    between atoms: C16_27  and  C17_28 
REMARK    7  A    between atoms: C17_28  and  O1_30 
ROOT
HETATM    1  C17 UNL     1       1.959  -7.949  33.979  1.00  0.00     0.207 C 
HETATM    2  C18 UNL     1       2.846  -6.880  34.575  1.00  0.00     0.077 C 
HETATM    3  C19 UNL     1       2.729  -8.601  32.919  1.00  0.00     0.111 C 
HETATM    4  N6  UNL     1       3.357  -9.116  32.089  1.00  0.00    -0.193 NA
ENDROOT
BRANCH   1   5
HETATM    5  C16 UNL     1       0.778  -7.249  33.451  1.00  0.00    -0.051 C 
HETATM    6  C15 UNL     1      -0.187  -6.680  33.001  1.00  0.00    -0.081 C 
BRANCH   6   7
HETATM    7  C14 UNL     1      -1.369  -5.995  32.425  1.00  0.00     0.236 C 
BRANCH   7   8
HETATM    8  N5  UNL     1      -2.561  -6.775  32.652  1.00  0.00    -0.310 N 
HETATM    9  N1  UNL     1      -2.941  -7.539  31.613  1.00  0.00    -0.288 N 
HETATM   10  C5  UNL     1      -3.120  -8.918  31.791  1.00  0.00     0.089 C 
HETATM   11  C6  UNL     1      -3.963  -9.655  30.830  1.00  0.00     0.074 C 
HETATM   12  C7  UNL     1      -5.198 -10.299  31.457  1.00  0.00     0.237 C 
HETATM   13  N2  UNL     1      -4.807 -11.251  32.481  1.00  0.00    -0.073 N 
HETATM   14  C8  UNL     1      -6.005 -11.786  33.100  1.00  0.00     0.259 C 
ATOM     15  H22 UNL     1      -4.194 -11.983  32.120  1.00  0.00     0.277 HD
ATOM     16  H21 UNL     1      -4.162 -10.849  33.161  1.00  0.00     0.277 HD
HETATM   17  C9  UNL     1      -5.710 -11.986  34.571  1.00  0.00     0.259 C 
HETATM   18  N3  UNL     1      -4.572 -11.200  34.972  1.00  0.00    -0.072 N 
HETATM   19  C10 UNL     1      -4.816 -10.430  36.166  1.00  0.00     0.259 C 
ATOM     20  H32 UNL     1      -3.744 -11.785  35.078  1.00  0.00     0.277 HD
ATOM     21  H31 UNL     1      -4.255 -10.601  34.209  1.00  0.00     0.277 HD
HETATM   22  C11 UNL     1      -5.158  -9.021  35.732  1.00  0.00     0.259 C 
HETATM   23  N4  UNL     1      -3.990  -8.164  35.765  1.00  0.00    -0.072 N 
HETATM   24  C12 UNL     1      -3.942  -7.261  34.640  1.00  0.00     0.253 C 
ATOM     25  H42 UNL     1      -3.930  -7.657  36.648  1.00  0.00     0.277 HD
ATOM     26  H41 UNL     1      -3.133  -8.713  35.834  1.00  0.00     0.277 HD
HETATM   27  C13 UNL     1      -2.599  -7.383  33.951  1.00  0.00     0.171 C 
BRANCH   9  28
HETATM   28  C4  UNL     1      -3.196  -6.940  30.384  1.00  0.00     0.088 C 
BRANCH  28  29
HETATM   29  C3  UNL     1      -2.145  -7.042  29.332  1.00  0.00     0.046 C 
BRANCH  29  30
HETATM   30  C2  UNL     1      -2.740  -6.884  27.926  1.00  0.00     0.001 C 
HETATM   31  C1  UNL     1      -3.061  -8.192  27.299  1.00  0.00     0.005 C 
ENDBRANCH  29  30
ENDBRANCH  28  29
ENDBRANCH   9  28
ENDBRANCH   7   8
ENDBRANCH   6   7
ENDBRANCH   1   5
BRANCH   1  32
HETATM   32  O1  UNL     1       1.601  -8.874  34.960  1.00  0.00    -0.366 OA
ATOM     33  H1  UNL     1       2.356  -9.365  35.262  1.00  0.00     0.212 HD
ENDBRANCH   1  32
TORSDOF 7
ENDMDL
MODEL 5
REMARK VINA RESULT: -6.457790201      1.018      1.120
REMARK  7 active torsions:
REMARK  status: ('A' for Active; 'I' for Inactive)
REMARK    1  A    between atoms: C2_2  and  C3_3 
REMARK    2  A    between atoms: C3_3  and  C4_4 
REMARK    3  A    between atoms: C4_4  and  N1_5 
REMARK    4  A    between atoms: N5_24  and  C14_25 
REMARK    5  A    between atoms: C14_25  and  C15_26 
REMARK    6  A    between atoms: C16_27  and  C17_28 
REMARK    7  A    between atoms: C17_28  and  O1_30 
ROOT
HETATM    1  C17 UNL     1       2.102  -6.574  31.233  1.00  0.00     0.207 C 
HETATM    2  C18 UNL     1       2.251  -7.845  30.427  1.00  0.00     0.077 C 
HETATM    3  C19 UNL     1       2.829  -6.776  32.487  1.00  0.00     0.111 C 
HETATM    4  N6  UNL     1       3.421  -6.947  33.471  1.00  0.00    -0.193 NA
ENDROOT
BRANCH   1   5
HETATM    5  C16 UNL     1       0.658  -6.403  31.456  1.00  0.00    -0.051 C 
HETATM    6  C15 UNL     1      -0.524  -6.249  31.652  1.00  0.00    -0.081 C 
BRANCH   6   7
HETATM    7  C14 UNL     1      -1.969  -6.037  31.906  1.00  0.00     0.236 C 
BRANCH   7   8
HETATM    8  N5  UNL     1      -2.760  -6.817  30.986  1.00  0.00    -0.310 N 
HETATM    9  N1  UNL     1      -3.947  -7.224  31.469  1.00  0.00    -0.288 N 
HETATM   10  C5  UNL     1      -5.124  -6.915  30.775  1.00  0.00     0.089 C 
HETATM   11  C6  UNL     1      -6.330  -7.728  31.022  1.00  0.00     0.074 C 
HETATM   12  C7  UNL     1      -6.837  -8.476  29.790  1.00  0.00     0.237 C 
HETATM   13  N2  UNL     1      -7.178  -7.539  28.735  1.00  0.00    -0.073 N 
HETATM   14  C8  UNL     1      -7.585  -8.288  27.561  1.00  0.00     0.259 C 
ATOM     15  H22 UNL     1      -7.882  -6.860  29.029  1.00  0.00     0.277 HD
ATOM     16  H21 UNL     1      -6.423  -6.882  28.538  1.00  0.00     0.277 HD
HETATM   17  C9  UNL     1      -7.082  -7.541  26.345  1.00  0.00     0.259 C 
HETATM   18  N3  UNL     1      -6.025  -6.633  26.707  1.00  0.00    -0.072 N 
HETATM   19  C10 UNL     1      -4.869  -6.751  25.854  1.00  0.00     0.259 C 
ATOM     20  H32 UNL     1      -6.363  -5.672  26.733  1.00  0.00     0.277 HD
ATOM     21  H31 UNL     1      -5.768  -6.745  27.688  1.00  0.00     0.277 HD
HETATM   22  C11 UNL     1      -3.860  -7.616  26.579  1.00  0.00     0.259 C 
HETATM   23  N4  UNL     1      -2.893  -6.807  27.292  1.00  0.00    -0.072 N 
HETATM   24  C12 UNL     1      -2.566  -7.359  28.585  1.00  0.00     0.253 C 
ATOM     25  H42 UNL     1      -2.053  -6.656  26.733  1.00  0.00     0.277 HD
ATOM     26  H41 UNL     1      -3.209  -5.841  27.373  1.00  0.00     0.277 HD
HETATM   27  C13 UNL     1      -2.748  -6.297  29.650  1.00  0.00     0.171 C 
BRANCH   9  28
HETATM   28  C4  UNL     1      -3.984  -7.988  32.630  1.00  0.00     0.088 C 
BRANCH  28  29
HETATM   29  C3  UNL     1      -3.274  -9.300  32.621  1.00  0.00     0.046 C 
BRANCH  29  30
HETATM   30  C2  UNL     1      -4.200 -10.436  32.168  1.00  0.00     0.001 C 
HETATM   31  C1  UNL     1      -4.044 -10.749  30.724  1.00  0.00     0.005 C 
ENDBRANCH  29  30
ENDBRANCH  28  29
ENDBRANCH   9  28
ENDBRANCH   7   8
ENDBRANCH   6   7
ENDBRANCH   1   5
BRANCH   1  32
HETATM   32  O1  UNL     1       2.635  -5.496  30.527  1.00  0.00    -0.366 OA
ATOM     33  H1  UNL     1       3.157  -5.792  29.790  1.00  0.00     0.212 HD
ENDBRANCH   1  32
TORSDOF 7
ENDMDL
