MODEL 1
REMARK VINA RESULT: -6.662915004      0.000      0.000
REMARK  7 active torsions:
REMARK  status: ('A' for Active; 'I' for Inactive)
REMARK    1  A    between atoms: C2_2  and  N1_3 
REMARK    2  A    between atoms: C2_2  and  C3_7 
REMARK       I    between atoms: C3_7  and  N2_9 
REMARK    3  A    between atoms: N2_9  and  C4_11 
REMARK    4  A    between atoms: C4_11  and  C11_29 
REMARK    5  A    between atoms: C5_12  and  C7_15 
REMARK    6  A    between atoms: C9_22  and  N7_23 
REMARK    7  A    between atoms: C11_29  and  N9_32 
ROOT
HETATM    1  C4  UNL     1      42.165  13.253  -0.647  1.00  0.00     0.069 C 
HETATM    2  C5  UNL     1      40.761  13.237  -0.973  1.00  0.00     0.085 C 
HETATM    3  C6  UNL     1      40.377  13.869  -2.264  1.00  0.00     0.102 C 
HETATM    4  N3  UNL     1      40.056  14.341  -3.269  1.00  0.00    -0.191 NA
ENDROOT
BRANCH   2   5
HETATM    5  C7  UNL     1      39.778  12.738  -0.290  1.00  0.00     0.052 A 
HETATM    6  C8  UNL     1      39.130  13.188   0.813  1.00  0.00     0.126 A 
HETATM    7  N4  UNL     1      38.135  12.306   1.189  1.00  0.00    -0.288 N 
HETATM    8  N5  UNL     1      38.150  11.309   0.338  1.00  0.00    -0.164 N 
ATOM      9  H4  UNL     1      37.505  12.411   1.984  1.00  0.00     0.188 HD
HETATM   10  N6  UNL     1      37.545  10.175   0.064  1.00  0.00    -0.109 N 
HETATM   11  C10 UNL     1      39.112  11.513  -0.568  1.00  0.00     0.174 A 
HETATM   12  C9  UNL     1      38.131   9.658  -1.024  1.00  0.00     0.693 A 
ATOM     13  H6  UNL     1      36.772   9.764   0.586  1.00  0.00     0.208 HD
HETATM   14  N8  UNL     1      39.107  10.480  -1.428  1.00  0.00    -0.171 N 
ATOM     15  H8  UNL     1      39.725  10.349  -2.228  1.00  0.00     0.186 HD
BRANCH  12  16
HETATM   16  N7  UNL     1      37.773   8.520  -1.576  1.00  0.00    -0.233 N 
ATOM     17  H72 UNL     1      37.406   7.695  -1.103  1.00  0.00     0.174 HD
ATOM     18  H71 UNL     1      37.828   8.333  -2.578  1.00  0.00     0.174 HD
ENDBRANCH  12  16
ENDBRANCH   2   5
BRANCH   1  19
HETATM   19  N2  UNL     1      42.651  12.326   0.343  1.00  0.00    -0.325 N 
HETATM   20  C3  UNL     1      42.733  10.913   0.150  1.00  0.00     0.252 C 
HETATM   21  O1  UNL     1      42.378  10.362  -0.923  1.00  0.00    -0.271 OA
ATOM     22  H2  UNL     1      42.956  12.703   1.240  1.00  0.00     0.168 HD
BRANCH  20  23
HETATM   23  C2  UNL     1      43.246  10.055   1.230  1.00  0.00     0.271 C 
HETATM   24  C1  UNL     1      44.555   9.392   0.857  1.00  0.00     0.050 C 
BRANCH  23  25
HETATM   25  N1  UNL     1      42.315   9.056   1.656  1.00  0.00    -0.067 N 
ATOM     26  H13 UNL     1      41.743   8.708   0.886  1.00  0.00     0.275 HD
ATOM     27  H12 UNL     1      42.774   8.179   1.903  1.00  0.00     0.275 HD
ATOM     28  H11 UNL     1      41.750   9.425   2.420  1.00  0.00     0.275 HD
ENDBRANCH  23  25
ENDBRANCH  20  23
ENDBRANCH   1  19
BRANCH   1  29
HETATM   29  C11 UNL     1      42.822  14.566  -0.419  1.00  0.00     0.160 C 
HETATM   30  C12 UNL     1      43.489  15.198  -1.609  1.00  0.00     0.052 C 
HETATM   31  C13 UNL     1      43.944  14.403   0.623  1.00  0.00     0.052 C 
BRANCH  29  32
HETATM   32  N9  UNL     1      41.908  15.536   0.214  1.00  0.00    -0.066 N 
ATOM     33  H93 UNL     1      40.944  15.389  -0.087  1.00  0.00     0.275 HD
ATOM     34  H92 UNL     1      41.796  15.345   1.210  1.00  0.00     0.275 HD
ATOM     35  H91 UNL     1      42.204  16.499   0.052  1.00  0.00     0.275 HD
ENDBRANCH  29  32
ENDBRANCH   1  29
TORSDOF 7
ENDMDL
MODEL 2
REMARK VINA RESULT: -6.630849165      1.387      1.409
REMARK  7 active torsions:
REMARK  status: ('A' for Active; 'I' for Inactive)
REMARK    1  A    between atoms: C2_2  and  N1_3 
REMARK    2  A    between atoms: C2_2  and  C3_7 
REMARK       I    between atoms: C3_7  and  N2_9 
REMARK    3  A    between atoms: N2_9  and  C4_11 
REMARK    4  A    between atoms: C4_11  and  C11_29 
REMARK    5  A    between atoms: C5_12  and  C7_15 
REMARK    6  A    between atoms: C9_22  and  N7_23 
REMARK    7  A    between atoms: C11_29  and  N9_32 
ROOT
HETATM    1  C4  UNL     1      42.527  13.667  -0.914  1.00  0.00     0.069 C 
HETATM    2  C5  UNL     1      41.128  13.398  -1.132  1.00  0.00     0.085 C 
HETATM    3  C6  UNL     1      40.532  13.965  -2.370  1.00  0.00     0.102 C 
HETATM    4  N3  UNL     1      40.050  14.385  -3.334  1.00  0.00    -0.191 NA
ENDROOT
BRANCH   2   5
HETATM    5  C7  UNL     1      40.311  12.717  -0.389  1.00  0.00     0.052 A 
HETATM    6  C8  UNL     1      39.322  13.107   0.452  1.00  0.00     0.126 A 
HETATM    7  N4  UNL     1      38.713  12.012   1.032  1.00  0.00    -0.288 N 
HETATM    8  N5  UNL     1      39.306  10.939   0.568  1.00  0.00    -0.164 N 
ATOM      9  H4  UNL     1      37.943  12.034   1.701  1.00  0.00     0.188 HD
HETATM   10  N6  UNL     1      39.282   9.628   0.649  1.00  0.00    -0.109 N 
HETATM   11  C10 UNL     1      40.269  11.299  -0.286  1.00  0.00     0.174 A 
HETATM   12  C9  UNL     1      40.239   9.155  -0.160  1.00  0.00     0.693 A 
ATOM     13  H6  UNL     1      38.649   9.071   1.224  1.00  0.00     0.208 HD
HETATM   14  N8  UNL     1      40.861  10.184  -0.748  1.00  0.00    -0.171 N 
ATOM     15  H8  UNL     1      41.632  10.133  -1.414  1.00  0.00     0.186 HD
BRANCH  12  16
HETATM   16  N7  UNL     1      40.495   7.876  -0.322  1.00  0.00    -0.233 N 
ATOM     17  H72 UNL     1      40.628   7.177   0.409  1.00  0.00     0.174 HD
ATOM     18  H71 UNL     1      40.591   7.427  -1.233  1.00  0.00     0.174 HD
ENDBRANCH  12  16
ENDBRANCH   2   5
BRANCH   1  19
HETATM   19  N2  UNL     1      43.252  12.832   0.009  1.00  0.00    -0.325 N 
HETATM   20  C3  UNL     1      43.870  11.593  -0.343  1.00  0.00     0.252 C 
HETATM   21  O1  UNL     1      43.825  11.129  -1.511  1.00  0.00    -0.271 OA
ATOM     22  H2  UNL     1      43.330  13.145   0.976  1.00  0.00     0.168 HD
BRANCH  20  23
HETATM   23  C2  UNL     1      44.588  10.816   0.681  1.00  0.00     0.271 C 
HETATM   24  C1  UNL     1      46.088  10.858   0.478  1.00  0.00     0.050 C 
BRANCH  23  25
HETATM   25  N1  UNL     1      44.160   9.453   0.767  1.00  0.00    -0.067 N 
ATOM     26  H13 UNL     1      43.230   9.315   0.372  1.00  0.00     0.275 HD
ATOM     27  H12 UNL     1      44.679   8.845   0.134  1.00  0.00     0.275 HD
ATOM     28  H11 UNL     1      44.219   9.141   1.736  1.00  0.00     0.275 HD
ENDBRANCH  23  25
ENDBRANCH  20  23
ENDBRANCH   1  19
BRANCH   1  29
HETATM   29  C11 UNL     1      42.950  15.075  -0.700  1.00  0.00     0.160 C 
HETATM   30  C12 UNL     1      43.518  15.794  -1.892  1.00  0.00     0.052 C 
HETATM   31  C13 UNL     1      44.067  15.119   0.359  1.00  0.00     0.052 C 
BRANCH  29  32
HETATM   32  N9  UNL     1      41.876  15.886  -0.094  1.00  0.00    -0.066 N 
ATOM     33  H93 UNL     1      41.311  15.332   0.550  1.00  0.00     0.275 HD
ATOM     34  H92 UNL     1      42.253  16.565   0.567  1.00  0.00     0.275 HD
ATOM     35  H91 UNL     1      41.296  16.338  -0.801  1.00  0.00     0.275 HD
ENDBRANCH  29  32
ENDBRANCH   1  29
TORSDOF 7
ENDMDL
MODEL 3
REMARK VINA RESULT: -6.581268655      1.814      4.106
REMARK  7 active torsions:
REMARK  status: ('A' for Active; 'I' for Inactive)
REMARK    1  A    between atoms: C2_2  and  N1_3 
REMARK    2  A    between atoms: C2_2  and  C3_7 
REMARK       I    between atoms: C3_7  and  N2_9 
REMARK    3  A    between atoms: N2_9  and  C4_11 
REMARK    4  A    between atoms: C4_11  and  C11_29 
REMARK    5  A    between atoms: C5_12  and  C7_15 
REMARK    6  A    between atoms: C9_22  and  N7_23 
REMARK    7  A    between atoms: C11_29  and  N9_32 
ROOT
HETATM    1  C4  UNL     1      42.350  12.170  -0.481  1.00  0.00     0.069 C 
HETATM    2  C5  UNL     1      41.450  11.379   0.320  1.00  0.00     0.085 C 
HETATM    3  C6  UNL     1      42.071  10.312   1.149  1.00  0.00     0.102 C 
HETATM    4  N3  UNL     1      42.532   9.485   1.813  1.00  0.00    -0.191 NA
ENDROOT
BRANCH   2   5
HETATM    5  C7  UNL     1      40.161  11.475   0.420  1.00  0.00     0.052 A 
HETATM    6  C8  UNL     1      39.373  12.378   1.055  1.00  0.00     0.126 A 
HETATM    7  N4  UNL     1      38.038  12.070   0.881  1.00  0.00    -0.288 N 
HETATM    8  N5  UNL     1      37.976  10.987   0.146  1.00  0.00    -0.164 N 
ATOM      9  H4  UNL     1      37.245  12.591   1.257  1.00  0.00     0.188 HD
HETATM   10  N6  UNL     1      37.116  10.155  -0.397  1.00  0.00    -0.109 N 
HETATM   11  C10 UNL     1      39.214  10.586  -0.159  1.00  0.00     0.174 A 
HETATM   12  C9  UNL     1      37.819   9.220  -1.052  1.00  0.00     0.693 A 
ATOM     13  H6  UNL     1      36.100  10.211  -0.333  1.00  0.00     0.208 HD
HETATM   14  N8  UNL     1      39.124   9.476  -0.911  1.00  0.00    -0.171 N 
ATOM     15  H8  UNL     1      39.898   8.936  -1.298  1.00  0.00     0.186 HD
BRANCH  12  16
HETATM   16  N7  UNL     1      37.271   8.225  -1.714  1.00  0.00    -0.233 N 
ATOM     17  H72 UNL     1      36.289   8.120  -1.968  1.00  0.00     0.174 HD
ATOM     18  H71 UNL     1      37.792   7.418  -2.058  1.00  0.00     0.174 HD
ENDBRANCH  12  16
ENDBRANCH   2   5
BRANCH   1  19
HETATM   19  N2  UNL     1      41.894  13.448  -0.968  1.00  0.00    -0.325 N 
HETATM   20  C3  UNL     1      41.907  14.652  -0.200  1.00  0.00     0.252 C 
HETATM   21  O1  UNL     1      42.327  14.687   0.984  1.00  0.00    -0.271 OA
ATOM     22  H2  UNL     1      41.538  13.495  -1.922  1.00  0.00     0.168 HD
BRANCH  20  23
HETATM   23  C2  UNL     1      41.417  15.906  -0.797  1.00  0.00     0.271 C 
HETATM   24  C1  UNL     1      40.319  15.662  -1.811  1.00  0.00     0.050 C 
BRANCH  23  25
HETATM   25  N1  UNL     1      42.449  16.694  -1.397  1.00  0.00    -0.067 N 
ATOM     26  H13 UNL     1      43.228  16.124  -1.725  1.00  0.00     0.275 HD
ATOM     27  H12 UNL     1      42.166  17.083  -2.296  1.00  0.00     0.275 HD
ATOM     28  H11 UNL     1      42.748  17.415  -0.741  1.00  0.00     0.275 HD
ENDBRANCH  23  25
ENDBRANCH  20  23
ENDBRANCH   1  19
BRANCH   1  29
HETATM   29  C11 UNL     1      43.103  11.498  -1.570  1.00  0.00     0.160 C 
HETATM   30  C12 UNL     1      44.476  10.993  -1.224  1.00  0.00     0.052 C 
HETATM   31  C13 UNL     1      43.325  12.489  -2.728  1.00  0.00     0.052 C 
BRANCH  29  32
HETATM   32  N9  UNL     1      42.317  10.417  -2.196  1.00  0.00    -0.066 N 
ATOM     33  H93 UNL     1      42.865   9.560  -2.279  1.00  0.00     0.275 HD
ATOM     34  H92 UNL     1      41.586  10.079  -1.569  1.00  0.00     0.275 HD
ATOM     35  H91 UNL     1      41.932  10.699  -3.097  1.00  0.00     0.275 HD
ENDBRANCH  29  32
ENDBRANCH   1  29
TORSDOF 7
ENDMDL
MODEL 4
REMARK VINA RESULT: -6.473838108      2.122      4.308
REMARK  7 active torsions:
REMARK  status: ('A' for Active; 'I' for Inactive)
REMARK    1  A    between atoms: C2_2  and  N1_3 
REMARK    2  A    between atoms: C2_2  and  C3_7 
REMARK       I    between atoms: C3_7  and  N2_9 
REMARK    3  A    between atoms: N2_9  and  C4_11 
REMARK    4  A    between atoms: C4_11  and  C11_29 
REMARK    5  A    between atoms: C5_12  and  C7_15 
REMARK    6  A    between atoms: C9_22  and  N7_23 
REMARK    7  A    between atoms: C11_29  and  N9_32 
ROOT
HETATM    1  C4  UNL     1      42.628  13.485  -1.041  1.00  0.00     0.069 C 
HETATM    2  C5  UNL     1      42.069  12.537  -0.110  1.00  0.00     0.085 C 
HETATM    3  C6  UNL     1      43.014  11.544   0.466  1.00  0.00     0.102 C 
HETATM    4  N3  UNL     1      43.733  10.770   0.938  1.00  0.00    -0.191 NA
ENDROOT
BRANCH   2   5
HETATM    5  C7  UNL     1      40.843  12.434   0.300  1.00  0.00     0.052 A 
HETATM    6  C8  UNL     1      40.161  13.094   1.268  1.00  0.00     0.126 A 
HETATM    7  N4  UNL     1      38.859  12.638   1.345  1.00  0.00    -0.288 N 
HETATM    8  N5  UNL     1      38.715  11.701   0.441  1.00  0.00    -0.164 N 
ATOM      9  H4  UNL     1      38.141  12.970   1.990  1.00  0.00     0.188 HD
HETATM   10  N6  UNL     1      37.827  10.865  -0.048  1.00  0.00    -0.109 N 
HETATM   11  C10 UNL     1      39.868  11.536  -0.214  1.00  0.00     0.174 A 
HETATM   12  C9  UNL     1      38.426  10.164  -1.021  1.00  0.00     0.693 A 
ATOM     13  H6  UNL     1      36.859  10.767   0.257  1.00  0.00     0.208 HD
HETATM   14  N8  UNL     1      39.696  10.572  -1.135  1.00  0.00    -0.171 N 
ATOM     15  H8  UNL     1      40.394  10.220  -1.790  1.00  0.00     0.186 HD
BRANCH  12  16
HETATM   16  N7  UNL     1      37.825   9.233  -1.728  1.00  0.00    -0.233 N 
ATOM     17  H72 UNL     1      38.105   8.257  -1.826  1.00  0.00     0.174 HD
ATOM     18  H71 UNL     1      36.979   9.394  -2.276  1.00  0.00     0.174 HD
ENDBRANCH  12  16
ENDBRANCH   2   5
BRANCH   1  19
HETATM   19  N2  UNL     1      41.896  14.697  -1.309  1.00  0.00    -0.325 N 
HETATM   20  C3  UNL     1      41.888  15.838  -0.450  1.00  0.00     0.252 C 
HETATM   21  O1  UNL     1      42.534  15.870   0.628  1.00  0.00    -0.271 OA
ATOM     22  H2  UNL     1      41.348  14.743  -2.168  1.00  0.00     0.168 HD
BRANCH  20  23
HETATM   23  C2  UNL     1      41.104  17.029  -0.821  1.00  0.00     0.271 C 
HETATM   24  C1  UNL     1      40.372  16.841  -2.133  1.00  0.00     0.050 C 
BRANCH  23  25
HETATM   25  N1  UNL     1      41.882  18.228  -0.879  1.00  0.00    -0.067 N 
ATOM     26  H13 UNL     1      42.213  18.518   0.040  1.00  0.00     0.275 HD
ATOM     27  H12 UNL     1      42.789  18.079  -1.320  1.00  0.00     0.275 HD
ATOM     28  H11 UNL     1      41.342  18.958  -1.343  1.00  0.00     0.275 HD
ENDBRANCH  23  25
ENDBRANCH  20  23
ENDBRANCH   1  19
BRANCH   1  29
HETATM   29  C11 UNL     1      43.175  12.977  -2.324  1.00  0.00     0.160 C 
HETATM   30  C12 UNL     1      44.673  12.924  -2.442  1.00  0.00     0.052 C 
HETATM   31  C13 UNL     1      42.720  13.894  -3.475  1.00  0.00     0.052 C 
BRANCH  29  32
HETATM   32  N9  UNL     1      42.600  11.667  -2.687  1.00  0.00    -0.066 N 
ATOM     33  H93 UNL     1      41.585  11.719  -2.773  1.00  0.00     0.275 HD
ATOM     34  H92 UNL     1      42.829  11.415  -3.649  1.00  0.00     0.275 HD
ATOM     35  H91 UNL     1      42.880  10.935  -2.034  1.00  0.00     0.275 HD
ENDBRANCH  29  32
ENDBRANCH   1  29
TORSDOF 7
ENDMDL
MODEL 5
REMARK VINA RESULT: -6.458120971      1.343      1.381
REMARK  7 active torsions:
REMARK  status: ('A' for Active; 'I' for Inactive)
REMARK    1  A    between atoms: C2_2  and  N1_3 
REMARK    2  A    between atoms: C2_2  and  C3_7 
REMARK       I    between atoms: C3_7  and  N2_9 
REMARK    3  A    between atoms: N2_9  and  C4_11 
REMARK    4  A    between atoms: C4_11  and  C11_29 
REMARK    5  A    between atoms: C5_12  and  C7_15 
REMARK    6  A    between atoms: C9_22  and  N7_23 
REMARK    7  A    between atoms: C11_29  and  N9_32 
ROOT
HETATM    1  C4  UNL     1      42.741  13.152  -1.718  1.00  0.00     0.069 C 
HETATM    2  C5  UNL     1      41.318  13.341  -1.582  1.00  0.00     0.085 C 
HETATM    3  C6  UNL     1      40.646  14.093  -2.675  1.00  0.00     0.102 C 
HETATM    4  N3  UNL     1      40.099  14.663  -3.520  1.00  0.00    -0.191 NA
ENDROOT
BRANCH   2   5
HETATM    5  C7  UNL     1      40.537  12.935  -0.630  1.00  0.00     0.052 A 
HETATM    6  C8  UNL     1      40.279  13.444   0.600  1.00  0.00     0.126 A 
HETATM    7  N4  UNL     1      39.363  12.659   1.272  1.00  0.00    -0.288 N 
HETATM    8  N5  UNL     1      39.041  11.664   0.481  1.00  0.00    -0.164 N 
ATOM      9  H4  UNL     1      39.003  12.822   2.212  1.00  0.00     0.188 HD
HETATM   10  N6  UNL     1      38.285  10.591   0.426  1.00  0.00    -0.109 N 
HETATM   11  C10 UNL     1      39.712  11.777  -0.669  1.00  0.00     0.174 A 
HETATM   12  C9  UNL     1      38.481  10.021  -0.771  1.00  0.00     0.693 A 
ATOM     13  H6  UNL     1      37.663  10.254   1.160  1.00  0.00     0.208 HD
HETATM   14  N8  UNL     1      39.367  10.749  -1.462  1.00  0.00    -0.171 N 
ATOM     15  H8  UNL     1      39.711  10.560  -2.404  1.00  0.00     0.186 HD
BRANCH  12  16
HETATM   16  N7  UNL     1      37.879   8.920  -1.164  1.00  0.00    -0.233 N 
ATOM     17  H72 UNL     1      36.886   8.701  -1.089  1.00  0.00     0.174 HD
ATOM     18  H71 UNL     1      38.361   8.136  -1.604  1.00  0.00     0.174 HD
ENDBRANCH  12  16
ENDBRANCH   2   5
BRANCH   1  19
HETATM   19  N2  UNL     1      43.373  12.112  -0.947  1.00  0.00    -0.325 N 
HETATM   20  C3  UNL     1      43.257  10.717  -1.231  1.00  0.00     0.252 C 
HETATM   21  O1  UNL     1      42.579  10.285  -2.198  1.00  0.00    -0.271 OA
ATOM     22  H2  UNL     1      43.940  12.389  -0.146  1.00  0.00     0.168 HD
BRANCH  20  23
HETATM   23  C2  UNL     1      43.946   9.735  -0.377  1.00  0.00     0.271 C 
HETATM   24  C1  UNL     1      45.009  10.380   0.487  1.00  0.00     0.050 C 
BRANCH  23  25
HETATM   25  N1  UNL     1      44.525   8.650  -1.108  1.00  0.00    -0.067 N 
ATOM     26  H13 UNL     1      45.375   8.925  -1.598  1.00  0.00     0.275 HD
ATOM     27  H12 UNL     1      44.933   7.945  -0.495  1.00  0.00     0.275 HD
ATOM     28  H11 UNL     1      43.826   8.257  -1.738  1.00  0.00     0.275 HD
ENDBRANCH  23  25
ENDBRANCH  20  23
ENDBRANCH   1  19
BRANCH   1  29
HETATM   29  C11 UNL     1      43.618  14.351  -1.690  1.00  0.00     0.160 C 
HETATM   30  C12 UNL     1      43.966  14.959  -3.021  1.00  0.00     0.052 C 
HETATM   31  C13 UNL     1      44.972  13.981  -1.057  1.00  0.00     0.052 C 
BRANCH  29  32
HETATM   32  N9  UNL     1      43.095  15.394  -0.787  1.00  0.00    -0.066 N 
ATOM     33  H93 UNL     1      42.265  15.072  -0.289  1.00  0.00     0.275 HD
ATOM     34  H92 UNL     1      43.714  15.539   0.011  1.00  0.00     0.275 HD
ATOM     35  H91 UNL     1      42.915  16.269  -1.281  1.00  0.00     0.275 HD
ENDBRANCH  29  32
ENDBRANCH   1  29
TORSDOF 7
ENDMDL
