MODEL 1
REMARK VINA RESULT: -6.727763893      0.000      0.000
REMARK  3 active torsions:
REMARK  status: ('A' for Active; 'I' for Inactive)
REMARK       I    between atoms: C1_4  and  N2_5 
REMARK       I    between atoms: C1_4  and  N4_13 
REMARK    1  A    between atoms: N2_5  and  N3_7 
REMARK    2  A    between atoms: N4_13  and  N5_15 
REMARK       I    between atoms: N5_15  and  C5_17 
REMARK    3  A    between atoms: N7_19  and  N8_21 
ROOT
HETATM    1  N1  UNL     1       0.498   7.101  12.242  1.00  0.00    -0.232 N 
ATOM      2  H11 UNL     1       0.816   6.136  12.331  1.00  0.00     0.174 HD
ATOM      3  H12 UNL     1       0.145   7.662  13.016  1.00  0.00     0.174 HD
HETATM    4  C1  UNL     1       0.558   7.628  11.061  1.00  0.00     0.705 C 
HETATM    5  N2  UNL     1       0.120   8.958  10.938  1.00  0.00    -0.131 N 
ATOM      6  H2  UNL     1       0.601   9.702  11.442  1.00  0.00     0.205 HD
HETATM    7  N4  UNL     1       1.052   6.845   9.981  1.00  0.00    -0.129 N 
ATOM      8  H4  UNL     1       2.005   6.483  10.014  1.00  0.00     0.205 HD
ENDROOT
BRANCH   5   9
HETATM    9  N3  UNL     1      -0.962   9.253  10.135  1.00  0.00    -0.287 N 
HETATM   10  C2  UNL     1      -0.914  10.153   9.217  1.00  0.00     0.079 A 
HETATM   11  C3  UNL     1      -1.493  10.938   8.131  1.00  0.00     0.147 A 
HETATM   12  C4  UNL     1      -0.074  11.182   8.527  1.00  0.00     0.179 A 
HETATM   13  O1  UNL     1       0.974  11.817   8.342  1.00  0.00    -0.291 OA
ATOM     14  H3  UNL     1      -1.832   8.739  10.274  1.00  0.00     0.187 HD
ENDBRANCH   5   9
BRANCH   7  15
HETATM   15  N5  UNL     1       0.243   6.567   8.877  1.00  0.00    -0.258 N 
HETATM   16  C5  UNL     1       0.455   5.388   8.100  1.00  0.00     0.222 C 
HETATM   17  N6  UNL     1       1.035   4.282   8.777  1.00  0.00    -0.061 NA
HETATM   18  N7  UNL     1       0.135   5.332   6.845  1.00  0.00    -0.279 N 
ATOM     19  H7  UNL     1      -0.282   6.133   6.371  1.00  0.00     0.189 HD
ATOM     20  H5  UNL     1      -0.505   7.212   8.623  1.00  0.00     0.190 HD
BRANCH  18  21
HETATM   21  N8  UNL     1       0.380   4.136   6.163  1.00  0.00    -0.343 N 
ATOM     22  H82 UNL     1       1.117   4.088   5.460  1.00  0.00     0.176 HD
ATOM     23  H81 UNL     1      -0.200   3.330   6.395  1.00  0.00     0.176 HD
ENDBRANCH  18  21
ENDBRANCH   7  15
TORSDOF 3
ENDMDL
MODEL 2
REMARK VINA RESULT: -6.662340940      3.912      5.973
REMARK  3 active torsions:
REMARK  status: ('A' for Active; 'I' for Inactive)
REMARK       I    between atoms: C1_4  and  N2_5 
REMARK       I    between atoms: C1_4  and  N4_13 
REMARK    1  A    between atoms: N2_5  and  N3_7 
REMARK    2  A    between atoms: N4_13  and  N5_15 
REMARK       I    between atoms: N5_15  and  C5_17 
REMARK    3  A    between atoms: N7_19  and  N8_21 
ROOT
HETATM    1  N1  UNL     1      -0.436   6.468  11.291  1.00  0.00    -0.232 N 
ATOM      2  H11 UNL     1      -0.472   6.400  10.274  1.00  0.00     0.174 HD
ATOM      3  H12 UNL     1      -0.746   5.734  11.927  1.00  0.00     0.174 HD
HETATM    4  C1  UNL     1       0.038   7.567  11.786  1.00  0.00     0.705 C 
HETATM    5  N2  UNL     1       0.088   7.661  13.188  1.00  0.00    -0.131 N 
ATOM      6  H2  UNL     1       0.664   7.012  13.723  1.00  0.00     0.205 HD
HETATM    7  N4  UNL     1       0.471   8.591  10.899  1.00  0.00    -0.129 N 
ATOM      8  H4  UNL     1       1.228   8.404  10.241  1.00  0.00     0.205 HD
ENDROOT
BRANCH   5   9
HETATM    9  N3  UNL     1      -0.646   8.632  13.837  1.00  0.00    -0.287 N 
HETATM   10  C2  UNL     1      -1.563   8.347  14.691  1.00  0.00     0.079 A 
HETATM   11  C3  UNL     1      -2.609   8.701  15.647  1.00  0.00     0.147 A 
HETATM   12  C4  UNL     1      -2.305   7.259  15.404  1.00  0.00     0.179 A 
HETATM   13  O1  UNL     1      -2.554   6.075  15.667  1.00  0.00    -0.291 OA
ATOM     14  H3  UNL     1      -0.452   9.612  13.632  1.00  0.00     0.187 HD
ENDBRANCH   5   9
BRANCH   7  15
HETATM   15  N5  UNL     1      -0.131   9.852  10.922  1.00  0.00    -0.258 N 
HETATM   16  C5  UNL     1      -0.256  10.617   9.724  1.00  0.00     0.222 C 
HETATM   17  N6  UNL     1      -0.329   9.883   8.510  1.00  0.00    -0.061 NA
HETATM   18  N7  UNL     1      -0.302  11.912   9.744  1.00  0.00    -0.279 N 
ATOM     19  H7  UNL     1      -0.250  12.428  10.623  1.00  0.00     0.189 HD
ATOM     20  H5  UNL     1      -0.483  10.227  11.802  1.00  0.00     0.190 HD
BRANCH  18  21
HETATM   21  N8  UNL     1      -0.425  12.580   8.521  1.00  0.00    -0.343 N 
ATOM     22  H82 UNL     1      -1.342  12.701   8.093  1.00  0.00     0.176 HD
ATOM     23  H81 UNL     1       0.427  12.932   8.085  1.00  0.00     0.176 HD
ENDBRANCH  18  21
ENDBRANCH   7  15
TORSDOF 3
ENDMDL
MODEL 3
REMARK VINA RESULT: -6.649147782      1.548      2.006
REMARK  3 active torsions:
REMARK  status: ('A' for Active; 'I' for Inactive)
REMARK       I    between atoms: C1_4  and  N2_5 
REMARK       I    between atoms: C1_4  and  N4_13 
REMARK    1  A    between atoms: N2_5  and  N3_7 
REMARK    2  A    between atoms: N4_13  and  N5_15 
REMARK       I    between atoms: N5_15  and  C5_17 
REMARK    3  A    between atoms: N7_19  and  N8_21 
ROOT
HETATM    1  N1  UNL     1      -1.517   9.178  13.559  1.00  0.00    -0.232 N 
ATOM      2  H11 UNL     1      -1.436   8.333  14.123  1.00  0.00     0.174 HD
ATOM      3  H12 UNL     1      -1.951  10.043  13.880  1.00  0.00     0.174 HD
HETATM    4  C1  UNL     1      -1.028   9.129  12.361  1.00  0.00     0.705 C 
HETATM    5  N2  UNL     1      -1.139  10.294  11.583  1.00  0.00    -0.131 N 
ATOM      6  H2  UNL     1      -0.678  11.154  11.882  1.00  0.00     0.205 HD
HETATM    7  N4  UNL     1      -0.421   7.923  11.914  1.00  0.00    -0.129 N 
ATOM      8  H4  UNL     1       0.394   7.554  12.406  1.00  0.00     0.205 HD
ENDROOT
BRANCH   5   9
HETATM    9  N3  UNL     1      -1.873  10.274  10.416  1.00  0.00    -0.287 N 
HETATM   10  C2  UNL     1      -1.388  10.657   9.289  1.00  0.00     0.079 A 
HETATM   11  C3  UNL     1      -1.469  10.908   7.853  1.00  0.00     0.147 A 
HETATM   12  C4  UNL     1      -0.192  11.200   8.570  1.00  0.00     0.179 A 
HETATM   13  O1  UNL     1       0.976  11.606   8.510  1.00  0.00    -0.291 OA
ATOM     14  H3  UNL     1      -2.837   9.941  10.448  1.00  0.00     0.187 HD
ENDBRANCH   5   9
BRANCH   7  15
HETATM   15  N5  UNL     1      -0.930   7.239  10.808  1.00  0.00    -0.258 N 
HETATM   16  C5  UNL     1      -0.065   6.480   9.962  1.00  0.00     0.222 C 
HETATM   17  N6  UNL     1       1.109   5.958  10.567  1.00  0.00    -0.061 NA
HETATM   18  N7  UNL     1      -0.338   6.281   8.711  1.00  0.00    -0.279 N 
ATOM     19  H7  UNL     1      -1.185   6.660   8.289  1.00  0.00     0.189 HD
ATOM     20  H5  UNL     1      -1.928   7.282  10.602  1.00  0.00     0.190 HD
BRANCH  18  21
HETATM   21  N8  UNL     1       0.568   5.526   7.959  1.00  0.00    -0.343 N 
ATOM     22  H82 UNL     1       0.959   5.904   7.097  1.00  0.00     0.176 HD
ATOM     23  H81 UNL     1       0.814   4.598   8.303  1.00  0.00     0.176 HD
ENDBRANCH  18  21
ENDBRANCH   7  15
TORSDOF 3
ENDMDL
MODEL 4
REMARK VINA RESULT: -6.637884263      3.180      4.829
REMARK  3 active torsions:
REMARK  status: ('A' for Active; 'I' for Inactive)
REMARK       I    between atoms: C1_4  and  N2_5 
REMARK       I    between atoms: C1_4  and  N4_13 
REMARK    1  A    between atoms: N2_5  and  N3_7 
REMARK    2  A    between atoms: N4_13  and  N5_15 
REMARK       I    between atoms: N5_15  and  C5_17 
REMARK    3  A    between atoms: N7_19  and  N8_21 
ROOT
HETATM    1  N1  UNL     1      -0.773   8.734  13.138  1.00  0.00    -0.232 N 
ATOM      2  H11 UNL     1      -0.354   9.438  13.744  1.00  0.00     0.174 HD
ATOM      3  H12 UNL     1      -0.817   7.739  13.358  1.00  0.00     0.174 HD
HETATM    4  C1  UNL     1      -1.278   9.151  12.021  1.00  0.00     0.705 C 
HETATM    5  N2  UNL     1      -1.855   8.180  11.185  1.00  0.00    -0.131 N 
ATOM      6  H2  UNL     1      -2.662   7.645  11.505  1.00  0.00     0.205 HD
HETATM    7  N4  UNL     1      -1.217  10.539  11.714  1.00  0.00    -0.129 N 
ATOM      8  H4  UNL     1      -1.676  11.213  12.327  1.00  0.00     0.205 HD
ENDROOT
BRANCH   5   9
HETATM    9  N3  UNL     1      -1.328   7.952   9.930  1.00  0.00    -0.287 N 
HETATM   10  C2  UNL     1      -0.191   7.378   9.753  1.00  0.00     0.079 A 
HETATM   11  C3  UNL     1       0.888   6.855   8.922  1.00  0.00     0.147 A 
HETATM   12  C4  UNL     1       1.000   6.750  10.408  1.00  0.00     0.179 A 
HETATM   13  O1  UNL     1       1.661   6.381  11.387  1.00  0.00    -0.291 OA
ATOM     14  H3  UNL     1      -1.861   8.250   9.113  1.00  0.00     0.187 HD
ENDBRANCH   5   9
BRANCH   7  15
HETATM   15  N5  UNL     1      -0.536  10.986  10.579  1.00  0.00    -0.258 N 
HETATM   16  C5  UNL     1      -1.132  10.882   9.286  1.00  0.00     0.222 C 
HETATM   17  N6  UNL     1      -2.552  10.900   9.243  1.00  0.00    -0.061 NA
HETATM   18  N7  UNL     1      -0.415  10.776   8.212  1.00  0.00    -0.279 N 
ATOM     19  H7  UNL     1       0.604  10.765   8.257  1.00  0.00     0.189 HD
ATOM     20  H5  UNL     1       0.395  11.390  10.676  1.00  0.00     0.190 HD
BRANCH  18  21
HETATM   21  N8  UNL     1      -1.085  10.678   6.988  1.00  0.00    -0.343 N 
ATOM     22  H82 UNL     1      -1.360  11.521   6.485  1.00  0.00     0.176 HD
ATOM     23  H81 UNL     1      -1.284   9.745   6.629  1.00  0.00     0.176 HD
ENDBRANCH  18  21
ENDBRANCH   7  15
TORSDOF 3
ENDMDL
MODEL 5
REMARK VINA RESULT: -6.556413686      2.150      2.675
REMARK  3 active torsions:
REMARK  status: ('A' for Active; 'I' for Inactive)
REMARK       I    between atoms: C1_4  and  N2_5 
REMARK       I    between atoms: C1_4  and  N4_13 
REMARK    1  A    between atoms: N2_5  and  N3_7 
REMARK    2  A    between atoms: N4_13  and  N5_15 
REMARK       I    between atoms: N5_15  and  C5_17 
REMARK    3  A    between atoms: N7_19  and  N8_21 
ROOT
HETATM    1  N1  UNL     1      -2.201   8.163  12.488  1.00  0.00    -0.232 N 
ATOM      2  H11 UNL     1      -2.193   7.150  12.604  1.00  0.00     0.174 HD
ATOM      3  H12 UNL     1      -3.024   8.750  12.624  1.00  0.00     0.174 HD
HETATM    4  C1  UNL     1      -1.083   8.720  12.146  1.00  0.00     0.705 C 
HETATM    5  N2  UNL     1      -1.095  10.116  11.985  1.00  0.00    -0.131 N 
ATOM      6  H2  UNL     1      -1.309  10.720  12.778  1.00  0.00     0.205 HD
HETATM    7  N4  UNL     1       0.064   7.901  11.957  1.00  0.00    -0.129 N 
ATOM      8  H4  UNL     1       0.424   7.347  12.735  1.00  0.00     0.205 HD
ENDROOT
BRANCH   5   9
HETATM    9  N3  UNL     1      -0.816  10.668  10.752  1.00  0.00    -0.287 N 
HETATM   10  C2  UNL     1      -1.553  10.457   9.719  1.00  0.00     0.079 A 
HETATM   11  C3  UNL     1      -1.902  10.625   8.312  1.00  0.00     0.147 A 
HETATM   12  C4  UNL     1      -2.768   9.771   9.178  1.00  0.00     0.179 A 
HETATM   13  O1  UNL     1      -3.770   9.049   9.275  1.00  0.00    -0.291 OA
ATOM     14  H3  UNL     1       0.005  11.266  10.656  1.00  0.00     0.187 HD
ENDBRANCH   5   9
BRANCH   7  15
HETATM   15  N5  UNL     1       0.703   7.850  10.716  1.00  0.00    -0.258 N 
HETATM   16  C5  UNL     1       0.230   6.975   9.692  1.00  0.00     0.222 C 
HETATM   17  N6  UNL     1      -1.153   6.654   9.726  1.00  0.00    -0.061 NA
HETATM   18  N7  UNL     1       1.022   6.501   8.781  1.00  0.00    -0.279 N 
ATOM     19  H7  UNL     1       2.013   6.741   8.767  1.00  0.00     0.189 HD
ATOM     20  H5  UNL     1       1.515   8.442  10.540  1.00  0.00     0.190 HD
BRANCH  18  21
HETATM   21  N8  UNL     1       0.470   5.650   7.818  1.00  0.00    -0.343 N 
ATOM     22  H82 UNL     1       0.093   4.743   8.090  1.00  0.00     0.176 HD
ATOM     23  H81 UNL     1       0.463   5.971   6.850  1.00  0.00     0.176 HD
ENDBRANCH  18  21
ENDBRANCH   7  15
TORSDOF 3
ENDMDL
