MODEL 1
REMARK VINA RESULT: -7.457341507      0.000      0.000
REMARK  6 active torsions:
REMARK  status: ('A' for Active; 'I' for Inactive)
REMARK    1  A    between atoms: N1_1  and  C1_4 
REMARK    2  A    between atoms: C2_7  and  N3_8 
REMARK    3  A    between atoms: N3_8  and  O1_10 
REMARK    4  A    between atoms: O1_10  and  C3_11 
REMARK    5  A    between atoms: C3_11  and  O2_12 
REMARK    6  A    between atoms: C3_11  and  C4_14 
ROOT
HETATM    1  C1  UNL     1      30.246  23.040  37.483  1.00  0.00     0.153 A 
HETATM    2  N2  UNL     1      31.521  23.463  37.568  1.00  0.00    -0.172 N 
ATOM      3  H2  UNL     1      31.994  23.803  36.731  1.00  0.00     0.186 HD
HETATM    4  C2  UNL     1      32.191  23.442  38.756  1.00  0.00     0.705 A 
HETATM    5  N5  UNL     1      31.531  22.988  39.827  1.00  0.00    -0.166 N 
ATOM      6  H5  UNL     1      32.025  22.971  40.719  1.00  0.00     0.186 HD
HETATM    7  C5  UNL     1      30.268  22.554  39.808  1.00  0.00     0.197 A 
HETATM    8  C6  UNL     1      29.582  22.571  38.608  1.00  0.00     0.167 A 
HETATM    9  O4  UNL     1      28.301  22.079  38.839  1.00  0.00    -0.318 OA
HETATM   10  C7  UNL     1      28.319  21.374  40.084  1.00  0.00     0.354 C 
HETATM   11  O5  UNL     1      29.371  22.042  40.759  1.00  0.00    -0.307 OA
ENDROOT
BRANCH   4  12
HETATM   12  N3  UNL     1      33.391  23.860  38.750  1.00  0.00    -0.093 N 
ATOM     13  H3  UNL     1      33.532  24.841  38.987  1.00  0.00     0.213 HD
BRANCH  12  14
HETATM   14  O1  UNL     1      34.500  23.143  38.462  1.00  0.00    -0.224 OA
BRANCH  14  15
HETATM   15  C3  UNL     1      35.250  23.479  37.307  1.00  0.00     0.377 C 
BRANCH  15  16
HETATM   16  O2  UNL     1      35.309  22.333  36.520  1.00  0.00    -0.362 OA
ATOM     17  H2  UNL     1      34.684  22.452  35.816  1.00  0.00     0.213 HD
ENDBRANCH  15  16
BRANCH  15  18
HETATM   18  C4  UNL     1      34.645  24.578  36.543  1.00  0.00     0.288 C 
HETATM   19  N4  UNL     1      34.703  25.897  37.067  1.00  0.00    -0.057 NA
HETATM   20  O3  UNL     1      34.066  24.418  35.429  1.00  0.00    -0.271 OA
ENDBRANCH  15  18
ENDBRANCH  14  15
ENDBRANCH  12  14
ENDBRANCH   4  12
BRANCH   1  21
HETATM   21  N1  UNL     1      29.575  23.043  36.371  1.00  0.00    -0.383 N 
ATOM     22  H12 UNL     1      29.862  23.722  35.666  1.00  0.00     0.157 HD
ATOM     23  H11 UNL     1      28.797  22.408  36.193  1.00  0.00     0.157 HD
ENDBRANCH   1  21
TORSDOF 6
ENDMDL
MODEL 2
REMARK VINA RESULT: -7.300862421      1.566      1.593
REMARK  6 active torsions:
REMARK  status: ('A' for Active; 'I' for Inactive)
REMARK    1  A    between atoms: N1_1  and  C1_4 
REMARK    2  A    between atoms: C2_7  and  N3_8 
REMARK    3  A    between atoms: N3_8  and  O1_10 
REMARK    4  A    between atoms: O1_10  and  C3_11 
REMARK    5  A    between atoms: C3_11  and  O2_12 
REMARK    6  A    between atoms: C3_11  and  C4_14 
ROOT
HETATM    1  C1  UNL     1      30.484  24.387  38.539  1.00  0.00     0.153 A 
HETATM    2  N2  UNL     1      31.809  24.285  38.329  1.00  0.00    -0.172 N 
ATOM      3  H2  UNL     1      32.173  24.347  37.378  1.00  0.00     0.186 HD
HETATM    4  C2  UNL     1      32.674  24.100  39.368  1.00  0.00     0.705 A 
HETATM    5  N5  UNL     1      32.152  24.025  40.597  1.00  0.00    -0.166 N 
ATOM      6  H5  UNL     1      32.793  23.888  41.379  1.00  0.00     0.186 HD
HETATM    7  C5  UNL     1      30.849  24.117  40.871  1.00  0.00     0.197 A 
HETATM    8  C6  UNL     1      29.966  24.304  39.824  1.00  0.00     0.167 A 
HETATM    9  O4  UNL     1      28.680  24.371  40.353  1.00  0.00    -0.318 OA
HETATM   10  C7  UNL     1      28.718  23.816  41.671  1.00  0.00     0.354 C 
HETATM   11  O5  UNL     1      30.064  24.072  42.035  1.00  0.00    -0.307 OA
ENDROOT
BRANCH   4  12
HETATM   12  N3  UNL     1      33.909  24.016  39.083  1.00  0.00    -0.093 N 
ATOM     13  H3  UNL     1      34.531  24.671  39.557  1.00  0.00     0.213 HD
BRANCH  12  14
HETATM   14  O1  UNL     1      34.488  23.151  38.220  1.00  0.00    -0.224 OA
BRANCH  14  15
HETATM   15  C3  UNL     1      35.276  23.668  37.161  1.00  0.00     0.377 C 
BRANCH  15  16
HETATM   16  O2  UNL     1      35.551  22.603  36.309  1.00  0.00    -0.362 OA
ATOM     17  H2  UNL     1      36.084  22.947  35.603  1.00  0.00     0.213 HD
ENDBRANCH  15  16
BRANCH  15  18
HETATM   18  C4  UNL     1      34.591  24.736  36.420  1.00  0.00     0.288 C 
HETATM   19  N4  UNL     1      34.462  26.017  37.017  1.00  0.00    -0.057 NA
HETATM   20  O3  UNL     1      34.104  24.580  35.262  1.00  0.00    -0.271 OA
ENDBRANCH  15  18
ENDBRANCH  14  15
ENDBRANCH  12  14
ENDBRANCH   4  12
BRANCH   1  21
HETATM   21  N1  UNL     1      29.629  24.562  37.578  1.00  0.00    -0.383 N 
ATOM     22  H12 UNL     1      29.968  25.049  36.747  1.00  0.00     0.157 HD
ATOM     23  H11 UNL     1      28.663  24.240  37.630  1.00  0.00     0.157 HD
ENDBRANCH   1  21
TORSDOF 6
ENDMDL
MODEL 3
REMARK VINA RESULT: -7.292957151      1.366      2.245
REMARK  6 active torsions:
REMARK  status: ('A' for Active; 'I' for Inactive)
REMARK    1  A    between atoms: N1_1  and  C1_4 
REMARK    2  A    between atoms: C2_7  and  N3_8 
REMARK    3  A    between atoms: N3_8  and  O1_10 
REMARK    4  A    between atoms: O1_10  and  C3_11 
REMARK    5  A    between atoms: C3_11  and  O2_12 
REMARK    6  A    between atoms: C3_11  and  C4_14 
ROOT
HETATM    1  C1  UNL     1      30.592  22.996  40.026  1.00  0.00     0.153 A 
HETATM    2  N2  UNL     1      31.901  23.303  39.999  1.00  0.00    -0.172 N 
ATOM      3  H2  UNL     1      32.413  23.398  40.876  1.00  0.00     0.186 HD
HETATM    4  C2  UNL     1      32.556  23.489  38.816  1.00  0.00     0.705 A 
HETATM    5  N5  UNL     1      31.844  23.354  37.691  1.00  0.00    -0.166 N 
ATOM      6  H5  UNL     1      32.327  23.491  36.804  1.00  0.00     0.186 HD
HETATM    7  C5  UNL     1      30.545  23.052  37.652  1.00  0.00     0.197 A 
HETATM    8  C6  UNL     1      29.874  22.862  38.845  1.00  0.00     0.167 A 
HETATM    9  O4  UNL     1      28.548  22.560  38.550  1.00  0.00    -0.318 OA
HETATM   10  C7  UNL     1      28.295  22.964  37.201  1.00  0.00     0.354 C 
HETATM   11  O5  UNL     1      29.592  22.858  36.638  1.00  0.00    -0.307 OA
ENDROOT
BRANCH   4  12
HETATM   12  N3  UNL     1      33.792  23.776  38.879  1.00  0.00    -0.093 N 
ATOM     13  H3  UNL     1      34.035  24.632  39.378  1.00  0.00     0.213 HD
BRANCH  12  14
HETATM   14  O1  UNL     1      34.819  23.069  38.357  1.00  0.00    -0.224 OA
BRANCH  14  15
HETATM   15  C3  UNL     1      35.485  23.575  37.213  1.00  0.00     0.377 C 
BRANCH  15  16
HETATM   16  O2  UNL     1      35.513  22.546  36.277  1.00  0.00    -0.362 OA
ATOM     17  H2  UNL     1      36.130  22.806  35.603  1.00  0.00     0.213 HD
ENDBRANCH  15  16
BRANCH  15  18
HETATM   18  C4  UNL     1      34.810  24.749  36.643  1.00  0.00     0.288 C 
HETATM   19  N4  UNL     1      33.986  24.584  35.499  1.00  0.00    -0.057 NA
HETATM   20  O3  UNL     1      34.921  25.917  37.119  1.00  0.00    -0.271 OA
ENDBRANCH  15  18
ENDBRANCH  14  15
ENDBRANCH  12  14
ENDBRANCH   4  12
BRANCH   1  21
HETATM   21  N1  UNL     1      29.934  22.811  41.130  1.00  0.00    -0.383 N 
ATOM     22  H12 UNL     1      29.510  21.893  41.262  1.00  0.00     0.157 HD
ATOM     23  H11 UNL     1      29.833  23.535  41.842  1.00  0.00     0.157 HD
ENDBRANCH   1  21
TORSDOF 6
ENDMDL
MODEL 4
REMARK VINA RESULT: -7.209555488      2.305      3.053
REMARK  6 active torsions:
REMARK  status: ('A' for Active; 'I' for Inactive)
REMARK    1  A    between atoms: N1_1  and  C1_4 
REMARK    2  A    between atoms: C2_7  and  N3_8 
REMARK    3  A    between atoms: N3_8  and  O1_10 
REMARK    4  A    between atoms: O1_10  and  C3_11 
REMARK    5  A    between atoms: C3_11  and  O2_12 
REMARK    6  A    between atoms: C3_11  and  C4_14 
ROOT
HETATM    1  C1  UNL     1      30.574  23.195  40.809  1.00  0.00     0.153 A 
HETATM    2  N2  UNL     1      31.383  23.038  39.745  1.00  0.00    -0.172 N 
ATOM      3  H2  UNL     1      31.161  22.329  39.046  1.00  0.00     0.186 HD
HETATM    4  C2  UNL     1      32.496  23.812  39.587  1.00  0.00     0.705 A 
HETATM    5  N5  UNL     1      32.747  24.727  40.530  1.00  0.00    -0.166 N 
ATOM      6  H5  UNL     1      33.577  25.310  40.418  1.00  0.00     0.186 HD
HETATM    7  C5  UNL     1      31.986  24.931  41.607  1.00  0.00     0.197 A 
HETATM    8  C6  UNL     1      30.857  24.152  41.774  1.00  0.00     0.167 A 
HETATM    9  O4  UNL     1      30.233  24.546  42.955  1.00  0.00    -0.318 OA
HETATM   10  C7  UNL     1      31.186  25.281  43.730  1.00  0.00     0.354 C 
HETATM   11  O5  UNL     1      32.024  25.798  42.711  1.00  0.00    -0.307 OA
ENDROOT
BRANCH   4  12
HETATM   12  N3  UNL     1      33.205  23.599  38.555  1.00  0.00    -0.093 N 
ATOM     13  H3  UNL     1      32.737  23.698  37.654  1.00  0.00     0.213 HD
BRANCH  12  14
HETATM   14  O1  UNL     1      34.512  23.257  38.521  1.00  0.00    -0.224 OA
BRANCH  14  15
HETATM   15  C3  UNL     1      35.261  23.533  37.349  1.00  0.00     0.377 C 
BRANCH  15  16
HETATM   16  O2  UNL     1      35.314  22.350  36.619  1.00  0.00    -0.362 OA
ATOM     17  H2  UNL     1      35.774  21.717  37.158  1.00  0.00     0.213 HD
ENDBRANCH  15  16
BRANCH  15  18
HETATM   18  C4  UNL     1      34.657  24.596  36.534  1.00  0.00     0.288 C 
HETATM   19  N4  UNL     1      34.601  25.917  37.054  1.00  0.00    -0.057 NA
HETATM   20  O3  UNL     1      34.179  24.403  35.378  1.00  0.00    -0.271 OA
ENDBRANCH  15  18
ENDBRANCH  14  15
ENDBRANCH  12  14
ENDBRANCH   4  12
BRANCH   1  21
HETATM   21  N1  UNL     1      29.507  22.479  40.995  1.00  0.00    -0.383 N 
ATOM     22  H12 UNL     1      29.595  21.682  41.625  1.00  0.00     0.157 HD
ATOM     23  H11 UNL     1      28.617  22.685  40.542  1.00  0.00     0.157 HD
ENDBRANCH   1  21
TORSDOF 6
ENDMDL
MODEL 5
REMARK VINA RESULT: -7.173532904      2.953      3.820
REMARK  6 active torsions:
REMARK  status: ('A' for Active; 'I' for Inactive)
REMARK    1  A    between atoms: N1_1  and  C1_4 
REMARK    2  A    between atoms: C2_7  and  N3_8 
REMARK    3  A    between atoms: N3_8  and  O1_10 
REMARK    4  A    between atoms: O1_10  and  C3_11 
REMARK    5  A    between atoms: C3_11  and  O2_12 
REMARK    6  A    between atoms: C3_11  and  C4_14 
ROOT
HETATM    1  C1  UNL     1      30.909  25.800  41.993  1.00  0.00     0.153 A 
HETATM    2  N2  UNL     1      31.680  25.481  40.938  1.00  0.00    -0.172 N 
ATOM      3  H2  UNL     1      32.048  26.222  40.342  1.00  0.00     0.186 HD
HETATM    4  C2  UNL     1      31.975  24.180  40.650  1.00  0.00     0.705 A 
HETATM    5  N5  UNL     1      31.469  23.241  41.459  1.00  0.00    -0.166 N 
ATOM      6  H5  UNL     1      31.687  22.267  41.251  1.00  0.00     0.186 HD
HETATM    7  C5  UNL     1      30.699  23.493  42.519  1.00  0.00     0.197 A 
HETATM    8  C6  UNL     1      30.395  24.808  42.817  1.00  0.00     0.167 A 
HETATM    9  O4  UNL     1      29.590  24.817  43.953  1.00  0.00    -0.318 OA
HETATM   10  C7  UNL     1      29.055  23.500  44.121  1.00  0.00     0.354 C 
HETATM   11  O5  UNL     1      30.059  22.717  43.499  1.00  0.00    -0.307 OA
ENDROOT
BRANCH   4  12
HETATM   12  N3  UNL     1      32.709  23.965  39.637  1.00  0.00    -0.093 N 
ATOM     13  H3  UNL     1      32.526  23.107  39.116  1.00  0.00     0.213 HD
BRANCH  12  14
HETATM   14  O1  UNL     1      33.708  24.750  39.173  1.00  0.00    -0.224 OA
BRANCH  14  15
HETATM   15  C3  UNL     1      34.152  24.574  37.839  1.00  0.00     0.377 C 
BRANCH  15  16
HETATM   16  O2  UNL     1      34.860  25.722  37.497  1.00  0.00    -0.362 OA
ATOM     17  H2  UNL     1      34.306  26.220  36.909  1.00  0.00     0.213 HD
ENDBRANCH  15  16
BRANCH  15  18
HETATM   18  C4  UNL     1      35.011  23.392  37.683  1.00  0.00     0.288 C 
HETATM   19  N4  UNL     1      35.229  22.864  36.383  1.00  0.00    -0.057 NA
HETATM   20  O3  UNL     1      35.577  22.809  38.653  1.00  0.00    -0.271 OA
ENDBRANCH  15  18
ENDBRANCH  14  15
ENDBRANCH  12  14
ENDBRANCH   4  12
BRANCH   1  21
HETATM   21  N1  UNL     1      30.605  27.025  42.299  1.00  0.00    -0.383 N 
ATOM     22  H12 UNL     1      29.626  27.292  42.197  1.00  0.00     0.157 HD
ATOM     23  H11 UNL     1      31.296  27.702  42.624  1.00  0.00     0.157 HD
ENDBRANCH   1  21
TORSDOF 6
ENDMDL
