MODEL 1
REMARK VINA RESULT: -7.799663991      0.000      0.000
REMARK  3 active torsions:
REMARK  status: ('A' for Active; 'I' for Inactive)
REMARK    1  A    between atoms: C2_2  and  N1_3 
REMARK    2  A    between atoms: C3_6  and  C4_7 
REMARK    3  A    between atoms: C5_12  and  N5_13 
ROOT
HETATM    1  N1  UNL     1      -2.510   7.496  14.264  1.00  0.00    -0.242 N 
HETATM    2  N2  UNL     1      -2.548   8.059  13.076  1.00  0.00    -0.289 N 
ATOM      3  H2  UNL     1      -3.454   8.341  12.702  1.00  0.00     0.187 HD
HETATM    4  C3  UNL     1      -1.474   8.277  12.346  1.00  0.00     0.126 A 
HETATM    5  C7  UNL     1      -0.200   7.910  12.815  1.00  0.00     0.134 A 
HETATM    6  N7  UNL     1       0.798   8.106  12.154  1.00  0.00    -0.383 N 
ATOM      7  H71 UNL     1       1.723   7.839  12.494  1.00  0.00     0.157 HD
ATOM      8  H72 UNL     1       0.778   8.542  11.233  1.00  0.00     0.157 HD
HETATM    9  N8  UNL     1      -0.172   7.323  14.057  1.00  0.00    -0.292 N 
ATOM     10  H8  UNL     1       0.716   7.028  14.463  1.00  0.00     0.172 HD
HETATM   11  C8  UNL     1      -1.304   7.140  14.727  1.00  0.00     0.342 A 
HETATM   12  O2  UNL     1      -1.247   6.592  15.879  1.00  0.00    -0.245 OA
ENDROOT
BRANCH   4  13
HETATM   13  C4  UNL     1      -1.541   8.913  11.012  1.00  0.00     0.149 A 
HETATM   14  N3  UNL     1      -1.681  10.235  10.850  1.00  0.00    -0.279 N 
HETATM   15  N4  UNL     1      -1.739  10.778   9.635  1.00  0.00    -0.132 N 
ATOM     16  H3  UNL     1      -1.745  10.836  11.671  1.00  0.00     0.188 HD
HETATM   17  C5  UNL     1      -1.661  10.054   8.505  1.00  0.00     0.693 A 
ATOM     18  H4  UNL     1      -1.846  11.789   9.559  1.00  0.00     0.205 HD
HETATM   19  N6  UNL     1      -1.520   8.722   8.632  1.00  0.00    -0.153 N 
HETATM   20  C6  UNL     1      -1.459   8.148   9.868  1.00  0.00     0.290 A 
ATOM     21  H6  UNL     1      -1.457   8.137   7.798  1.00  0.00     0.187 HD
HETATM   22  O1  UNL     1      -1.328   6.910   9.985  1.00  0.00    -0.265 OA
BRANCH  17  23
HETATM   23  N5  UNL     1      -1.720  10.615   7.332  1.00  0.00    -0.233 N 
ATOM     24  H52 UNL     1      -2.002  11.589   7.228  1.00  0.00     0.174 HD
ATOM     25  H51 UNL     1      -1.486  10.101   6.483  1.00  0.00     0.174 HD
ENDBRANCH  17  23
ENDBRANCH   4  13
BRANCH   1  26
HETATM   26  C2  UNL     1      -3.734   7.294  14.996  1.00  0.00     0.149 C 
HETATM   27  C1  UNL     1      -4.452   6.020  14.545  1.00  0.00     0.028 C 
ENDBRANCH   1  26
TORSDOF 3
ENDMDL
MODEL 2
REMARK VINA RESULT: -7.732708831      1.925      5.762
REMARK  3 active torsions:
REMARK  status: ('A' for Active; 'I' for Inactive)
REMARK    1  A    between atoms: C2_2  and  N1_3 
REMARK    2  A    between atoms: C3_6  and  C4_7 
REMARK    3  A    between atoms: C5_12  and  N5_13 
ROOT
HETATM    1  N1  UNL     1      -1.813   9.252  10.865  1.00  0.00    -0.242 N 
HETATM    2  N2  UNL     1      -2.488   8.838  11.915  1.00  0.00    -0.289 N 
ATOM      3  H2  UNL     1      -3.487   9.035  11.958  1.00  0.00     0.187 HD
HETATM    4  C3  UNL     1      -1.935   8.184  12.915  1.00  0.00     0.126 A 
HETATM    5  C7  UNL     1      -0.561   7.884  12.907  1.00  0.00     0.134 A 
HETATM    6  N7  UNL     1      -0.039   7.280  13.821  1.00  0.00    -0.383 N 
ATOM      7  H71 UNL     1       0.958   7.063  13.815  1.00  0.00     0.157 HD
ATOM      8  H72 UNL     1      -0.554   6.956  14.639  1.00  0.00     0.157 HD
HETATM    9  N8  UNL     1       0.134   8.320  11.804  1.00  0.00    -0.292 N 
ATOM     10  H8  UNL     1       1.135   8.141  11.728  1.00  0.00     0.172 HD
HETATM   11  C8  UNL     1      -0.502   8.975  10.839  1.00  0.00     0.342 A 
HETATM   12  O2  UNL     1       0.170   9.367   9.827  1.00  0.00    -0.245 OA
ENDROOT
BRANCH   4  13
HETATM   13  C4  UNL     1      -2.714   7.729  14.088  1.00  0.00     0.149 A 
HETATM   14  N3  UNL     1      -3.282   6.518  14.150  1.00  0.00    -0.279 N 
HETATM   15  N4  UNL     1      -3.978   6.136  15.219  1.00  0.00    -0.132 N 
ATOM     16  H3  UNL     1      -3.180   5.876  13.363  1.00  0.00     0.188 HD
HETATM   17  C5  UNL     1      -4.157   6.923  16.295  1.00  0.00     0.693 A 
ATOM     18  H4  UNL     1      -4.394   5.205  15.223  1.00  0.00     0.205 HD
HETATM   19  N6  UNL     1      -3.599   8.146  16.267  1.00  0.00    -0.153 N 
HETATM   20  C6  UNL     1      -2.883   8.555  15.179  1.00  0.00     0.290 A 
ATOM     21  H6  UNL     1      -3.712   8.773  17.064  1.00  0.00     0.187 HD
HETATM   22  O1  UNL     1      -2.364   9.692  15.153  1.00  0.00    -0.265 OA
BRANCH  17  23
HETATM   23  N5  UNL     1      -4.842   6.520  17.326  1.00  0.00    -0.233 N 
ATOM     24  H52 UNL     1      -4.377   6.201  18.175  1.00  0.00     0.174 HD
ATOM     25  H51 UNL     1      -5.861   6.511  17.318  1.00  0.00     0.174 HD
ENDBRANCH  17  23
ENDBRANCH   4  13
BRANCH   1  26
HETATM   26  C2  UNL     1      -2.495   9.963   9.815  1.00  0.00     0.149 C 
HETATM   27  C1  UNL     1      -3.554   9.086   9.141  1.00  0.00     0.028 C 
ENDBRANCH   1  26
TORSDOF 3
ENDMDL
MODEL 3
REMARK VINA RESULT: -7.581446364      1.117      1.502
REMARK  3 active torsions:
REMARK  status: ('A' for Active; 'I' for Inactive)
REMARK    1  A    between atoms: C2_2  and  N1_3 
REMARK    2  A    between atoms: C3_6  and  C4_7 
REMARK    3  A    between atoms: C5_12  and  N5_13 
ROOT
HETATM    1  N1  UNL     1      -2.383   7.283  14.196  1.00  0.00    -0.242 N 
HETATM    2  N2  UNL     1      -2.425   7.855  13.013  1.00  0.00    -0.289 N 
ATOM      3  H2  UNL     1      -3.328   8.172  12.659  1.00  0.00     0.187 HD
HETATM    4  C3  UNL     1      -1.359   8.038  12.262  1.00  0.00     0.126 A 
HETATM    5  C7  UNL     1      -0.089   7.622  12.702  1.00  0.00     0.134 A 
HETATM    6  N7  UNL     1       0.901   7.785  12.022  1.00  0.00    -0.383 N 
ATOM      7  H71 UNL     1       1.822   7.482  12.341  1.00  0.00     0.157 HD
ATOM      8  H72 UNL     1       0.878   8.228  11.103  1.00  0.00     0.157 HD
HETATM    9  N8  UNL     1      -0.058   7.025  13.940  1.00  0.00    -0.292 N 
ATOM     10  H8  UNL     1       0.827   6.695  14.326  1.00  0.00     0.172 HD
HETATM   11  C8  UNL     1      -1.182   6.879  14.632  1.00  0.00     0.342 A 
HETATM   12  O2  UNL     1      -1.121   6.322  15.779  1.00  0.00    -0.245 OA
ENDROOT
BRANCH   4  13
HETATM   13  C4  UNL     1      -1.430   8.684  10.933  1.00  0.00     0.149 A 
HETATM   14  N3  UNL     1      -1.358   7.990   9.790  1.00  0.00    -0.279 N 
HETATM   15  N4  UNL     1      -1.425   8.600   8.608  1.00  0.00    -0.132 N 
ATOM     16  H3  UNL     1      -1.250   6.976   9.826  1.00  0.00     0.188 HD
HETATM   17  C5  UNL     1      -1.568   9.930   8.477  1.00  0.00     0.693 A 
ATOM     18  H4  UNL     1      -1.365   8.031   7.763  1.00  0.00     0.205 HD
HETATM   19  N6  UNL     1      -1.645  10.658   9.606  1.00  0.00    -0.153 N 
HETATM   20  C6  UNL     1      -1.578  10.051  10.826  1.00  0.00     0.290 A 
ATOM     21  H6  UNL     1      -1.754  11.671   9.549  1.00  0.00     0.187 HD
HETATM   22  O1  UNL     1      -1.649  10.727  11.875  1.00  0.00    -0.265 OA
BRANCH  17  23
HETATM   23  N5  UNL     1      -1.631  10.496   7.307  1.00  0.00    -0.233 N 
ATOM     24  H52 UNL     1      -1.294  10.018   6.472  1.00  0.00     0.174 HD
ATOM     25  H51 UNL     1      -2.019  11.432   7.188  1.00  0.00     0.174 HD
ENDBRANCH  17  23
ENDBRANCH   4  13
BRANCH   1  26
HETATM   26  C2  UNL     1      -3.598   7.120  14.952  1.00  0.00     0.149 C 
HETATM   27  C1  UNL     1      -4.389   5.896  14.485  1.00  0.00     0.028 C 
ENDBRANCH   1  26
TORSDOF 3
ENDMDL
MODEL 4
REMARK VINA RESULT: -7.527309050      1.754      1.964
REMARK  3 active torsions:
REMARK  status: ('A' for Active; 'I' for Inactive)
REMARK    1  A    between atoms: C2_2  and  N1_3 
REMARK    2  A    between atoms: C3_6  and  C4_7 
REMARK    3  A    between atoms: C5_12  and  N5_13 
ROOT
HETATM    1  N1  UNL     1      -2.675   7.159  13.649  1.00  0.00    -0.242 N 
HETATM    2  N2  UNL     1      -2.419   8.199  12.887  1.00  0.00    -0.289 N 
ATOM      3  H2  UNL     1      -2.873   9.085  13.107  1.00  0.00     0.187 HD
HETATM    4  C3  UNL     1      -1.605   8.152  11.852  1.00  0.00     0.126 A 
HETATM    5  C7  UNL     1      -0.952   6.956  11.504  1.00  0.00     0.134 A 
HETATM    6  N7  UNL     1      -0.200   6.898  10.555  1.00  0.00    -0.383 N 
ATOM      7  H71 UNL     1       0.274   6.030  10.302  1.00  0.00     0.157 HD
ATOM      8  H72 UNL     1       0.005   7.700   9.959  1.00  0.00     0.157 HD
HETATM    9  N8  UNL     1      -1.227   5.876  12.308  1.00  0.00    -0.292 N 
ATOM     10  H8  UNL     1      -0.792   4.973  12.117  1.00  0.00     0.172 HD
HETATM   11  C8  UNL     1      -2.062   6.010  13.332  1.00  0.00     0.342 A 
HETATM   12  O2  UNL     1      -2.298   4.988  14.062  1.00  0.00    -0.245 OA
ENDROOT
BRANCH   4  13
HETATM   13  C4  UNL     1      -1.332   9.336  11.008  1.00  0.00     0.149 A 
HETATM   14  N3  UNL     1      -0.186  10.024  11.083  1.00  0.00    -0.279 N 
HETATM   15  N4  UNL     1       0.032  11.087  10.309  1.00  0.00    -0.132 N 
ATOM     16  H3  UNL     1       0.533   9.730  11.743  1.00  0.00     0.188 HD
HETATM   17  C5  UNL     1      -0.865  11.537   9.414  1.00  0.00     0.693 A 
ATOM     18  H4  UNL     1       0.919  11.582  10.400  1.00  0.00     0.205 HD
HETATM   19  N6  UNL     1      -2.028  10.868   9.313  1.00  0.00    -0.153 N 
HETATM   20  C6  UNL     1      -2.268   9.777  10.097  1.00  0.00     0.290 A 
ATOM     21  H6  UNL     1      -2.734  11.178   8.645  1.00  0.00     0.187 HD
HETATM   22  O1  UNL     1      -3.349   9.156  10.003  1.00  0.00    -0.265 OA
BRANCH  17  23
HETATM   23  N5  UNL     1      -0.622  12.578   8.672  1.00  0.00    -0.233 N 
ATOM     24  H52 UNL     1       0.280  13.053   8.710  1.00  0.00     0.174 HD
ATOM     25  H51 UNL     1      -1.322  12.951   8.032  1.00  0.00     0.174 HD
ENDBRANCH  17  23
ENDBRANCH   4  13
BRANCH   1  26
HETATM   26  C2  UNL     1      -3.579   7.296  14.762  1.00  0.00     0.149 C 
HETATM   27  C1  UNL     1      -3.019   8.246  15.823  1.00  0.00     0.028 C 
ENDBRANCH   1  26
TORSDOF 3
ENDMDL
MODEL 5
REMARK VINA RESULT: -7.420389774      2.516      4.005
REMARK  3 active torsions:
REMARK  status: ('A' for Active; 'I' for Inactive)
REMARK    1  A    between atoms: C2_2  and  N1_3 
REMARK    2  A    between atoms: C3_6  and  C4_7 
REMARK    3  A    between atoms: C5_12  and  N5_13 
ROOT
HETATM    1  N1  UNL     1      -0.887   5.669  16.996  1.00  0.00    -0.242 N 
HETATM    2  N2  UNL     1      -0.872   6.343  15.867  1.00  0.00    -0.289 N 
ATOM      3  H2  UNL     1      -0.063   6.243  15.254  1.00  0.00     0.187 HD
HETATM    4  C3  UNL     1      -1.850   7.139  15.489  1.00  0.00     0.126 A 
HETATM    5  C7  UNL     1      -2.990   7.312  16.295  1.00  0.00     0.134 A 
HETATM    6  N7  UNL     1      -3.898   8.042  15.959  1.00  0.00    -0.383 N 
ATOM      7  H71 UNL     1      -4.725   8.167  16.545  1.00  0.00     0.157 HD
ATOM      8  H72 UNL     1      -3.895   8.568  15.086  1.00  0.00     0.157 HD
HETATM    9  N8  UNL     1      -2.995   6.603  17.473  1.00  0.00    -0.292 N 
ATOM     10  H8  UNL     1      -3.787   6.678  18.111  1.00  0.00     0.172 HD
HETATM   11  C8  UNL     1      -1.966   5.821  17.778  1.00  0.00     0.342 A 
HETATM   12  O2  UNL     1      -1.999   5.175  18.878  1.00  0.00    -0.245 OA
ENDROOT
BRANCH   4  13
HETATM   13  C4  UNL     1      -1.811   7.888  14.213  1.00  0.00     0.149 A 
HETATM   14  N3  UNL     1      -1.727   9.224  14.165  1.00  0.00    -0.279 N 
HETATM   15  N4  UNL     1      -1.694   9.870  13.000  1.00  0.00    -0.132 N 
ATOM     16  H3  UNL     1      -1.688   9.755  15.034  1.00  0.00     0.188 HD
HETATM   17  C5  UNL     1      -1.739   9.242  11.813  1.00  0.00     0.693 A 
ATOM     18  H4  UNL     1      -1.630  10.888  13.011  1.00  0.00     0.205 HD
HETATM   19  N6  UNL     1      -1.823   7.899  11.825  1.00  0.00    -0.153 N 
HETATM   20  C6  UNL     1      -1.859   7.220  13.008  1.00  0.00     0.290 A 
ATOM     21  H6  UNL     1      -1.860   7.386  10.944  1.00  0.00     0.187 HD
HETATM   22  O1  UNL     1      -1.937   5.973  13.020  1.00  0.00    -0.265 OA
BRANCH  17  23
HETATM   23  N5  UNL     1      -1.704   9.903  10.692  1.00  0.00    -0.233 N 
ATOM     24  H52 UNL     1      -0.857  10.383  10.390  1.00  0.00     0.174 HD
ATOM     25  H51 UNL     1      -2.519   9.961  10.082  1.00  0.00     0.174 HD
ENDBRANCH  17  23
ENDBRANCH   4  13
BRANCH   1  26
HETATM   26  C2  UNL     1       0.225   4.819  17.334  1.00  0.00     0.149 C 
HETATM   27  C1  UNL     1       0.274   3.579  16.438  1.00  0.00     0.028 C 
ENDBRANCH   1  26
TORSDOF 3
ENDMDL
