MODEL 1
REMARK VINA RESULT: -6.181057284      0.000      0.000
REMARK  4 active torsions:
REMARK  status: ('A' for Active; 'I' for Inactive)
REMARK    1  A    between atoms: N1_1  and  N2_4 
REMARK    2  A    between atoms: N2_4  and  N3_6 
REMARK       I    between atoms: N3_6  and  C1_8 
REMARK       I    between atoms: C1_8  and  N4_9 
REMARK    3  A    between atoms: C2_11  and  O1_13 
REMARK    4  A    between atoms: N6_15  and  C3_17 
ROOT
HETATM    1  N3  UNL     1      -2.115  11.008   9.571  1.00  0.00    -0.118 N 
ATOM      2  H3  UNL     1      -1.972  12.015   9.490  1.00  0.00     0.207 HD
HETATM    3  C1  UNL     1      -1.160  10.300  10.325  1.00  0.00     0.703 C 
HETATM    4  N4  UNL     1      -1.575   9.243  11.167  1.00  0.00    -0.156 N 
ATOM      5  H4  UNL     1      -2.536   9.228  11.507  1.00  0.00     0.187 HD
HETATM    6  C2  UNL     1      -0.780   8.310  11.510  1.00  0.00     0.243 C 
HETATM    7  N5  UNL     1      -1.292   7.291  12.360  1.00  0.00    -0.056 NA
HETATM    8  N6  UNL     1       0.075  10.607  10.253  1.00  0.00    -0.166 N 
ATOM      9  H6  UNL     1       0.724  10.062  10.821  1.00  0.00     0.186 HD
ENDROOT
BRANCH   1  10
HETATM   10  N2  UNL     1      -3.207  10.502   8.940  1.00  0.00    -0.235 N 
ATOM     11  H2  UNL     1      -4.141  10.840   9.175  1.00  0.00     0.208 HD
BRANCH  10  12
HETATM   12  N1  UNL     1      -3.045   9.553   8.002  1.00  0.00    -0.330 N 
ATOM     13  H12 UNL     1      -2.281   8.884   8.095  1.00  0.00     0.178 HD
ATOM     14  H11 UNL     1      -3.689   9.516   7.212  1.00  0.00     0.178 HD
ENDBRANCH  10  12
ENDBRANCH   1  10
BRANCH   8  15
HETATM   15  C3  UNL     1       0.618  11.629   9.460  1.00  0.00     0.368 C 
HETATM   16  O2  UNL     1       0.659  11.641   8.213  1.00  0.00    -0.283 OA
ENDBRANCH   8  15
BRANCH   6  17
HETATM   17  O1  UNL     1       0.546   8.220  11.112  1.00  0.00    -0.334 OA
ATOM     18  H1  UNL     1       1.243   7.851  11.641  1.00  0.00     0.220 HD
ENDBRANCH   6  17
TORSDOF 4
ENDMDL
MODEL 2
REMARK VINA RESULT: -5.907798287      1.631      3.688
REMARK  4 active torsions:
REMARK  status: ('A' for Active; 'I' for Inactive)
REMARK    1  A    between atoms: N1_1  and  N2_4 
REMARK    2  A    between atoms: N2_4  and  N3_6 
REMARK       I    between atoms: N3_6  and  C1_8 
REMARK       I    between atoms: C1_8  and  N4_9 
REMARK    3  A    between atoms: C2_11  and  O1_13 
REMARK    4  A    between atoms: N6_15  and  C3_17 
ROOT
HETATM    1  N3  UNL     1      -2.166   8.517   9.514  1.00  0.00    -0.118 N 
ATOM      2  H3  UNL     1      -2.227   7.626  10.005  1.00  0.00     0.207 HD
HETATM    3  C1  UNL     1      -1.106   9.365   9.888  1.00  0.00     0.703 C 
HETATM    4  N4  UNL     1      -0.422  10.110   8.900  1.00  0.00    -0.156 N 
ATOM      5  H4  UNL     1      -0.432   9.781   7.935  1.00  0.00     0.187 HD
HETATM    6  C2  UNL     1       0.205  11.180   9.184  1.00  0.00     0.243 C 
HETATM    7  N5  UNL     1       0.862  11.859   8.120  1.00  0.00    -0.056 NA
HETATM    8  N6  UNL     1      -0.760   9.464  11.111  1.00  0.00    -0.166 N 
ATOM      9  H6  UNL     1       0.015  10.092  11.326  1.00  0.00     0.186 HD
ENDROOT
BRANCH   1  10
HETATM   10  N2  UNL     1      -3.116   8.752   8.571  1.00  0.00    -0.235 N 
ATOM     11  H2  UNL     1      -3.338   8.040   7.874  1.00  0.00     0.208 HD
BRANCH  10  12
HETATM   12  N1  UNL     1      -3.762   9.931   8.567  1.00  0.00    -0.330 N 
ATOM     13  H12 UNL     1      -3.398  10.699   8.003  1.00  0.00     0.178 HD
ATOM     14  H11 UNL     1      -4.607  10.039   9.127  1.00  0.00     0.178 HD
ENDBRANCH  10  12
ENDBRANCH   1  10
BRANCH   8  15
HETATM   15  C3  UNL     1      -1.352   8.784  12.185  1.00  0.00     0.368 C 
HETATM   16  O2  UNL     1      -1.534   7.552  12.256  1.00  0.00    -0.283 OA
ENDBRANCH   8  15
BRANCH   6  17
HETATM   17  O1  UNL     1       0.291  11.728  10.456  1.00  0.00    -0.334 OA
ATOM     18  H1  UNL     1      -0.131  12.535  10.725  1.00  0.00     0.220 HD
ENDBRANCH   6  17
TORSDOF 4
ENDMDL
MODEL 3
REMARK VINA RESULT: -5.750835911      2.593      3.431
REMARK  4 active torsions:
REMARK  status: ('A' for Active; 'I' for Inactive)
REMARK    1  A    between atoms: N1_1  and  N2_4 
REMARK    2  A    between atoms: N2_4  and  N3_6 
REMARK       I    between atoms: N3_6  and  C1_8 
REMARK       I    between atoms: C1_8  and  N4_9 
REMARK    3  A    between atoms: C2_11  and  O1_13 
REMARK    4  A    between atoms: N6_15  and  C3_17 
ROOT
HETATM    1  N3  UNL     1      -1.261  10.672   9.638  1.00  0.00    -0.118 N 
ATOM      2  H3  UNL     1      -1.896  11.258   9.096  1.00  0.00     0.207 HD
HETATM    3  C1  UNL     1      -1.244   9.302   9.311  1.00  0.00     0.703 C 
HETATM    4  N4  UNL     1      -0.018   8.598   9.312  1.00  0.00    -0.156 N 
ATOM      5  H4  UNL     1       0.852   9.114   9.185  1.00  0.00     0.187 HD
HETATM    6  C2  UNL     1       0.027   7.336   9.468  1.00  0.00     0.243 C 
HETATM    7  N5  UNL     1       1.309   6.718   9.454  1.00  0.00    -0.056 NA
HETATM    8  N6  UNL     1      -2.325   8.696   9.014  1.00  0.00    -0.166 N 
ATOM      9  H6  UNL     1      -2.254   7.704   8.785  1.00  0.00     0.186 HD
ENDROOT
BRANCH   1  10
HETATM   10  N2  UNL     1      -0.528  11.302  10.593  1.00  0.00    -0.235 N 
ATOM     11  H2  UNL     1      -0.675  11.087  11.580  1.00  0.00     0.208 HD
BRANCH  10  12
HETATM   12  N1  UNL     1       0.393  12.208  10.225  1.00  0.00    -0.330 N 
ATOM     13  H12 UNL     1       1.127  11.939   9.570  1.00  0.00     0.178 HD
ATOM     14  H11 UNL     1       0.344  13.153  10.607  1.00  0.00     0.178 HD
ENDBRANCH  10  12
ENDBRANCH   1  10
BRANCH   8  15
HETATM   15  C3  UNL     1      -3.602   9.274   8.976  1.00  0.00     0.368 C 
HETATM   16  O2  UNL     1      -3.898  10.352   8.422  1.00  0.00    -0.283 OA
ENDBRANCH   8  15
BRANCH   6  17
HETATM   17  O1  UNL     1      -1.083   6.524   9.650  1.00  0.00    -0.334 OA
ATOM     18  H1  UNL     1      -1.047   5.609   9.902  1.00  0.00     0.220 HD
ENDBRANCH   6  17
TORSDOF 4
ENDMDL
MODEL 4
REMARK VINA RESULT: -5.679472965      2.209      3.007
REMARK  4 active torsions:
REMARK  status: ('A' for Active; 'I' for Inactive)
REMARK    1  A    between atoms: N1_1  and  N2_4 
REMARK    2  A    between atoms: N2_4  and  N3_6 
REMARK       I    between atoms: N3_6  and  C1_8 
REMARK       I    between atoms: C1_8  and  N4_9 
REMARK    3  A    between atoms: C2_11  and  O1_13 
REMARK    4  A    between atoms: N6_15  and  C3_17 
ROOT
HETATM    1  N3  UNL     1      -0.285  10.149   9.343  1.00  0.00    -0.118 N 
ATOM      2  H3  UNL     1      -0.545  10.120   8.357  1.00  0.00     0.207 HD
HETATM    3  C1  UNL     1      -0.937   9.231  10.188  1.00  0.00     0.703 C 
HETATM    4  N4  UNL     1      -0.213   8.597  11.224  1.00  0.00    -0.156 N 
ATOM      5  H4  UNL     1       0.800   8.512  11.142  1.00  0.00     0.187 HD
HETATM    6  C2  UNL     1      -0.793   8.132  12.257  1.00  0.00     0.243 C 
HETATM    7  N5  UNL     1       0.022   7.512  13.244  1.00  0.00    -0.056 NA
HETATM    8  N6  UNL     1      -2.172   8.968  10.024  1.00  0.00    -0.166 N 
ATOM      9  H6  UNL     1      -2.594   8.294  10.663  1.00  0.00     0.186 HD
ENDROOT
BRANCH   1  10
HETATM   10  N2  UNL     1       0.653  11.070   9.692  1.00  0.00    -0.235 N 
ATOM     11  H2  UNL     1       1.638  10.905   9.485  1.00  0.00     0.208 HD
BRANCH  10  12
HETATM   12  N1  UNL     1       0.268  12.199  10.310  1.00  0.00    -0.330 N 
ATOM     13  H12 UNL     1      -0.727  12.389  10.433  1.00  0.00     0.178 HD
ATOM     14  H11 UNL     1       0.977  12.850  10.649  1.00  0.00     0.178 HD
ENDBRANCH  10  12
ENDBRANCH   1  10
BRANCH   8  15
HETATM   15  C3  UNL     1      -3.003   9.524   9.039  1.00  0.00     0.368 C 
HETATM   16  O2  UNL     1      -3.053  10.730   8.725  1.00  0.00    -0.283 OA
ENDBRANCH   8  15
BRANCH   6  17
HETATM   17  O1  UNL     1      -2.161   8.187  12.483  1.00  0.00    -0.334 OA
ATOM     18  H1  UNL     1      -2.563   8.533  13.271  1.00  0.00     0.220 HD
ENDBRANCH   6  17
TORSDOF 4
ENDMDL
MODEL 5
REMARK VINA RESULT: -5.452458005      1.972      4.155
REMARK  4 active torsions:
REMARK  status: ('A' for Active; 'I' for Inactive)
REMARK    1  A    between atoms: N1_1  and  N2_4 
REMARK    2  A    between atoms: N2_4  and  N3_6 
REMARK       I    between atoms: N3_6  and  C1_8 
REMARK       I    between atoms: C1_8  and  N4_9 
REMARK    3  A    between atoms: C2_11  and  O1_13 
REMARK    4  A    between atoms: N6_15  and  C3_17 
ROOT
HETATM    1  N3  UNL     1      -2.016   9.089  11.044  1.00  0.00    -0.118 N 
ATOM      2  H3  UNL     1      -3.010   8.940  11.218  1.00  0.00     0.207 HD
HETATM    3  C1  UNL     1      -1.686  10.154  10.183  1.00  0.00     0.703 C 
HETATM    4  N4  UNL     1      -0.557  10.958  10.466  1.00  0.00    -0.156 N 
ATOM      5  H4  UNL     1      -0.216  11.015  11.425  1.00  0.00     0.187 HD
HETATM    6  C2  UNL     1       0.043  11.611   9.553  1.00  0.00     0.243 C 
HETATM    7  N5  UNL     1       1.169  12.391   9.937  1.00  0.00    -0.056 NA
HETATM    8  N6  UNL     1      -2.397  10.397   9.155  1.00  0.00    -0.166 N 
ATOM      9  H6  UNL     1      -2.113  11.181   8.567  1.00  0.00     0.186 HD
ENDROOT
BRANCH   1  10
HETATM   10  N2  UNL     1      -1.161   8.237  11.668  1.00  0.00    -0.235 N 
ATOM     11  H2  UNL     1      -0.850   7.385  11.200  1.00  0.00     0.208 HD
BRANCH  10  12
HETATM   12  N1  UNL     1      -0.729   8.528  12.906  1.00  0.00    -0.330 N 
ATOM     13  H12 UNL     1      -0.581   9.502  13.169  1.00  0.00     0.178 HD
ATOM     14  H11 UNL     1      -0.555   7.769  13.566  1.00  0.00     0.178 HD
ENDBRANCH  10  12
ENDBRANCH   1  10
BRANCH   8  15
HETATM   15  C3  UNL     1      -3.537   9.680   8.761  1.00  0.00     0.368 C 
HETATM   16  O2  UNL     1      -3.646   8.437   8.743  1.00  0.00    -0.283 OA
ENDBRANCH   8  15
BRANCH   6  17
HETATM   17  O1  UNL     1      -0.324  11.613   8.215  1.00  0.00    -0.334 OA
ATOM     18  H1  UNL     1      -0.683  12.363   7.756  1.00  0.00     0.220 HD
ENDBRANCH   6  17
TORSDOF 4
ENDMDL
