MODEL 1
REMARK VINA RESULT: -8.358704370      0.000      0.000
REMARK  7 active torsions:
REMARK  status: ('A' for Active; 'I' for Inactive)
REMARK    1  A    between atoms: O1_2  and  C2_3 
REMARK    2  A    between atoms: C2_3  and  C3_4 
REMARK    3  A    between atoms: C6_8  and  C8_11 
REMARK    4  A    between atoms: C8_11  and  C9_12 
REMARK    5  A    between atoms: C9_12  and  N2_13 
REMARK    6  A    between atoms: C17_23  and  C18_24 
REMARK       I    between atoms: C18_24  and  N3_26 
REMARK    7  A    between atoms: N3_26  and  N4_28 
ROOT
HETATM    1  C3  UNL     1       9.493   9.168  24.289  1.00  0.00     0.152 C 
HETATM    2  C4  UNL     1       8.293   8.687  25.083  1.00  0.00     0.060 C 
HETATM    3  C5  UNL     1       7.065   9.103  24.263  1.00  0.00     0.175 C 
HETATM    4  O2  UNL     1       7.173   8.411  23.059  1.00  0.00    -0.343 OA
HETATM    5  C6  UNL     1       8.302   8.849  22.326  1.00  0.00     0.259 C 
HETATM    6  C7  UNL     1       8.145  10.258  22.105  1.00  0.00     0.128 C 
HETATM    7  N1  UNL     1       8.021  11.394  21.951  1.00  0.00    -0.191 NA
HETATM    8  O4  UNL     1       9.473   8.555  23.063  1.00  0.00    -0.336 OA
ENDROOT
BRANCH   5   9
HETATM    9  C8  UNL     1       8.399   8.015  21.086  1.00  0.00     0.116 C 
BRANCH   9  10
HETATM   10  C9  UNL     1       7.531   6.835  20.997  1.00  0.00     0.279 C 
BRANCH  10  11
HETATM   11  N2  UNL     1       6.800   6.553  19.837  1.00  0.00     0.091 N 
HETATM   12  C10 UNL     1       7.565   6.330  18.633  1.00  0.00     0.289 C 
HETATM   13  C11 UNL     1       7.940   4.912  18.758  1.00  0.00     0.101 C 
HETATM   14  S1  UNL     1       8.440   4.046  17.270  1.00  0.00    -0.147 SA
HETATM   15  C17 UNL     1       6.623   4.271  19.152  1.00  0.00     0.116 C 
HETATM   16  C12 UNL     1       8.350   2.283  17.775  1.00  0.00     0.020 C 
HETATM   17  C13 UNL     1       9.813   1.863  17.985  1.00  0.00     0.031 C 
HETATM   18  C14 UNL     1       7.820   1.419  16.675  1.00  0.00     0.031 C 
HETATM   19  C15 UNL     1       7.683   2.122  19.072  1.00  0.00     0.009 C 
HETATM   20  C16 UNL     1       6.917   2.966  19.716  1.00  0.00     0.007 C 
HETATM   21 BR1  UNL     1       6.182   2.467  21.409  1.00  0.00    -0.055 Br
HETATM   22  C19 UNL     1       6.074   5.296  20.075  1.00  0.00     0.298 C 
BRANCH  15  23
HETATM   23  C18 UNL     1       5.692   4.126  18.016  1.00  0.00     0.252 C 
HETATM   24  O3  UNL     1       5.626   4.893  17.041  1.00  0.00    -0.270 OA
HETATM   25  N3  UNL     1       4.809   3.011  18.061  1.00  0.00    -0.276 N 
ATOM     26  H3  UNL     1       4.850   2.371  18.854  1.00  0.00     0.189 HD
BRANCH  25  27
HETATM   27  N4  UNL     1       3.881   2.776  17.031  1.00  0.00    -0.343 N 
ATOM     28  H42 UNL     1       3.990   3.286  16.154  1.00  0.00     0.176 HD
ATOM     29  H41 UNL     1       3.115   2.113  17.151  1.00  0.00     0.176 HD
ENDBRANCH  25  27
ENDBRANCH  15  23
ENDBRANCH  10  11
ENDBRANCH   9  10
ENDBRANCH   5   9
BRANCH   1  30
HETATM   30  C2  UNL     1      10.792   8.809  24.978  1.00  0.00     0.199 C 
BRANCH  30  31
HETATM   31  O1  UNL     1      10.660   8.724  26.344  1.00  0.00    -0.393 OA
HETATM   32  C1  UNL     1      11.404   7.649  26.798  1.00  0.00     0.201 C 
ENDBRANCH  30  31
ENDBRANCH   1  30
TORSDOF 7
ENDMDL
MODEL 2
REMARK VINA RESULT: -7.887487076      1.392      1.443
REMARK  7 active torsions:
REMARK  status: ('A' for Active; 'I' for Inactive)
REMARK    1  A    between atoms: O1_2  and  C2_3 
REMARK    2  A    between atoms: C2_3  and  C3_4 
REMARK    3  A    between atoms: C6_8  and  C8_11 
REMARK    4  A    between atoms: C8_11  and  C9_12 
REMARK    5  A    between atoms: C9_12  and  N2_13 
REMARK    6  A    between atoms: C17_23  and  C18_24 
REMARK       I    between atoms: C18_24  and  N3_26 
REMARK    7  A    between atoms: N3_26  and  N4_28 
ROOT
HETATM    1  C3  UNL     1       8.922   8.942  24.722  1.00  0.00     0.152 C 
HETATM    2  C4  UNL     1       7.597   8.736  25.431  1.00  0.00     0.060 C 
HETATM    3  C5  UNL     1       6.520   9.127  24.410  1.00  0.00     0.175 C 
HETATM    4  O2  UNL     1       6.664   8.225  23.358  1.00  0.00    -0.343 OA
HETATM    5  C6  UNL     1       7.909   8.406  22.707  1.00  0.00     0.259 C 
HETATM    6  C7  UNL     1       7.950   9.762  22.240  1.00  0.00     0.128 C 
HETATM    7  N1  UNL     1       7.985  10.860  21.889  1.00  0.00    -0.191 NA
HETATM    8  O4  UNL     1       8.952   8.127  23.620  1.00  0.00    -0.336 OA
ENDROOT
BRANCH   5   9
HETATM    9  C8  UNL     1       8.029   7.361  21.642  1.00  0.00     0.116 C 
BRANCH   9  10
HETATM   10  C9  UNL     1       6.789   6.896  21.009  1.00  0.00     0.279 C 
BRANCH  10  11
HETATM   11  N2  UNL     1       6.643   6.874  19.617  1.00  0.00     0.091 N 
HETATM   12  C10 UNL     1       7.811   6.499  18.855  1.00  0.00     0.289 C 
HETATM   13  C11 UNL     1       7.755   5.029  18.899  1.00  0.00     0.101 C 
HETATM   14  S1  UNL     1       8.685   4.121  17.663  1.00  0.00    -0.147 SA
HETATM   15  C17 UNL     1       6.301   4.759  18.560  1.00  0.00     0.116 C 
HETATM   16  C12 UNL     1       7.976   2.431  17.780  1.00  0.00     0.020 C 
HETATM   17  C13 UNL     1       9.033   1.617  18.542  1.00  0.00     0.031 C 
HETATM   18  C14 UNL     1       7.844   1.793  16.434  1.00  0.00     0.031 C 
HETATM   19  C15 UNL     1       6.762   2.407  18.604  1.00  0.00     0.009 C 
HETATM   20  C16 UNL     1       5.995   3.401  18.974  1.00  0.00     0.007 C 
HETATM   21 BR1  UNL     1       4.463   3.054  20.063  1.00  0.00    -0.055 Br
HETATM   22  C19 UNL     1       5.629   5.857  19.301  1.00  0.00     0.298 C 
BRANCH  15  23
HETATM   23  C18 UNL     1       6.005   4.922  17.124  1.00  0.00     0.252 C 
HETATM   24  O3  UNL     1       5.347   4.126  16.433  1.00  0.00    -0.270 OA
HETATM   25  N3  UNL     1       6.524   6.090  16.500  1.00  0.00    -0.276 N 
ATOM     26  H3  UNL     1       7.067   6.754  17.052  1.00  0.00     0.189 HD
BRANCH  25  27
HETATM   27  N4  UNL     1       6.303   6.346  15.134  1.00  0.00    -0.343 N 
ATOM     28  H42 UNL     1       6.727   5.721  14.449  1.00  0.00     0.176 HD
ATOM     29  H41 UNL     1       5.732   7.135  14.831  1.00  0.00     0.176 HD
ENDBRANCH  25  27
ENDBRANCH  15  23
ENDBRANCH  10  11
ENDBRANCH   9  10
ENDBRANCH   5   9
BRANCH   1  30
HETATM   30  C2  UNL     1      10.089   8.577  25.615  1.00  0.00     0.199 C 
BRANCH  30  31
HETATM   31  O1  UNL     1       9.982   7.308  26.131  1.00  0.00    -0.393 OA
HETATM   32  C1  UNL     1      11.000   7.113  27.048  1.00  0.00     0.201 C 
ENDBRANCH  30  31
ENDBRANCH   1  30
TORSDOF 7
ENDMDL
MODEL 3
REMARK VINA RESULT: -7.885813484      1.169      1.315
REMARK  7 active torsions:
REMARK  status: ('A' for Active; 'I' for Inactive)
REMARK    1  A    between atoms: O1_2  and  C2_3 
REMARK    2  A    between atoms: C2_3  and  C3_4 
REMARK    3  A    between atoms: C6_8  and  C8_11 
REMARK    4  A    between atoms: C8_11  and  C9_12 
REMARK    5  A    between atoms: C9_12  and  N2_13 
REMARK    6  A    between atoms: C17_23  and  C18_24 
REMARK       I    between atoms: C18_24  and  N3_26 
REMARK    7  A    between atoms: N3_26  and  N4_28 
ROOT
HETATM    1  C3  UNL     1       8.808   9.524  22.909  1.00  0.00     0.152 C 
HETATM    2  C4  UNL     1       7.414   9.669  23.490  1.00  0.00     0.060 C 
HETATM    3  C5  UNL     1       6.553  10.240  22.355  1.00  0.00     0.175 C 
HETATM    4  O2  UNL     1       6.574   9.274  21.354  1.00  0.00    -0.343 OA
HETATM    5  C6  UNL     1       7.878   9.127  20.822  1.00  0.00     0.259 C 
HETATM    6  C7  UNL     1       8.278  10.409  20.317  1.00  0.00     0.128 C 
HETATM    7  N1  UNL     1       8.600  11.448  19.935  1.00  0.00    -0.191 NA
HETATM    8  O4  UNL     1       8.742   8.665  21.842  1.00  0.00    -0.336 OA
ENDROOT
BRANCH   5   9
HETATM    9  C8  UNL     1       7.842   8.025  19.809  1.00  0.00     0.116 C 
BRANCH   9  10
HETATM   10  C9  UNL     1       6.907   6.919  20.047  1.00  0.00     0.279 C 
BRANCH  10  11
HETATM   11  N2  UNL     1       6.221   6.304  18.994  1.00  0.00     0.091 N 
HETATM   12  C10 UNL     1       6.986   6.035  17.798  1.00  0.00     0.289 C 
HETATM   13  C11 UNL     1       7.648   4.762  18.130  1.00  0.00     0.101 C 
HETATM   14  S1  UNL     1       8.278   3.772  16.775  1.00  0.00    -0.147 SA
HETATM   15  C17 UNL     1       6.500   3.949  18.699  1.00  0.00     0.116 C 
HETATM   16  C12 UNL     1       8.565   2.138  17.564  1.00  0.00     0.020 C 
HETATM   17  C13 UNL     1      10.088   2.060  17.753  1.00  0.00     0.031 C 
HETATM   18  C14 UNL     1       8.198   1.012  16.651  1.00  0.00     0.031 C 
HETATM   19  C15 UNL     1       7.977   2.072  18.906  1.00  0.00     0.009 C 
HETATM   20  C16 UNL     1       7.070   2.845  19.450  1.00  0.00     0.007 C 
HETATM   21 BR1  UNL     1       6.496   2.506  21.241  1.00  0.00    -0.055 Br
HETATM   22  C19 UNL     1       5.775   4.987  19.474  1.00  0.00     0.298 C 
BRANCH  15  23
HETATM   23  C18 UNL     1       5.592   3.430  17.658  1.00  0.00     0.252 C 
HETATM   24  O3  UNL     1       5.634   3.733  16.454  1.00  0.00    -0.270 OA
HETATM   25  N3  UNL     1       4.595   2.511  18.090  1.00  0.00    -0.276 N 
ATOM     26  H3  UNL     1       4.546   2.252  19.075  1.00  0.00     0.189 HD
BRANCH  25  27
HETATM   27  N4  UNL     1       3.677   1.954  17.182  1.00  0.00    -0.343 N 
ATOM     28  H42 UNL     1       4.034   1.560  16.311  1.00  0.00     0.176 HD
ATOM     29  H41 UNL     1       2.677   1.940  17.384  1.00  0.00     0.176 HD
ENDBRANCH  25  27
ENDBRANCH  15  23
ENDBRANCH  10  11
ENDBRANCH   9  10
ENDBRANCH   5   9
BRANCH   1  30
HETATM   30  C2  UNL     1       9.773   8.949  23.922  1.00  0.00     0.199 C 
BRANCH  30  31
HETATM   31  O1  UNL     1       9.174   8.048  24.771  1.00  0.00    -0.393 OA
HETATM   32  C1  UNL     1       9.878   8.022  25.962  1.00  0.00     0.201 C 
ENDBRANCH  30  31
ENDBRANCH   1  30
TORSDOF 7
ENDMDL
MODEL 4
REMARK VINA RESULT: -7.626777775      1.271      1.487
REMARK  7 active torsions:
REMARK  status: ('A' for Active; 'I' for Inactive)
REMARK    1  A    between atoms: O1_2  and  C2_3 
REMARK    2  A    between atoms: C2_3  and  C3_4 
REMARK    3  A    between atoms: C6_8  and  C8_11 
REMARK    4  A    between atoms: C8_11  and  C9_12 
REMARK    5  A    between atoms: C9_12  and  N2_13 
REMARK    6  A    between atoms: C17_23  and  C18_24 
REMARK       I    between atoms: C18_24  and  N3_26 
REMARK    7  A    between atoms: N3_26  and  N4_28 
ROOT
HETATM    1  C3  UNL     1       8.375   8.666  23.875  1.00  0.00     0.152 C 
HETATM    2  C4  UNL     1       7.028   9.344  24.039  1.00  0.00     0.060 C 
HETATM    3  C5  UNL     1       6.683   9.913  22.656  1.00  0.00     0.175 C 
HETATM    4  O2  UNL     1       6.583   8.808  21.816  1.00  0.00    -0.343 OA
HETATM    5  C6  UNL     1       7.837   8.166  21.675  1.00  0.00     0.259 C 
HETATM    6  C7  UNL     1       8.755   9.137  21.152  1.00  0.00     0.128 C 
HETATM    7  N1  UNL     1       9.490   9.929  20.752  1.00  0.00    -0.191 NA
HETATM    8  O4  UNL     1       8.247   7.674  22.937  1.00  0.00    -0.336 OA
ENDROOT
BRANCH   5   9
HETATM    9  C8  UNL     1       7.640   6.949  20.825  1.00  0.00     0.116 C 
BRANCH   9  10
HETATM   10  C9  UNL     1       7.484   7.154  19.380  1.00  0.00     0.279 C 
BRANCH  10  11
HETATM   11  N2  UNL     1       6.397   6.617  18.680  1.00  0.00     0.091 N 
HETATM   12  C10 UNL     1       6.635   6.257  17.302  1.00  0.00     0.289 C 
HETATM   13  C11 UNL     1       7.234   4.918  17.427  1.00  0.00     0.101 C 
HETATM   14  S1  UNL     1       7.212   3.856  15.983  1.00  0.00    -0.147 SA
HETATM   15  C17 UNL     1       6.298   4.245  18.413  1.00  0.00     0.116 C 
HETATM   16  C12 UNL     1       7.596   2.204  16.687  1.00  0.00     0.020 C 
HETATM   17  C13 UNL     1       9.064   1.951  16.309  1.00  0.00     0.031 C 
HETATM   18  C14 UNL     1       6.801   1.123  16.025  1.00  0.00     0.031 C 
HETATM   19  C15 UNL     1       7.540   2.212  18.153  1.00  0.00     0.009 C 
HETATM   20  C16 UNL     1       6.984   3.085  18.954  1.00  0.00     0.007 C 
HETATM   21 BR1  UNL     1       7.079   2.823  20.845  1.00  0.00    -0.055 Br
HETATM   22  C19 UNL     1       6.023   5.363  19.351  1.00  0.00     0.298 C 
BRANCH  15  23
HETATM   23  C18 UNL     1       5.021   3.830  17.802  1.00  0.00     0.252 C 
HETATM   24  O3  UNL     1       4.478   4.382  16.831  1.00  0.00    -0.270 OA
HETATM   25  N3  UNL     1       4.376   2.705  18.388  1.00  0.00    -0.276 N 
ATOM     26  H3  UNL     1       4.808   2.239  19.186  1.00  0.00     0.189 HD
BRANCH  25  27
HETATM   27  N4  UNL     1       3.154   2.223  17.885  1.00  0.00    -0.343 N 
ATOM     28  H42 UNL     1       2.294   2.693  18.167  1.00  0.00     0.176 HD
ATOM     29  H41 UNL     1       3.123   1.423  17.252  1.00  0.00     0.176 HD
ENDBRANCH  25  27
ENDBRANCH  15  23
ENDBRANCH  10  11
ENDBRANCH   9  10
ENDBRANCH   5   9
BRANCH   1  30
HETATM   30  C2  UNL     1       8.839   8.037  25.170  1.00  0.00     0.199 C 
BRANCH  30  31
HETATM   31  O1  UNL     1      10.208   8.035  25.297  1.00  0.00    -0.393 OA
HETATM   32  C1  UNL     1      10.708   9.205  24.751  1.00  0.00     0.201 C 
ENDBRANCH  30  31
ENDBRANCH   1  30
TORSDOF 7
ENDMDL
MODEL 5
REMARK VINA RESULT: -7.396729296      1.865      2.954
REMARK  7 active torsions:
REMARK  status: ('A' for Active; 'I' for Inactive)
REMARK    1  A    between atoms: O1_2  and  C2_3 
REMARK    2  A    between atoms: C2_3  and  C3_4 
REMARK    3  A    between atoms: C6_8  and  C8_11 
REMARK    4  A    between atoms: C8_11  and  C9_12 
REMARK    5  A    between atoms: C9_12  and  N2_13 
REMARK    6  A    between atoms: C17_23  and  C18_24 
REMARK       I    between atoms: C18_24  and  N3_26 
REMARK    7  A    between atoms: N3_26  and  N4_28 
ROOT
HETATM    1  C3  UNL     1       7.381  10.143  22.283  1.00  0.00     0.152 C 
HETATM    2  C4  UNL     1       8.801   9.783  22.676  1.00  0.00     0.060 C 
HETATM    3  C5  UNL     1       8.684   8.495  23.504  1.00  0.00     0.175 C 
HETATM    4  O2  UNL     1       8.154   7.545  22.635  1.00  0.00    -0.343 OA
HETATM    5  C6  UNL     1       6.834   7.890  22.255  1.00  0.00     0.259 C 
HETATM    6  C7  UNL     1       6.058   7.987  23.458  1.00  0.00     0.128 C 
HETATM    7  N1  UNL     1       5.447   8.085  24.431  1.00  0.00    -0.191 NA
HETATM    8  O4  UNL     1       6.864   9.112  21.543  1.00  0.00    -0.336 OA
ENDROOT
BRANCH   5   9
HETATM    9  C8  UNL     1       6.356   6.871  21.267  1.00  0.00     0.116 C 
BRANCH   9  10
HETATM   10  C9  UNL     1       6.632   7.126  19.849  1.00  0.00     0.279 C 
BRANCH  10  11
HETATM   11  N2  UNL     1       5.955   6.433  18.838  1.00  0.00     0.091 N 
HETATM   12  C10 UNL     1       6.705   6.156  17.635  1.00  0.00     0.289 C 
HETATM   13  C11 UNL     1       7.440   4.934  18.000  1.00  0.00     0.101 C 
HETATM   14  S1  UNL     1       8.090   3.922  16.670  1.00  0.00    -0.147 SA
HETATM   15  C17 UNL     1       6.350   4.087  18.629  1.00  0.00     0.116 C 
HETATM   16  C12 UNL     1       8.481   2.339  17.515  1.00  0.00     0.020 C 
HETATM   17  C13 UNL     1      10.010   2.347  17.669  1.00  0.00     0.031 C 
HETATM   18  C14 UNL     1       8.152   1.159  16.657  1.00  0.00     0.031 C 
HETATM   19  C15 UNL     1       7.928   2.298  18.873  1.00  0.00     0.009 C 
HETATM   20  C16 UNL     1       6.994   3.044  19.408  1.00  0.00     0.007 C 
HETATM   21 BR1  UNL     1       6.480   2.750  21.225  1.00  0.00    -0.055 Br
HETATM   22  C19 UNL     1       5.590   5.116  19.381  1.00  0.00     0.298 C 
BRANCH  15  23
HETATM   23  C18 UNL     1       5.447   3.479  17.633  1.00  0.00     0.252 C 
HETATM   24  O3  UNL     1       5.308   3.867  16.461  1.00  0.00    -0.270 OA
HETATM   25  N3  UNL     1       4.683   2.362  18.071  1.00  0.00    -0.276 N 
ATOM     26  H3  UNL     1       4.784   2.030  19.030  1.00  0.00     0.189 HD
BRANCH  25  27
HETATM   27  N4  UNL     1       3.790   1.706  17.204  1.00  0.00    -0.343 N 
ATOM     28  H42 UNL     1       4.131   0.907  16.670  1.00  0.00     0.176 HD
ATOM     29  H41 UNL     1       2.823   2.018  17.108  1.00  0.00     0.176 HD
ENDBRANCH  25  27
ENDBRANCH  15  23
ENDBRANCH  10  11
ENDBRANCH   9  10
ENDBRANCH   5   9
BRANCH   1  30
HETATM   30  C2  UNL     1       7.343  11.399  21.440  1.00  0.00     0.199 C 
BRANCH  30  31
HETATM   31  O1  UNL     1       8.344  11.435  20.499  1.00  0.00    -0.393 OA
HETATM   32  C1  UNL     1       7.988  12.327  19.503  1.00  0.00     0.201 C 
ENDBRANCH  30  31
ENDBRANCH   1  30
TORSDOF 7
ENDMDL
