MODEL 1
REMARK VINA RESULT: -7.928111658      0.000      0.000
REMARK  7 active torsions:
REMARK  status: ('A' for Active; 'I' for Inactive)
REMARK    1  A    between atoms: O1_2  and  C2_3 
REMARK    2  A    between atoms: C2_3  and  C3_5 
REMARK    3  A    between atoms: C3_5  and  N1_7 
REMARK    4  A    between atoms: C3_5  and  C15_28 
REMARK       I    between atoms: N1_7  and  C5_9 
REMARK    5  A    between atoms: C5_9  and  C6_11 
REMARK    6  A    between atoms: C10_20  and  N3_21 
REMARK    7  A    between atoms: C15_28  and  C16_30 
ROOT
HETATM    1  C6  UNL     1       6.934   6.024  21.068  1.00  0.00     0.193 C 
HETATM    2  N2  UNL     1       5.583   5.608  21.124  1.00  0.00    -0.301 N 
ATOM      3  H2  UNL     1       4.996   5.798  21.935  1.00  0.00     0.173 HD
HETATM    4  S1  UNL     1       4.991   4.775  19.768  1.00  0.00     0.260 S 
HETATM    5  O4  UNL     1       3.902   3.833  20.247  1.00  0.00    -0.200 OA
HETATM    6  O5  UNL     1       4.352   5.666  18.750  1.00  0.00    -0.200 OA
HETATM    7  C7  UNL     1       6.338   3.887  19.106  1.00  0.00     0.086 A 
HETATM    8  C8  UNL     1       6.244   2.632  18.553  1.00  0.00     0.028 A 
HETATM    9  C9  UNL     1       7.378   1.982  18.044  1.00  0.00     0.037 A 
HETATM   10  C10 UNL     1       8.597   2.611  18.101  1.00  0.00     0.103 A 
HETATM   11  C11 UNL     1       8.662   3.864  18.660  1.00  0.00     0.045 A 
HETATM   12  C12 UNL     1       7.558   4.524  19.167  1.00  0.00    -0.026 A 
HETATM   13  C13 UNL     1       7.647   5.867  19.759  1.00  0.00     0.049 C 
HETATM   14  C14 UNL     1       7.277   6.941  18.754  1.00  0.00     0.017 C 
ENDROOT
BRANCH   1  15
HETATM   15  C5  UNL     1       7.019   7.425  21.580  1.00  0.00     0.243 C 
HETATM   16  N1  UNL     1       8.217   7.951  22.130  1.00  0.00    -0.335 N 
ATOM     17  H1  UNL     1       9.028   7.334  22.163  1.00  0.00     0.164 HD
HETATM   18  O3  UNL     1       5.998   8.189  21.533  1.00  0.00    -0.271 OA
BRANCH  16  19
HETATM   19  C3  UNL     1       8.381   9.286  22.646  1.00  0.00     0.179 C 
HETATM   20  C4  UNL     1       7.094   9.572  23.440  1.00  0.00     0.058 C 
BRANCH  19  21
HETATM   21  C2  UNL     1       9.479   9.418  23.619  1.00  0.00     0.294 C 
HETATM   22  O2  UNL     1      10.063  10.536  23.697  1.00  0.00    -0.262 OA
BRANCH  21  23
HETATM   23  O1  UNL     1       9.926   8.432  24.451  1.00  0.00    -0.324 OA
HETATM   24  C1  UNL     1      10.635   8.760  25.650  1.00  0.00     0.213 C 
ENDBRANCH  21  23
ENDBRANCH  19  21
BRANCH  19  25
HETATM   25  C15 UNL     1       8.415  10.254  21.552  1.00  0.00     0.174 C 
HETATM   26  O8  UNL     1       9.262  10.104  20.684  1.00  0.00    -0.294 OA
BRANCH  25  27
HETATM   27  C16 UNL     1       7.512  11.414  21.390  1.00  0.00     0.166 C 
HETATM   28 BR1  UNL     1       7.745  12.295  19.675  1.00  0.00    -0.088 Br
ENDBRANCH  25  27
ENDBRANCH  19  25
ENDBRANCH  16  19
ENDBRANCH   1  15
BRANCH  10  29
HETATM   29  N3  UNL     1       9.765   1.957  17.583  1.00  0.00    -0.116 N 
HETATM   30  O6  UNL     1      10.872   2.513  17.680  1.00  0.00    -0.532 OA
HETATM   31  O7  UNL     1       9.708   0.729  16.976  1.00  0.00    -0.532 OA
ENDBRANCH  10  29
TORSDOF 7
ENDMDL
MODEL 2
REMARK VINA RESULT: -7.867324989      2.460      3.268
REMARK  7 active torsions:
REMARK  status: ('A' for Active; 'I' for Inactive)
REMARK    1  A    between atoms: O1_2  and  C2_3 
REMARK    2  A    between atoms: C2_3  and  C3_5 
REMARK    3  A    between atoms: C3_5  and  N1_7 
REMARK    4  A    between atoms: C3_5  and  C15_28 
REMARK       I    between atoms: N1_7  and  C5_9 
REMARK    5  A    between atoms: C5_9  and  C6_11 
REMARK    6  A    between atoms: C10_20  and  N3_21 
REMARK    7  A    between atoms: C15_28  and  C16_30 
ROOT
HETATM    1  C6  UNL     1       6.225   6.790  20.303  1.00  0.00     0.193 C 
HETATM    2  N2  UNL     1       5.208   7.201  19.409  1.00  0.00    -0.301 N 
ATOM      3  H2  UNL     1       4.293   7.508  19.741  1.00  0.00     0.173 HD
HETATM    4  S1  UNL     1       5.590   7.156  17.755  1.00  0.00     0.260 S 
HETATM    5  O4  UNL     1       4.302   6.909  16.992  1.00  0.00    -0.200 OA
HETATM    6  O5  UNL     1       6.141   8.445  17.233  1.00  0.00    -0.200 OA
HETATM    7  C7  UNL     1       6.706   5.833  17.541  1.00  0.00     0.086 A 
HETATM    8  C8  UNL     1       6.722   5.000  16.448  1.00  0.00     0.028 A 
HETATM    9  C9  UNL     1       7.652   3.955  16.352  1.00  0.00     0.037 A 
HETATM   10  C10 UNL     1       8.557   3.763  17.367  1.00  0.00     0.103 A 
HETATM   11  C11 UNL     1       8.518   4.611  18.448  1.00  0.00     0.045 A 
HETATM   12  C12 UNL     1       7.611   5.648  18.563  1.00  0.00    -0.026 A 
HETATM   13  C13 UNL     1       7.587   6.546  19.727  1.00  0.00     0.049 C 
HETATM   14  C14 UNL     1       8.349   7.829  19.453  1.00  0.00     0.017 C 
ENDROOT
BRANCH   1  15
HETATM   15  C5  UNL     1       6.270   7.754  21.443  1.00  0.00     0.243 C 
HETATM   16  N1  UNL     1       7.204   7.619  22.503  1.00  0.00    -0.335 N 
ATOM     17  H1  UNL     1       7.852   6.832  22.459  1.00  0.00     0.164 HD
HETATM   18  O3  UNL     1       5.455   8.735  21.488  1.00  0.00    -0.271 OA
BRANCH  16  19
HETATM   19  C3  UNL     1       7.311   8.501  23.637  1.00  0.00     0.179 C 
HETATM   20  C4  UNL     1       7.388   9.917  23.041  1.00  0.00     0.058 C 
BRANCH  19  21
HETATM   21  C2  UNL     1       6.120   8.505  24.504  1.00  0.00     0.294 C 
HETATM   22  O2  UNL     1       5.916   9.528  25.217  1.00  0.00    -0.262 OA
BRANCH  21  23
HETATM   23  O1  UNL     1       5.209   7.493  24.606  1.00  0.00    -0.324 OA
HETATM   24  C1  UNL     1       3.813   7.752  24.428  1.00  0.00     0.213 C 
ENDBRANCH  21  23
ENDBRANCH  19  21
BRANCH  19  25
HETATM   25  C15 UNL     1       8.574   8.278  24.337  1.00  0.00     0.174 C 
HETATM   26  O8  UNL     1       8.592   7.444  25.230  1.00  0.00    -0.294 OA
BRANCH  25  27
HETATM   27  C16 UNL     1       9.851   8.973  24.067  1.00  0.00     0.166 C 
HETATM   28 BR1  UNL     1      11.019   8.998  25.618  1.00  0.00    -0.088 Br
ENDBRANCH  25  27
ENDBRANCH  19  25
ENDBRANCH  16  19
ENDBRANCH   1  15
BRANCH  10  29
HETATM   29  N3  UNL     1       9.514   2.698  17.280  1.00  0.00    -0.116 N 
HETATM   30  O6  UNL     1      10.674   2.882  17.688  1.00  0.00    -0.532 OA
HETATM   31  O7  UNL     1       9.198   1.470  16.759  1.00  0.00    -0.532 OA
ENDBRANCH  10  29
TORSDOF 7
ENDMDL
MODEL 3
REMARK VINA RESULT: -7.693545761      2.244      3.190
REMARK  7 active torsions:
REMARK  status: ('A' for Active; 'I' for Inactive)
REMARK    1  A    between atoms: O1_2  and  C2_3 
REMARK    2  A    between atoms: C2_3  and  C3_5 
REMARK    3  A    between atoms: C3_5  and  N1_7 
REMARK    4  A    between atoms: C3_5  and  C15_28 
REMARK       I    between atoms: N1_7  and  C5_9 
REMARK    5  A    between atoms: C5_9  and  C6_11 
REMARK    6  A    between atoms: C10_20  and  N3_21 
REMARK    7  A    between atoms: C15_28  and  C16_30 
ROOT
HETATM    1  C6  UNL     1       7.807   6.882  20.628  1.00  0.00     0.193 C 
HETATM    2  N2  UNL     1       6.670   6.527  21.390  1.00  0.00    -0.301 N 
ATOM      3  H2  UNL     1       6.458   6.976  22.281  1.00  0.00     0.173 HD
HETATM    4  S1  UNL     1       5.676   5.311  20.745  1.00  0.00     0.260 S 
HETATM    5  O4  UNL     1       5.018   4.589  21.906  1.00  0.00    -0.200 OA
HETATM    6  O5  UNL     1       4.561   5.838  19.897  1.00  0.00    -0.200 OA
HETATM    7  C7  UNL     1       6.722   4.237  19.855  1.00  0.00     0.086 A 
HETATM    8  C8  UNL     1       6.566   2.873  19.796  1.00  0.00     0.028 A 
HETATM    9  C9  UNL     1       7.454   2.077  19.059  1.00  0.00     0.037 A 
HETATM   10  C10 UNL     1       8.494   2.672  18.387  1.00  0.00     0.103 A 
HETATM   11  C11 UNL     1       8.627   4.037  18.464  1.00  0.00     0.045 A 
HETATM   12  C12 UNL     1       7.763   4.842  19.184  1.00  0.00    -0.026 A 
HETATM   13  C13 UNL     1       7.919   6.302  19.251  1.00  0.00     0.049 C 
HETATM   14  C14 UNL     1       7.028   7.002  18.243  1.00  0.00     0.017 C 
ENDROOT
BRANCH   1  15
HETATM   15  C5  UNL     1       7.920   8.372  20.613  1.00  0.00     0.243 C 
HETATM   16  N1  UNL     1       6.783   9.208  20.462  1.00  0.00    -0.335 N 
ATOM     17  H1  UNL     1       5.875   8.753  20.365  1.00  0.00     0.164 HD
HETATM   18  O3  UNL     1       9.060   8.931  20.737  1.00  0.00    -0.271 OA
BRANCH  16  19
HETATM   19  C3  UNL     1       6.806  10.648  20.436  1.00  0.00     0.179 C 
HETATM   20  C4  UNL     1       7.410  11.068  21.787  1.00  0.00     0.058 C 
BRANCH  19  21
HETATM   21  C2  UNL     1       7.705  11.211  19.413  1.00  0.00     0.294 C 
HETATM   22  O2  UNL     1       7.604  10.767  18.234  1.00  0.00    -0.262 OA
BRANCH  21  23
HETATM   23  O1  UNL     1       8.643  12.179  19.627  1.00  0.00    -0.324 OA
HETATM   24  C1  UNL     1       8.484  13.484  19.063  1.00  0.00     0.213 C 
ENDBRANCH  21  23
ENDBRANCH  19  21
BRANCH  19  25
HETATM   25  C15 UNL     1       5.445  11.178  20.409  1.00  0.00     0.174 C 
HETATM   26  O8  UNL     1       5.292  12.342  20.070  1.00  0.00    -0.294 OA
BRANCH  25  27
HETATM   27  C16 UNL     1       4.215  10.433  20.758  1.00  0.00     0.166 C 
HETATM   28 BR1  UNL     1       3.343   9.678  19.196  1.00  0.00    -0.088 Br
ENDBRANCH  25  27
ENDBRANCH  19  25
ENDBRANCH  16  19
ENDBRANCH   1  15
BRANCH  10  29
HETATM   29  N3  UNL     1       9.410   1.868  17.629  1.00  0.00    -0.116 N 
HETATM   30  O6  UNL     1      10.174   1.087  18.221  1.00  0.00    -0.532 OA
HETATM   31  O7  UNL     1       9.477   1.929  16.262  1.00  0.00    -0.532 OA
ENDBRANCH  10  29
TORSDOF 7
ENDMDL
MODEL 4
REMARK VINA RESULT: -7.598966819      2.789      7.760
REMARK  7 active torsions:
REMARK  status: ('A' for Active; 'I' for Inactive)
REMARK    1  A    between atoms: O1_2  and  C2_3 
REMARK    2  A    between atoms: C2_3  and  C3_5 
REMARK    3  A    between atoms: C3_5  and  N1_7 
REMARK    4  A    between atoms: C3_5  and  C15_28 
REMARK       I    between atoms: N1_7  and  C5_9 
REMARK    5  A    between atoms: C5_9  and  C6_11 
REMARK    6  A    between atoms: C10_20  and  N3_21 
REMARK    7  A    between atoms: C15_28  and  C16_30 
ROOT
HETATM    1  C6  UNL     1       7.914   7.156  19.456  1.00  0.00     0.193 C 
HETATM    2  N2  UNL     1       7.493   8.327  18.784  1.00  0.00    -0.301 N 
ATOM      3  H2  UNL     1       7.599   8.435  17.775  1.00  0.00     0.173 HD
HETATM    4  S1  UNL     1       6.804   9.545  19.745  1.00  0.00     0.260 S 
HETATM    5  O4  UNL     1       7.088  10.876  19.075  1.00  0.00    -0.200 OA
HETATM    6  O5  UNL     1       5.315   9.446  19.858  1.00  0.00    -0.200 OA
HETATM    7  C7  UNL     1       7.585   9.449  21.301  1.00  0.00     0.086 A 
HETATM    8  C8  UNL     1       7.905  10.537  22.078  1.00  0.00     0.028 A 
HETATM    9  C9  UNL     1       8.537  10.376  23.319  1.00  0.00     0.037 A 
HETATM   10  C10 UNL     1       8.841   9.112  23.761  1.00  0.00     0.103 A 
HETATM   11  C11 UNL     1       8.510   8.042  22.964  1.00  0.00     0.045 A 
HETATM   12  C12 UNL     1       7.886   8.177  21.738  1.00  0.00    -0.026 A 
HETATM   13  C13 UNL     1       7.538   7.020  20.900  1.00  0.00     0.049 C 
HETATM   14  C14 UNL     1       6.091   6.610  21.096  1.00  0.00     0.017 C 
ENDROOT
BRANCH   1  15
HETATM   15  C5  UNL     1       7.481   5.970  18.657  1.00  0.00     0.243 C 
HETATM   16  N1  UNL     1       8.371   4.910  18.344  1.00  0.00    -0.335 N 
ATOM     17  H1  UNL     1       9.328   4.985  18.689  1.00  0.00     0.164 HD
HETATM   18  O3  UNL     1       6.281   5.887  18.232  1.00  0.00    -0.271 OA
BRANCH  16  19
HETATM   19  C3  UNL     1       8.033   3.737  17.580  1.00  0.00     0.179 C 
HETATM   20  C4  UNL     1       7.230   4.257  16.375  1.00  0.00     0.058 C 
BRANCH  19  21
HETATM   21  C2  UNL     1       9.199   3.044  17.004  1.00  0.00     0.294 C 
HETATM   22  O2  UNL     1       9.272   2.964  15.745  1.00  0.00    -0.262 OA
BRANCH  21  23
HETATM   23  O1  UNL     1      10.216   2.476  17.717  1.00  0.00    -0.324 OA
HETATM   24  C1  UNL     1      10.320   1.053  17.827  1.00  0.00     0.213 C 
ENDBRANCH  21  23
ENDBRANCH  19  21
BRANCH  19  25
HETATM   25  C15 UNL     1       7.127   2.878  18.340  1.00  0.00     0.174 C 
HETATM   26  O8  UNL     1       6.115   2.481  17.783  1.00  0.00    -0.294 OA
BRANCH  25  27
HETATM   27  C16 UNL     1       7.320   2.435  19.738  1.00  0.00     0.166 C 
HETATM   28 BR1  UNL     1       5.835   2.944  20.883  1.00  0.00    -0.088 Br
ENDBRANCH  25  27
ENDBRANCH  19  25
ENDBRANCH  16  19
ENDBRANCH   1  15
BRANCH  10  29
HETATM   29  N3  UNL     1       9.487   8.933  25.030  1.00  0.00    -0.116 N 
HETATM   30  O6  UNL     1       8.867   8.392  25.962  1.00  0.00    -0.532 OA
HETATM   31  O7  UNL     1      10.775   9.341  25.259  1.00  0.00    -0.532 OA
ENDBRANCH  10  29
TORSDOF 7
ENDMDL
MODEL 5
REMARK VINA RESULT: -7.489248553      4.733      7.731
REMARK  7 active torsions:
REMARK  status: ('A' for Active; 'I' for Inactive)
REMARK    1  A    between atoms: O1_2  and  C2_3 
REMARK    2  A    between atoms: C2_3  and  C3_5 
REMARK    3  A    between atoms: C3_5  and  N1_7 
REMARK    4  A    between atoms: C3_5  and  C15_28 
REMARK       I    between atoms: N1_7  and  C5_9 
REMARK    5  A    between atoms: C5_9  and  C6_11 
REMARK    6  A    between atoms: C10_20  and  N3_21 
REMARK    7  A    between atoms: C15_28  and  C16_30 
ROOT
HETATM    1  C6  UNL     1       6.856   7.740  22.569  1.00  0.00     0.193 C 
HETATM    2  N2  UNL     1       7.273   8.557  21.493  1.00  0.00    -0.301 N 
ATOM      3  H2  UNL     1       6.952   8.393  20.539  1.00  0.00     0.173 HD
HETATM    4  S1  UNL     1       8.337   9.825  21.872  1.00  0.00     0.260 S 
HETATM    5  O4  UNL     1       9.195  10.087  20.649  1.00  0.00    -0.200 OA
HETATM    6  O5  UNL     1       7.645  11.115  22.179  1.00  0.00    -0.200 OA
HETATM    7  C7  UNL     1       9.310   9.271  23.209  1.00  0.00     0.086 A 
HETATM    8  C8  UNL     1      10.643   9.563  23.374  1.00  0.00     0.028 A 
HETATM    9  C9  UNL     1      11.356   9.076  24.478  1.00  0.00     0.037 A 
HETATM   10  C10 UNL     1      10.712   8.295  25.406  1.00  0.00     0.103 A 
HETATM   11  C11 UNL     1       9.380   8.018  25.216  1.00  0.00     0.045 A 
HETATM   12  C12 UNL     1       8.656   8.488  24.136  1.00  0.00    -0.026 A 
HETATM   13  C13 UNL     1       7.230   8.183  23.952  1.00  0.00     0.049 C 
HETATM   14  C14 UNL     1       6.351   9.307  24.467  1.00  0.00     0.017 C 
ENDROOT
BRANCH   1  15
HETATM   15  C5  UNL     1       5.387   7.503  22.441  1.00  0.00     0.243 C 
HETATM   16  N1  UNL     1       4.728   6.469  23.157  1.00  0.00    -0.335 N 
ATOM     17  H1  UNL     1       5.299   5.887  23.771  1.00  0.00     0.164 HD
HETATM   18  O3  UNL     1       4.683   8.237  21.672  1.00  0.00    -0.271 OA
BRANCH  16  19
HETATM   19  C3  UNL     1       3.321   6.174  23.088  1.00  0.00     0.179 C 
HETATM   20  C4  UNL     1       2.995   6.107  21.586  1.00  0.00     0.058 C 
BRANCH  19  21
HETATM   21  C2  UNL     1       2.961   4.851  23.627  1.00  0.00     0.294 C 
HETATM   22  O2  UNL     1       2.076   4.804  24.528  1.00  0.00    -0.262 OA
BRANCH  21  23
HETATM   23  O1  UNL     1       3.504   3.661  23.235  1.00  0.00    -0.324 OA
HETATM   24  C1  UNL     1       2.779   2.440  23.410  1.00  0.00     0.213 C 
ENDBRANCH  21  23
ENDBRANCH  19  21
BRANCH  19  25
HETATM   25  C15 UNL     1       2.541   7.285  23.631  1.00  0.00     0.174 C 
HETATM   26  O8  UNL     1       1.595   7.693  22.974  1.00  0.00    -0.294 OA
BRANCH  25  27
HETATM   27  C16 UNL     1       2.789   7.974  24.916  1.00  0.00     0.166 C 
HETATM   28 BR1  UNL     1       1.683   9.556  25.130  1.00  0.00    -0.088 Br
ENDBRANCH  25  27
ENDBRANCH  19  25
ENDBRANCH  16  19
ENDBRANCH   1  15
BRANCH  10  29
HETATM   29  N3  UNL     1      11.431   7.790  26.540  1.00  0.00    -0.116 N 
HETATM   30  O6  UNL     1      10.802   7.356  27.520  1.00  0.00    -0.532 OA
HETATM   31  O7  UNL     1      12.801   7.768  26.588  1.00  0.00    -0.532 OA
ENDBRANCH  10  29
TORSDOF 7
ENDMDL
