MODEL 1
REMARK VINA RESULT: -9.941536044      0.000      0.000
REMARK  6 active torsions:
REMARK  status: ('A' for Active; 'I' for Inactive)
REMARK    1  A    between atoms: C1_2  and  C2_3 
REMARK    2  A    between atoms: C1_2  and  C8_12 
REMARK    3  A    between atoms: C2_3  and  C3_4 
REMARK    4  A    between atoms: C8_12  and  C9_13 
REMARK    5  A    between atoms: C8_12  and  C15_19 
REMARK       I    between atoms: C15_19  and  N2_21 
REMARK    6  A    between atoms: N2_21  and  C16_23 
ROOT
HETATM    1  C8  UNL     1      13.201  10.360   1.944  1.00  0.00     0.170 C 
ENDROOT
BRANCH   1   2
HETATM    2  C1  UNL     1      14.085  10.344   3.109  1.00  0.00     0.143 C 
HETATM    3  O1  UNL     1      13.759  11.090   4.053  1.00  0.00    -0.297 OA
BRANCH   2   4
HETATM    4  C2  UNL     1      15.304   9.543   3.262  1.00  0.00     0.084 C 
BRANCH   4   5
HETATM    5  C3  UNL     1      15.117   8.491   4.349  1.00  0.00    -0.004 C 
HETATM    6  C4  UNL     1      13.698   8.504   4.831  1.00  0.00     0.032 C 
HETATM    7  C5  UNL     1      13.128   7.098   4.770  1.00  0.00     0.232 C 
HETATM    8  N1  UNL     1      13.075   6.654   3.405  1.00  0.00    -0.075 N 
HETATM    9  C6  UNL     1      14.377   6.653   2.812  1.00  0.00     0.232 C 
ATOM     10  H12 UNL     1      12.625   5.741   3.324  1.00  0.00     0.277 HD
ATOM     11  H11 UNL     1      12.413   7.203   2.857  1.00  0.00     0.277 HD
HETATM   12  C7  UNL     1      15.456   7.161   3.737  1.00  0.00     0.032 C 
ENDBRANCH   4   5
ENDBRANCH   2   4
ENDBRANCH   1   2
BRANCH   1  13
HETATM   13  C9  UNL     1      13.146  11.691   1.285  1.00  0.00    -0.002 C 
HETATM   14  C10 UNL     1      13.890  12.034   0.267  1.00  0.00    -0.082 C 
HETATM   15  C11 UNL     1      13.854  13.358  -0.410  1.00  0.00     0.034 C 
HETATM   16  C14 UNL     1      14.923  11.212  -0.446  1.00  0.00     0.034 C 
HETATM   17  C12 UNL     1      14.200  12.982  -1.835  1.00  0.00     0.005 C 
HETATM   18  C13 UNL     1      15.396  12.055  -1.582  1.00  0.00     0.005 C 
ENDBRANCH   1  13
BRANCH   1  19
HETATM   19  C15 UNL     1      11.865   9.858   2.313  1.00  0.00     0.233 C 
HETATM   20  O2  UNL     1      11.436   8.796   1.781  1.00  0.00    -0.272 OA
HETATM   21  N2  UNL     1      11.083  10.573   3.254  1.00  0.00    -0.351 N 
ATOM     22  H2  UNL     1      11.474  11.424   3.657  1.00  0.00     0.163 HD
BRANCH  21  23
HETATM   23  C16 UNL     1       9.761  10.161   3.674  1.00  0.00     0.034 C 
HETATM   24  C17 UNL     1       8.765  10.263   2.565  1.00  0.00     0.035 C 
HETATM   25  C18 UNL     1       7.443   9.634   2.981  1.00  0.00    -0.012 C 
HETATM   26  C19 UNL     1       6.897  10.478   4.104  1.00  0.00     0.009 C 
HETATM   27  C23 UNL     1       7.676   8.209   3.352  1.00  0.00     0.009 C 
HETATM   28  C20 UNL     1       7.901  10.438   5.243  1.00  0.00    -0.012 C 
HETATM   29  C21 UNL     1       7.972   9.013   5.717  1.00  0.00     0.009 C 
HETATM   30  C25 UNL     1       9.236  11.000   4.830  1.00  0.00     0.035 C 
HETATM   31  C22 UNL     1       8.534   8.176   4.599  1.00  0.00    -0.012 C 
HETATM   32  C24 UNL     1       9.872   8.749   4.223  1.00  0.00     0.035 C 
ENDBRANCH  21  23
ENDBRANCH   1  19
TORSDOF 6
ENDMDL
MODEL 2
REMARK VINA RESULT: -9.931029094      0.984      1.357
REMARK  6 active torsions:
REMARK  status: ('A' for Active; 'I' for Inactive)
REMARK    1  A    between atoms: C1_2  and  C2_3 
REMARK    2  A    between atoms: C1_2  and  C8_12 
REMARK    3  A    between atoms: C2_3  and  C3_4 
REMARK    4  A    between atoms: C8_12  and  C9_13 
REMARK    5  A    between atoms: C8_12  and  C15_19 
REMARK       I    between atoms: C15_19  and  N2_21 
REMARK    6  A    between atoms: N2_21  and  C16_23 
ROOT
HETATM    1  C8  UNL     1      12.993  10.465   1.680  1.00  0.00     0.170 C 
ENDROOT
BRANCH   1   2
HETATM    2  C1  UNL     1      13.901  10.451   2.827  1.00  0.00     0.143 C 
HETATM    3  O1  UNL     1      13.663  11.286   3.722  1.00  0.00    -0.297 OA
BRANCH   2   4
HETATM    4  C2  UNL     1      15.049   9.557   3.015  1.00  0.00     0.084 C 
BRANCH   4   5
HETATM    5  C3  UNL     1      14.739   8.508   4.076  1.00  0.00    -0.004 C 
HETATM    6  C4  UNL     1      14.990   7.137   3.525  1.00  0.00     0.032 C 
HETATM    7  C5  UNL     1      15.902   6.371   4.465  1.00  0.00     0.232 C 
HETATM    8  N1  UNL     1      17.188   7.011   4.524  1.00  0.00    -0.075 N 
HETATM    9  C6  UNL     1      17.071   8.359   4.986  1.00  0.00     0.232 C 
ATOM     10  H12 UNL     1      17.848   6.475   5.088  1.00  0.00     0.277 HD
ATOM     11  H11 UNL     1      17.673   6.961   3.628  1.00  0.00     0.277 HD
HETATM   12  C7  UNL     1      15.645   8.783   5.243  1.00  0.00     0.032 C 
ENDBRANCH   4   5
ENDBRANCH   2   4
ENDBRANCH   1   2
BRANCH   1  13
HETATM   13  C9  UNL     1      12.938  11.790   1.010  1.00  0.00    -0.002 C 
HETATM   14  C10 UNL     1      13.761  12.166   0.067  1.00  0.00    -0.082 C 
HETATM   15  C11 UNL     1      13.726  13.486  -0.619  1.00  0.00     0.034 C 
HETATM   16  C14 UNL     1      14.898  11.395  -0.535  1.00  0.00     0.034 C 
HETATM   17  C12 UNL     1      14.229  13.124  -2.001  1.00  0.00     0.005 C 
HETATM   18  C13 UNL     1      15.438  12.258  -1.625  1.00  0.00     0.005 C 
ENDBRANCH   1  13
BRANCH   1  19
HETATM   19  C15 UNL     1      11.660   9.979   2.081  1.00  0.00     0.233 C 
HETATM   20  O2  UNL     1      11.119   9.047   1.422  1.00  0.00    -0.272 OA
HETATM   21  N2  UNL     1      11.006  10.565   3.194  1.00  0.00    -0.351 N 
ATOM     22  H2  UNL     1      11.485  11.313   3.694  1.00  0.00     0.163 HD
BRANCH  21  23
HETATM   23  C16 UNL     1       9.697  10.159   3.658  1.00  0.00     0.034 C 
HETATM   24  C17 UNL     1       8.651  10.340   2.608  1.00  0.00     0.035 C 
HETATM   25  C18 UNL     1       7.336   9.717   3.057  1.00  0.00    -0.012 C 
HETATM   26  C19 UNL     1       6.866  10.512   4.248  1.00  0.00     0.009 C 
HETATM   27  C23 UNL     1       7.555   8.270   3.342  1.00  0.00     0.009 C 
HETATM   28  C20 UNL     1       7.924  10.392   5.331  1.00  0.00    -0.012 C 
HETATM   29  C21 UNL     1       7.985   8.943   5.727  1.00  0.00     0.009 C 
HETATM   30  C25 UNL     1       9.250  10.947   4.880  1.00  0.00     0.035 C 
HETATM   31  C22 UNL     1       8.472   8.154   4.540  1.00  0.00    -0.012 C 
HETATM   32  C24 UNL     1       9.803   8.718   4.127  1.00  0.00     0.035 C 
ENDBRANCH  21  23
ENDBRANCH   1  19
TORSDOF 6
ENDMDL
MODEL 3
REMARK VINA RESULT: -9.925885141      0.121      1.350
REMARK  6 active torsions:
REMARK  status: ('A' for Active; 'I' for Inactive)
REMARK    1  A    between atoms: C1_2  and  C2_3 
REMARK    2  A    between atoms: C1_2  and  C8_12 
REMARK    3  A    between atoms: C2_3  and  C3_4 
REMARK    4  A    between atoms: C8_12  and  C9_13 
REMARK    5  A    between atoms: C8_12  and  C15_19 
REMARK       I    between atoms: C15_19  and  N2_21 
REMARK    6  A    between atoms: N2_21  and  C16_23 
ROOT
HETATM    1  C8  UNL     1      13.248  10.365   1.935  1.00  0.00     0.170 C 
ENDROOT
BRANCH   1   2
HETATM    2  C1  UNL     1      14.100  10.346   3.125  1.00  0.00     0.143 C 
HETATM    3  O1  UNL     1      13.744  11.086   4.063  1.00  0.00    -0.297 OA
BRANCH   2   4
HETATM    4  C2  UNL     1      15.317   9.548   3.308  1.00  0.00     0.084 C 
BRANCH   4   5
HETATM    5  C3  UNL     1      15.111   8.505   4.400  1.00  0.00    -0.004 C 
HETATM    6  C4  UNL     1      13.681   8.513   4.848  1.00  0.00     0.032 C 
HETATM    7  C5  UNL     1      13.122   7.104   4.787  1.00  0.00     0.232 C 
HETATM    8  N1  UNL     1      13.103   6.647   3.425  1.00  0.00    -0.075 N 
HETATM    9  C6  UNL     1      14.417   6.649   2.862  1.00  0.00     0.232 C 
ATOM     10  H12 UNL     1      12.660   5.731   3.342  1.00  0.00     0.277 HD
ATOM     11  H11 UNL     1      12.450   7.188   2.857  1.00  0.00     0.277 HD
HETATM   12  C7  UNL     1      15.472   7.172   3.807  1.00  0.00     0.032 C 
ENDBRANCH   4   5
ENDBRANCH   2   4
ENDBRANCH   1   2
BRANCH   1  13
HETATM   13  C9  UNL     1      13.180  11.708   1.302  1.00  0.00    -0.002 C 
HETATM   14  C10 UNL     1      13.906  12.069   0.276  1.00  0.00    -0.082 C 
HETATM   15  C11 UNL     1      13.857  13.405  -0.376  1.00  0.00     0.034 C 
HETATM   16  C14 UNL     1      14.928  11.261  -0.468  1.00  0.00     0.034 C 
HETATM   17  C12 UNL     1      14.179  13.054  -1.813  1.00  0.00     0.005 C 
HETATM   18  C13 UNL     1      15.379  12.124  -1.598  1.00  0.00     0.005 C 
ENDBRANCH   1  13
BRANCH   1  19
HETATM   19  C15 UNL     1      11.915   9.825   2.256  1.00  0.00     0.233 C 
HETATM   20  O2  UNL     1      11.511   8.786   1.663  1.00  0.00    -0.272 OA
HETATM   21  N2  UNL     1      11.108  10.479   3.221  1.00  0.00    -0.351 N 
ATOM     22  H2  UNL     1      11.479  11.313   3.674  1.00  0.00     0.163 HD
BRANCH  21  23
HETATM   23  C16 UNL     1       9.785  10.026   3.597  1.00  0.00     0.034 C 
HETATM   24  C17 UNL     1       9.775   8.581   3.974  1.00  0.00     0.035 C 
HETATM   25  C18 UNL     1       8.422   8.195   4.556  1.00  0.00    -0.012 C 
HETATM   26  C19 UNL     1       7.417   8.338   3.442  1.00  0.00     0.009 C 
HETATM   27  C23 UNL     1       8.139   9.052   5.742  1.00  0.00     0.009 C 
HETATM   28  C20 UNL     1       7.423   9.790   2.995  1.00  0.00    -0.012 C 
HETATM   29  C21 UNL     1       6.951  10.610   4.163  1.00  0.00     0.009 C 
HETATM   30  C25 UNL     1       8.774  10.207   2.475  1.00  0.00     0.035 C 
HETATM   31  C22 UNL     1       7.967  10.479   5.267  1.00  0.00    -0.012 C 
HETATM   32  C24 UNL     1       9.297  10.921   4.724  1.00  0.00     0.035 C 
ENDBRANCH  21  23
ENDBRANCH   1  19
TORSDOF 6
ENDMDL
MODEL 4
REMARK VINA RESULT: -9.861481781      0.994      1.910
REMARK  6 active torsions:
REMARK  status: ('A' for Active; 'I' for Inactive)
REMARK    1  A    between atoms: C1_2  and  C2_3 
REMARK    2  A    between atoms: C1_2  and  C8_12 
REMARK    3  A    between atoms: C2_3  and  C3_4 
REMARK    4  A    between atoms: C8_12  and  C9_13 
REMARK    5  A    between atoms: C8_12  and  C15_19 
REMARK       I    between atoms: C15_19  and  N2_21 
REMARK    6  A    between atoms: N2_21  and  C16_23 
ROOT
HETATM    1  C8  UNL     1      13.086  10.460   1.689  1.00  0.00     0.170 C 
ENDROOT
BRANCH   1   2
HETATM    2  C1  UNL     1      13.951  10.463   2.869  1.00  0.00     0.143 C 
HETATM    3  O1  UNL     1      13.660  11.287   3.758  1.00  0.00    -0.297 OA
BRANCH   2   4
HETATM    4  C2  UNL     1      15.113   9.596   3.096  1.00  0.00     0.084 C 
BRANCH   4   5
HETATM    5  C3  UNL     1      14.783   8.523   4.127  1.00  0.00    -0.004 C 
HETATM    6  C4  UNL     1      15.028   7.164   3.544  1.00  0.00     0.032 C 
HETATM    7  C5  UNL     1      15.925   6.366   4.473  1.00  0.00     0.232 C 
HETATM    8  N1  UNL     1      17.215   6.994   4.560  1.00  0.00    -0.075 N 
HETATM    9  C6  UNL     1      17.105   8.331   5.056  1.00  0.00     0.232 C 
ATOM     10  H12 UNL     1      17.865   6.439   5.118  1.00  0.00     0.277 HD
ATOM     11  H11 UNL     1      17.708   6.963   3.668  1.00  0.00     0.277 HD
HETATM   12  C7  UNL     1      15.680   8.760   5.309  1.00  0.00     0.032 C 
ENDBRANCH   4   5
ENDBRANCH   2   4
ENDBRANCH   1   2
BRANCH   1  13
HETATM   13  C9  UNL     1      13.013  11.791   1.031  1.00  0.00    -0.002 C 
HETATM   14  C10 UNL     1      13.824  12.183   0.083  1.00  0.00    -0.082 C 
HETATM   15  C11 UNL     1      13.771  13.508  -0.591  1.00  0.00     0.034 C 
HETATM   16  C14 UNL     1      14.963  11.427  -0.535  1.00  0.00     0.034 C 
HETATM   17  C12 UNL     1      14.264  13.162  -1.980  1.00  0.00     0.005 C 
HETATM   18  C13 UNL     1      15.485  12.304  -1.623  1.00  0.00     0.005 C 
ENDBRANCH   1  13
BRANCH   1  19
HETATM   19  C15 UNL     1      11.757   9.928   2.034  1.00  0.00     0.233 C 
HETATM   20  O2  UNL     1      11.264   8.996   1.337  1.00  0.00    -0.272 OA
HETATM   21  N2  UNL     1      11.050  10.467   3.138  1.00  0.00    -0.351 N 
ATOM     22  H2  UNL     1      11.491  11.217   3.671  1.00  0.00     0.163 HD
BRANCH  21  23
HETATM   23  C16 UNL     1       9.739  10.013   3.549  1.00  0.00     0.034 C 
HETATM   24  C17 UNL     1       9.734   8.561   3.897  1.00  0.00     0.035 C 
HETATM   25  C18 UNL     1       8.399   8.169   4.516  1.00  0.00    -0.012 C 
HETATM   26  C19 UNL     1       7.358   8.339   3.440  1.00  0.00     0.009 C 
HETATM   27  C23 UNL     1       8.160   9.003   5.728  1.00  0.00     0.009 C 
HETATM   28  C20 UNL     1       7.357   9.800   3.023  1.00  0.00    -0.012 C 
HETATM   29  C21 UNL     1       6.929  10.598   4.222  1.00  0.00     0.009 C 
HETATM   30  C25 UNL     1       8.692  10.221   2.466  1.00  0.00     0.035 C 
HETATM   31  C22 UNL     1       7.980  10.440   5.289  1.00  0.00    -0.012 C 
HETATM   32  C24 UNL     1       9.294  10.887   4.710  1.00  0.00     0.035 C 
ENDBRANCH  21  23
ENDBRANCH   1  19
TORSDOF 6
ENDMDL
MODEL 5
REMARK VINA RESULT: -9.769519465      0.134      1.381
REMARK  6 active torsions:
REMARK  status: ('A' for Active; 'I' for Inactive)
REMARK    1  A    between atoms: C1_2  and  C2_3 
REMARK    2  A    between atoms: C1_2  and  C8_12 
REMARK    3  A    between atoms: C2_3  and  C3_4 
REMARK    4  A    between atoms: C8_12  and  C9_13 
REMARK    5  A    between atoms: C8_12  and  C15_19 
REMARK       I    between atoms: C15_19  and  N2_21 
REMARK    6  A    between atoms: N2_21  and  C16_23 
ROOT
HETATM    1  C8  UNL     1      13.232  10.327   1.887  1.00  0.00     0.170 C 
ENDROOT
BRANCH   1   2
HETATM    2  C1  UNL     1      14.144  10.330   3.031  1.00  0.00     0.143 C 
HETATM    3  O1  UNL     1      13.847  11.104   3.963  1.00  0.00    -0.297 OA
BRANCH   2   4
HETATM    4  C2  UNL     1      15.357   9.519   3.177  1.00  0.00     0.084 C 
BRANCH   4   5
HETATM    5  C3  UNL     1      15.186   8.502   4.300  1.00  0.00    -0.004 C 
HETATM    6  C4  UNL     1      13.772   8.526   4.797  1.00  0.00     0.032 C 
HETATM    7  C5  UNL     1      13.206   7.118   4.788  1.00  0.00     0.232 C 
HETATM    8  N1  UNL     1      13.139   6.630   3.438  1.00  0.00    -0.075 N 
HETATM    9  C6  UNL     1      14.433   6.613   2.831  1.00  0.00     0.232 C 
ATOM     10  H12 UNL     1      12.691   5.714   3.392  1.00  0.00     0.277 HD
ATOM     11  H11 UNL     1      12.468   7.159   2.881  1.00  0.00     0.277 HD
HETATM   12  C7  UNL     1      15.522   7.154   3.727  1.00  0.00     0.032 C 
ENDBRANCH   4   5
ENDBRANCH   2   4
ENDBRANCH   1   2
BRANCH   1  13
HETATM   13  C9  UNL     1      13.127  11.658   1.235  1.00  0.00    -0.002 C 
HETATM   14  C10 UNL     1      13.871  12.041   0.232  1.00  0.00    -0.082 C 
HETATM   15  C11 UNL     1      13.785  13.367  -0.437  1.00  0.00     0.034 C 
HETATM   16  C14 UNL     1      14.954  11.273  -0.468  1.00  0.00     0.034 C 
HETATM   17  C12 UNL     1      14.172  13.017  -1.859  1.00  0.00     0.005 C 
HETATM   18  C13 UNL     1      15.405  12.145  -1.590  1.00  0.00     0.005 C 
ENDBRANCH   1  13
BRANCH   1  19
HETATM   19  C15 UNL     1      11.920   9.787   2.284  1.00  0.00     0.233 C 
HETATM   20  O2  UNL     1      11.511   8.712   1.762  1.00  0.00    -0.272 OA
HETATM   21  N2  UNL     1      11.137  10.481   3.240  1.00  0.00    -0.351 N 
ATOM     22  H2  UNL     1      11.512  11.344   3.634  1.00  0.00     0.163 HD
BRANCH  21  23
HETATM   23  C16 UNL     1       9.836  10.033   3.688  1.00  0.00     0.034 C 
HETATM   24  C17 UNL     1       9.334  10.837   4.842  1.00  0.00     0.035 C 
HETATM   25  C18 UNL     1       7.888  10.474   5.151  1.00  0.00    -0.012 C 
HETATM   26  C19 UNL     1       7.893   9.041   5.618  1.00  0.00     0.009 C 
HETATM   27  C23 UNL     1       7.055  10.713   3.938  1.00  0.00     0.009 C 
HETATM   28  C20 UNL     1       8.439   8.187   4.487  1.00  0.00    -0.012 C 
HETATM   29  C21 UNL     1       7.472   8.305   3.342  1.00  0.00     0.009 C 
HETATM   30  C25 UNL     1       9.848   8.576   4.125  1.00  0.00     0.035 C 
HETATM   31  C22 UNL     1       7.483   9.734   2.866  1.00  0.00    -0.012 C 
HETATM   32  C24 UNL     1       8.897  10.085   2.494  1.00  0.00     0.035 C 
ENDBRANCH  21  23
ENDBRANCH   1  19
TORSDOF 6
ENDMDL
