MODEL 1
REMARK VINA RESULT: -6.879448906      0.000      0.000
REMARK  8 active torsions:
REMARK  status: ('A' for Active; 'I' for Inactive)
REMARK    1  A    between atoms: N1_2  and  C2_4 
REMARK    2  A    between atoms: C3_7  and  N3_8 
REMARK    3  A    between atoms: C5_14  and  N5_15 
REMARK    4  A    between atoms: N5_15  and  C6_17 
REMARK    5  A    between atoms: C6_17  and  O1_18 
REMARK    6  A    between atoms: C6_17  and  C7_20 
REMARK    7  A    between atoms: C7_20  and  N6_21 
REMARK    8  A    between atoms: C7_20  and  C8_25 
ROOT
HETATM    1  C2  UNL     1      31.178  54.116  11.832  1.00  0.00     0.168 C 
HETATM    2  N2  UNL     1      30.671  52.996  12.408  1.00  0.00    -0.173 N 
ATOM      3  H2  UNL     1      30.279  53.132  13.339  1.00  0.00     0.186 HD
HETATM    4  C3  UNL     1      30.605  51.745  11.948  1.00  0.00     0.678 C 
HETATM    5  N4  UNL     1      31.085  51.294  10.771  1.00  0.00    -0.187 N 
ATOM      6  H4  UNL     1      30.795  50.343  10.540  1.00  0.00     0.184 HD
HETATM    7  C4  UNL     1      31.876  51.868   9.842  1.00  0.00     0.114 A 
HETATM    8  C5  UNL     1      32.223  50.985   8.816  1.00  0.00     0.147 A 
HETATM    9  N8  UNL     1      33.003  51.467   7.854  1.00  0.00    -0.281 N 
ATOM     10  H8  UNL     1      33.269  50.841   7.094  1.00  0.00     0.188 HD
HETATM   11  N9  UNL     1      33.458  52.713   7.821  1.00  0.00    -0.264 N 
ATOM     12  H9  UNL     1      34.054  53.016   7.051  1.00  0.00     0.190 HD
HETATM   13  C9  UNL     1      33.134  53.582   8.802  1.00  0.00     0.276 A 
HETATM   14  O3  UNL     1      33.553  54.768   8.792  1.00  0.00    -0.266 OA
HETATM   15  C10 UNL     1      32.327  53.172   9.845  1.00  0.00     0.118 A 
HETATM   16  C11 UNL     1      32.077  54.165  10.779  1.00  0.00     0.234 C 
HETATM   17  O4  UNL     1      32.748  55.219  10.642  1.00  0.00    -0.283 OA
ENDROOT
BRANCH   8  18
HETATM   18  N5  UNL     1      31.762  49.804   8.897  1.00  0.00    -0.345 N 
ATOM     19  H5  UNL     1      32.291  49.143   9.466  1.00  0.00     0.163 HD
BRANCH  18  20
HETATM   20  C6  UNL     1      30.574  49.308   8.270  1.00  0.00     0.259 C 
BRANCH  20  21
HETATM   21  O1  UNL     1      29.758  50.368   7.810  1.00  0.00    -0.374 OA
ATOM     22  H1  UNL     1      28.839  50.188   7.971  1.00  0.00     0.212 HD
ENDBRANCH  20  21
BRANCH  20  23
HETATM   23  C7  UNL     1      31.019  48.579   6.995  1.00  0.00     0.319 C 
BRANCH  23  24
HETATM   24  N6  UNL     1      32.407  48.278   7.148  1.00  0.00    -0.063 N 
ATOM     25  H63 UNL     1      32.999  48.768   6.477  1.00  0.00     0.275 HD
ATOM     26  H62 UNL     1      32.813  48.677   7.995  1.00  0.00     0.275 HD
ATOM     27  H61 UNL     1      32.500  47.264   7.100  1.00  0.00     0.275 HD
ENDBRANCH  23  24
BRANCH  23  28
HETATM   28  C8  UNL     1      30.717  49.372   5.790  1.00  0.00     0.266 C 
HETATM   29  N7  UNL     1      31.447  50.548   5.494  1.00  0.00    -0.060 NA
HETATM   30  O2  UNL     1      29.806  49.032   4.992  1.00  0.00    -0.274 OA
ENDBRANCH  23  28
ENDBRANCH  20  23
ENDBRANCH  18  20
ENDBRANCH   8  18
BRANCH   4  31
HETATM   31  N3  UNL     1      30.027  50.876  12.700  1.00  0.00    -0.234 N 
ATOM     32  H32 UNL     1      30.306  50.868  13.680  1.00  0.00     0.174 HD
ATOM     33  H31 UNL     1      29.339  50.266  12.258  1.00  0.00     0.174 HD
ENDBRANCH   4  31
BRANCH   1  34
HETATM   34  N1  UNL     1      30.807  55.249  12.286  1.00  0.00    -0.377 N 
HETATM   35  C1  UNL     1      29.528  55.366  12.957  1.00  0.00     0.148 C 
ATOM     36  H1  UNL     1      31.407  56.066  12.177  1.00  0.00     0.160 HD
ENDBRANCH   1  34
TORSDOF 8
ENDMDL
MODEL 2
REMARK VINA RESULT: -6.759436438      2.217      5.619
REMARK  8 active torsions:
REMARK  status: ('A' for Active; 'I' for Inactive)
REMARK    1  A    between atoms: N1_2  and  C2_4 
REMARK    2  A    between atoms: C3_7  and  N3_8 
REMARK    3  A    between atoms: C5_14  and  N5_15 
REMARK    4  A    between atoms: N5_15  and  C6_17 
REMARK    5  A    between atoms: C6_17  and  O1_18 
REMARK    6  A    between atoms: C6_17  and  C7_20 
REMARK    7  A    between atoms: C7_20  and  N6_21 
REMARK    8  A    between atoms: C7_20  and  C8_25 
ROOT
HETATM    1  C2  UNL     1      31.219  51.237   6.778  1.00  0.00     0.168 C 
HETATM    2  N2  UNL     1      30.078  51.018   7.480  1.00  0.00    -0.173 N 
ATOM      3  H2  UNL     1      29.350  50.519   6.969  1.00  0.00     0.186 HD
HETATM    4  C3  UNL     1      29.757  51.353   8.731  1.00  0.00     0.678 C 
HETATM    5  N4  UNL     1      30.520  52.049   9.598  1.00  0.00    -0.187 N 
ATOM      6  H4  UNL     1      30.158  52.064  10.552  1.00  0.00     0.184 HD
HETATM    7  C4  UNL     1      31.674  52.727   9.439  1.00  0.00     0.114 A 
HETATM    8  C5  UNL     1      32.061  53.404  10.598  1.00  0.00     0.147 A 
HETATM    9  N8  UNL     1      33.191  54.101  10.532  1.00  0.00    -0.281 N 
ATOM     10  H8  UNL     1      33.493  54.604  11.366  1.00  0.00     0.188 HD
HETATM   11  N9  UNL     1      33.949  54.184   9.446  1.00  0.00    -0.264 N 
ATOM     12  H9  UNL     1      34.805  54.739   9.466  1.00  0.00     0.190 HD
HETATM   13  C9  UNL     1      33.594  53.538   8.316  1.00  0.00     0.276 A 
HETATM   14  O3  UNL     1      34.298  53.602   7.276  1.00  0.00    -0.266 OA
HETATM   15  C10 UNL     1      32.435  52.787   8.289  1.00  0.00     0.118 A 
HETATM   16  C11 UNL     1      32.193  52.179   7.068  1.00  0.00     0.234 C 
HETATM   17  O4  UNL     1      32.950  52.533   6.128  1.00  0.00    -0.283 OA
ENDROOT
BRANCH   8  18
HETATM   18  N5  UNL     1      31.299  53.292  11.608  1.00  0.00    -0.345 N 
ATOM     19  H5  UNL     1      30.940  52.359  11.811  1.00  0.00     0.163 HD
BRANCH  18  20
HETATM   20  C6  UNL     1      30.891  54.344  12.490  1.00  0.00     0.259 C 
BRANCH  20  21
HETATM   21  O1  UNL     1      30.635  55.538  11.776  1.00  0.00    -0.374 OA
ATOM     22  H1  UNL     1      29.880  55.994  12.131  1.00  0.00     0.212 HD
ENDBRANCH  20  21
BRANCH  20  23
HETATM   23  C7  UNL     1      29.530  53.935  13.066  1.00  0.00     0.319 C 
BRANCH  23  24
HETATM   24  N6  UNL     1      29.786  53.180  14.251  1.00  0.00    -0.063 N 
ATOM     25  H63 UNL     1      30.645  52.633  14.199  1.00  0.00     0.275 HD
ATOM     26  H62 UNL     1      30.050  53.761  15.048  1.00  0.00     0.275 HD
ATOM     27  H61 UNL     1      28.959  52.611  14.428  1.00  0.00     0.275 HD
ENDBRANCH  23  24
BRANCH  23  28
HETATM   28  C8  UNL     1      28.721  53.211  12.070  1.00  0.00     0.266 C 
HETATM   29  N7  UNL     1      28.196  53.879  10.937  1.00  0.00    -0.060 NA
HETATM   30  O2  UNL     1      28.472  51.983  12.192  1.00  0.00    -0.274 OA
ENDBRANCH  23  28
ENDBRANCH  20  23
ENDBRANCH  18  20
ENDBRANCH   8  18
BRANCH   4  31
HETATM   31  N3  UNL     1      28.603  50.978   9.158  1.00  0.00    -0.234 N 
ATOM     32  H32 UNL     1      28.336  50.016   8.955  1.00  0.00     0.174 HD
ATOM     33  H31 UNL     1      28.049  51.670   9.664  1.00  0.00     0.174 HD
ENDBRANCH   4  31
BRANCH   1  34
HETATM   34  N1  UNL     1      31.443  50.520   5.748  1.00  0.00    -0.377 N 
HETATM   35  C1  UNL     1      30.594  49.376   5.476  1.00  0.00     0.148 C 
ATOM     36  H1  UNL     1      32.213  50.749   5.120  1.00  0.00     0.160 HD
ENDBRANCH   1  34
TORSDOF 8
ENDMDL
MODEL 3
REMARK VINA RESULT: -6.264782517      2.742      6.458
REMARK  8 active torsions:
REMARK  status: ('A' for Active; 'I' for Inactive)
REMARK    1  A    between atoms: N1_2  and  C2_4 
REMARK    2  A    between atoms: C3_7  and  N3_8 
REMARK    3  A    between atoms: C5_14  and  N5_15 
REMARK    4  A    between atoms: N5_15  and  C6_17 
REMARK    5  A    between atoms: C6_17  and  O1_18 
REMARK    6  A    between atoms: C6_17  and  C7_20 
REMARK    7  A    between atoms: C7_20  and  N6_21 
REMARK    8  A    between atoms: C7_20  and  C8_25 
ROOT
HETATM    1  C2  UNL     1      30.525  51.132   6.336  1.00  0.00     0.168 C 
HETATM    2  N2  UNL     1      29.500  51.989   6.094  1.00  0.00    -0.173 N 
ATOM      3  H2  UNL     1      29.288  52.137   5.108  1.00  0.00     0.186 HD
HETATM    4  C3  UNL     1      28.726  52.668   6.942  1.00  0.00     0.678 C 
HETATM    5  N4  UNL     1      28.823  52.679   8.288  1.00  0.00    -0.187 N 
ATOM      6  H4  UNL     1      28.041  53.136   8.757  1.00  0.00     0.184 HD
HETATM    7  C4  UNL     1      29.763  52.199   9.126  1.00  0.00     0.114 A 
HETATM    8  C5  UNL     1      29.515  52.538  10.458  1.00  0.00     0.147 A 
HETATM    9  N8  UNL     1      30.392  52.105  11.357  1.00  0.00    -0.281 N 
ATOM     10  H8  UNL     1      30.231  52.340  12.337  1.00  0.00     0.188 HD
HETATM   11  N9  UNL     1      31.466  51.385  11.059  1.00  0.00    -0.264 N 
ATOM     12  H9  UNL     1      32.099  51.086  11.801  1.00  0.00     0.190 HD
HETATM   13  C9  UNL     1      31.725  51.047   9.778  1.00  0.00     0.276 A 
HETATM   14  O3  UNL     1      32.736  50.364   9.472  1.00  0.00    -0.266 OA
HETATM   15  C10 UNL     1      30.868  51.451   8.773  1.00  0.00     0.118 A 
HETATM   16  C11 UNL     1      31.255  51.034   7.510  1.00  0.00     0.234 C 
HETATM   17  O4  UNL     1      32.396  50.512   7.438  1.00  0.00    -0.283 OA
ENDROOT
BRANCH   8  18
HETATM   18  N5  UNL     1      28.474  53.229  10.689  1.00  0.00    -0.345 N 
ATOM     19  H5  UNL     1      28.002  53.632   9.879  1.00  0.00     0.163 HD
BRANCH  18  20
HETATM   20  C6  UNL     1      27.896  53.499  11.971  1.00  0.00     0.259 C 
BRANCH  20  21
HETATM   21  O1  UNL     1      28.042  52.393  12.840  1.00  0.00    -0.374 OA
ATOM     22  H1  UNL     1      27.453  52.459  13.582  1.00  0.00     0.212 HD
ENDBRANCH  20  21
BRANCH  20  23
HETATM   23  C7  UNL     1      28.739  54.610  12.610  1.00  0.00     0.319 C 
BRANCH  23  24
HETATM   24  N6  UNL     1      29.213  55.440  11.548  1.00  0.00    -0.063 N 
ATOM     25  H63 UNL     1      28.489  56.043  11.158  1.00  0.00     0.275 HD
ATOM     26  H62 UNL     1      29.841  56.178  11.866  1.00  0.00     0.275 HD
ATOM     27  H61 UNL     1      29.637  54.824  10.855  1.00  0.00     0.275 HD
ENDBRANCH  23  24
BRANCH  23  28
HETATM   28  C8  UNL     1      29.816  54.052  13.447  1.00  0.00     0.266 C 
HETATM   29  N7  UNL     1      31.150  54.504  13.308  1.00  0.00    -0.060 NA
HETATM   30  O2  UNL     1      29.586  53.162  14.307  1.00  0.00    -0.274 OA
ENDBRANCH  23  28
ENDBRANCH  20  23
ENDBRANCH  18  20
ENDBRANCH   8  18
BRANCH   4  31
HETATM   31  N3  UNL     1      27.789  53.386   6.431  1.00  0.00    -0.234 N 
ATOM     32  H32 UNL     1      27.988  54.381   6.325  1.00  0.00     0.174 HD
ATOM     33  H31 UNL     1      26.926  52.907   6.174  1.00  0.00     0.174 HD
ENDBRANCH   4  31
BRANCH   1  34
HETATM   34  N1  UNL     1      30.873  50.328   5.409  1.00  0.00    -0.377 N 
HETATM   35  C1  UNL     1      30.277  49.008   5.349  1.00  0.00     0.148 C 
ATOM     36  H1  UNL     1      31.564  50.612   4.716  1.00  0.00     0.160 HD
ENDBRANCH   1  34
TORSDOF 8
ENDMDL
MODEL 4
REMARK VINA RESULT: -6.227107700      1.274      1.619
REMARK  8 active torsions:
REMARK  status: ('A' for Active; 'I' for Inactive)
REMARK    1  A    between atoms: N1_2  and  C2_4 
REMARK    2  A    between atoms: C3_7  and  N3_8 
REMARK    3  A    between atoms: C5_14  and  N5_15 
REMARK    4  A    between atoms: N5_15  and  C6_17 
REMARK    5  A    between atoms: C6_17  and  O1_18 
REMARK    6  A    between atoms: C6_17  and  C7_20 
REMARK    7  A    between atoms: C7_20  and  N6_21 
REMARK    8  A    between atoms: C7_20  and  C8_25 
ROOT
HETATM    1  C2  UNL     1      30.545  54.405  12.238  1.00  0.00     0.168 C 
HETATM    2  N2  UNL     1      29.589  53.460  12.430  1.00  0.00    -0.173 N 
ATOM      3  H2  UNL     1      29.063  53.553  13.299  1.00  0.00     0.186 HD
HETATM    4  C3  UNL     1      29.228  52.431  11.663  1.00  0.00     0.678 C 
HETATM    5  N4  UNL     1      29.787  52.065  10.491  1.00  0.00    -0.187 N 
ATOM      6  H4  UNL     1      29.266  51.348   9.987  1.00  0.00     0.184 HD
HETATM    7  C4  UNL     1      30.909  52.473   9.863  1.00  0.00     0.114 A 
HETATM    8  C5  UNL     1      31.173  51.734   8.707  1.00  0.00     0.147 A 
HETATM    9  N8  UNL     1      32.261  52.069   8.022  1.00  0.00    -0.281 N 
ATOM     10  H8  UNL     1      32.474  51.543   7.174  1.00  0.00     0.188 HD
HETATM   11  N9  UNL     1      33.089  53.045   8.373  1.00  0.00    -0.264 N 
ATOM     12  H9  UNL     1      33.908  53.247   7.800  1.00  0.00     0.190 HD
HETATM   13  C9  UNL     1      32.852  53.770   9.486  1.00  0.00     0.276 A 
HETATM   14  O3  UNL     1      33.622  54.700   9.838  1.00  0.00    -0.266 OA
HETATM   15  C10 UNL     1      31.743  53.497  10.263  1.00  0.00     0.118 A 
HETATM   16  C11 UNL     1      31.624  54.317  11.373  1.00  0.00     0.234 C 
HETATM   17  O4  UNL     1      32.612  55.059  11.606  1.00  0.00    -0.283 OA
ENDROOT
BRANCH   8  18
HETATM   18  N5  UNL     1      30.349  50.811   8.417  1.00  0.00    -0.345 N 
ATOM     19  H5  UNL     1      30.088  50.175   9.171  1.00  0.00     0.163 HD
BRANCH  18  20
HETATM   20  C6  UNL     1      29.751  50.573   7.138  1.00  0.00     0.259 C 
BRANCH  20  21
HETATM   21  O1  UNL     1      29.429  51.789   6.491  1.00  0.00    -0.374 OA
ATOM     22  H1  UNL     1      30.213  52.284   6.283  1.00  0.00     0.212 HD
ENDBRANCH  20  21
BRANCH  20  23
HETATM   23  C7  UNL     1      30.833  49.937   6.256  1.00  0.00     0.319 C 
BRANCH  23  24
HETATM   24  N6  UNL     1      30.373  50.018   4.906  1.00  0.00    -0.063 N 
ATOM     25  H63 UNL     1      30.296  49.107   4.454  1.00  0.00     0.275 HD
ATOM     26  H62 UNL     1      29.390  50.283   4.832  1.00  0.00     0.275 HD
ATOM     27  H61 UNL     1      30.997  50.657   4.415  1.00  0.00     0.275 HD
ENDBRANCH  23  24
BRANCH  23  28
HETATM   28  C8  UNL     1      31.142  48.564   6.692  1.00  0.00     0.266 C 
HETATM   29  N7  UNL     1      31.748  48.321   7.948  1.00  0.00    -0.060 NA
HETATM   30  O2  UNL     1      30.880  47.570   5.967  1.00  0.00    -0.274 OA
ENDBRANCH  23  28
ENDBRANCH  20  23
ENDBRANCH  18  20
ENDBRANCH   8  18
BRANCH   4  31
HETATM   31  N3  UNL     1      28.247  51.709  12.077  1.00  0.00    -0.234 N 
ATOM     32  H32 UNL     1      27.319  51.975  11.749  1.00  0.00     0.174 HD
ATOM     33  H31 UNL     1      28.474  50.931  12.697  1.00  0.00     0.174 HD
ENDBRANCH   4  31
BRANCH   1  34
HETATM   34  N1  UNL     1      30.469  55.488  12.907  1.00  0.00    -0.377 N 
HETATM   35  C1  UNL     1      29.218  55.846  13.545  1.00  0.00     0.148 C 
ATOM     36  H1  UNL     1      31.282  56.097  12.992  1.00  0.00     0.160 HD
ENDBRANCH   1  34
TORSDOF 8
ENDMDL
MODEL 5
REMARK VINA RESULT: -6.200675417      2.576      6.260
REMARK  8 active torsions:
REMARK  status: ('A' for Active; 'I' for Inactive)
REMARK    1  A    between atoms: N1_2  and  C2_4 
REMARK    2  A    between atoms: C3_7  and  N3_8 
REMARK    3  A    between atoms: C5_14  and  N5_15 
REMARK    4  A    between atoms: N5_15  and  C6_17 
REMARK    5  A    between atoms: C6_17  and  O1_18 
REMARK    6  A    between atoms: C6_17  and  C7_20 
REMARK    7  A    between atoms: C7_20  and  N6_21 
REMARK    8  A    between atoms: C7_20  and  C8_25 
ROOT
HETATM    1  C2  UNL     1      31.095  51.205   6.513  1.00  0.00     0.168 C 
HETATM    2  N2  UNL     1      29.838  51.715   6.451  1.00  0.00    -0.173 N 
ATOM      3  H2  UNL     1      29.392  51.646   5.537  1.00  0.00     0.186 HD
HETATM    4  C3  UNL     1      29.094  52.292   7.396  1.00  0.00     0.678 C 
HETATM    5  N4  UNL     1      29.462  52.540   8.670  1.00  0.00    -0.187 N 
ATOM      6  H4  UNL     1      28.696  52.845   9.272  1.00  0.00     0.184 HD
HETATM    7  C4  UNL     1      30.654  52.461   9.295  1.00  0.00     0.114 A 
HETATM    8  C5  UNL     1      30.600  52.928  10.610  1.00  0.00     0.147 A 
HETATM    9  N8  UNL     1      31.733  52.886  11.304  1.00  0.00    -0.281 N 
ATOM     10  H8  UNL     1      31.718  53.221  12.267  1.00  0.00     0.188 HD
HETATM   11  N9  UNL     1      32.883  52.434  10.820  1.00  0.00    -0.264 N 
ATOM     12  H9  UNL     1      33.716  52.432  11.410  1.00  0.00     0.190 HD
HETATM   13  C9  UNL     1      32.956  51.979   9.552  1.00  0.00     0.276 A 
HETATM   14  O3  UNL     1      34.036  51.545   9.073  1.00  0.00    -0.266 OA
HETATM   15  C10 UNL     1      31.830  51.982   8.754  1.00  0.00     0.118 A 
HETATM   16  C11 UNL     1      32.049  51.488   7.478  1.00  0.00     0.234 C 
HETATM   17  O4  UNL     1      33.252  51.277   7.178  1.00  0.00    -0.283 OA
ENDROOT
BRANCH   8  18
HETATM   18  N5  UNL     1      29.475  53.350  11.022  1.00  0.00    -0.345 N 
ATOM     19  H5  UNL     1      28.745  52.651  11.159  1.00  0.00     0.163 HD
BRANCH  18  20
HETATM   20  C6  UNL     1      29.129  54.708  11.314  1.00  0.00     0.259 C 
BRANCH  20  21
HETATM   21  O1  UNL     1      27.764  54.958  11.039  1.00  0.00    -0.374 OA
ATOM     22  H1  UNL     1      27.287  55.172  11.832  1.00  0.00     0.212 HD
ENDBRANCH  20  21
BRANCH  20  23
HETATM   23  C7  UNL     1      29.256  54.880  12.834  1.00  0.00     0.319 C 
BRANCH  23  24
HETATM   24  N6  UNL     1      30.503  55.532  13.078  1.00  0.00    -0.063 N 
ATOM     25  H63 UNL     1      30.923  55.922  12.234  1.00  0.00     0.275 HD
ATOM     26  H62 UNL     1      30.403  56.409  13.591  1.00  0.00     0.275 HD
ATOM     27  H61 UNL     1      31.105  54.859  13.551  1.00  0.00     0.275 HD
ENDBRANCH  23  24
BRANCH  23  28
HETATM   28  C8  UNL     1      29.119  53.590  13.532  1.00  0.00     0.266 C 
HETATM   29  N7  UNL     1      27.853  52.970  13.669  1.00  0.00    -0.060 NA
HETATM   30  O2  UNL     1      30.115  53.001  14.027  1.00  0.00    -0.274 OA
ENDBRANCH  23  28
ENDBRANCH  20  23
ENDBRANCH  18  20
ENDBRANCH   8  18
BRANCH   4  31
HETATM   31  N3  UNL     1      27.904  52.651   7.065  1.00  0.00    -0.234 N 
ATOM     32  H32 UNL     1      27.175  52.498   7.761  1.00  0.00     0.174 HD
ATOM     33  H31 UNL     1      27.784  53.058   6.137  1.00  0.00     0.174 HD
ENDBRANCH   4  31
BRANCH   1  34
HETATM   34  N1  UNL     1      31.460  50.385   5.608  1.00  0.00    -0.377 N 
HETATM   35  C1  UNL     1      30.779  49.111   5.482  1.00  0.00     0.148 C 
ATOM     36  H1  UNL     1      32.226  50.623   4.979  1.00  0.00     0.160 HD
ENDBRANCH   1  34
TORSDOF 8
ENDMDL
