MODEL 1
REMARK VINA RESULT: -8.399536479      0.000      0.000
REMARK  8 active torsions:
REMARK  status: ('A' for Active; 'I' for Inactive)
REMARK    1  A    between atoms: C2_2  and  C4_4 
REMARK    2  A    between atoms: C4_4  and  C5_5 
REMARK    3  A    between atoms: C4_4  and  C22_27 
REMARK    4  A    between atoms: C6_6  and  C7_7 
REMARK    5  A    between atoms: C12_12  and  O1_13 
REMARK    6  A    between atoms: O1_13  and  C13_14 
REMARK    7  A    between atoms: C22_27  and  C23_28 
REMARK    8  A    between atoms: C23_28  and  O7_30 
ROOT
HETATM    1  C7  UNL     1      12.324  64.047  39.300  1.00  0.00     0.054 C 
HETATM    2  C8  UNL     1      13.688  63.341  39.295  1.00  0.00    -0.030 C 
HETATM    3  C9  UNL     1      14.041  63.012  37.842  1.00  0.00     0.016 C 
HETATM    4  C10 UNL     1      14.760  64.270  39.798  1.00  0.00     0.013 C 
HETATM    5  C11 UNL     1      15.879  63.655  40.567  1.00  0.00     0.033 C 
HETATM    6  C12 UNL     1      16.099  62.189  40.360  1.00  0.00     0.132 C 
HETATM    7  C15 UNL     1      14.893  61.394  40.114  1.00  0.00     0.038 C 
HETATM    8  C16 UNL     1      13.587  62.114  40.111  1.00  0.00    -0.001 C 
HETATM    9  C17 UNL     1      12.564  61.115  39.625  1.00  0.00     0.041 C 
HETATM   10  C18 UNL     1      11.272  61.708  39.262  1.00  0.00     0.170 C 
HETATM   11  O3  UNL     1      10.893  61.129  37.987  1.00  0.00    -0.290 OA
HETATM   12  C19 UNL     1      10.150  62.095  37.320  1.00  0.00     0.407 C 
HETATM   13  O4  UNL     1       9.172  61.888  36.574  1.00  0.00    -0.229 OA
HETATM   14  O5  UNL     1      10.735  63.276  37.663  1.00  0.00    -0.284 OA
HETATM   15  C20 UNL     1      11.208  63.132  39.014  1.00  0.00     0.103 C 
HETATM   16  C21 UNL     1       9.968  63.662  39.813  1.00  0.00     0.050 C 
ENDROOT
BRANCH   1  17
HETATM   17  C6  UNL     1      12.139  64.690  40.607  1.00  0.00    -0.018 C 
HETATM   18  C5  UNL     1      11.835  66.048  40.674  1.00  0.00     0.004 C 
BRANCH  18  19
HETATM   19  C4  UNL     1      11.664  66.682  41.847  1.00  0.00    -0.044 C 
BRANCH  19  20
HETATM   20  C2  UNL     1      10.132  67.393  41.284  1.00  0.00    -0.065 C 
HETATM   21  C1  UNL     1       9.099  66.782  41.550  1.00  0.00     0.019 C 
HETATM   22  C3  UNL     1      10.255  68.653  40.608  1.00  0.00     0.048 C 
ENDBRANCH  19  20
BRANCH  19  23
HETATM   23  C22 UNL     1      11.493  67.298  42.976  1.00  0.00     0.150 C 
BRANCH  23  24
HETATM   24  C23 UNL     1      12.780  68.086  43.352  1.00  0.00     0.262 C 
HETATM   25  O6  UNL     1      12.885  69.286  43.116  1.00  0.00    -0.265 OA
BRANCH  24  26
HETATM   26  O7  UNL     1      13.801  67.425  43.963  1.00  0.00    -0.326 OA
HETATM   27  C24 UNL     1      13.618  67.043  45.337  1.00  0.00     0.213 C 
ENDBRANCH  24  26
ENDBRANCH  23  24
ENDBRANCH  19  23
ENDBRANCH  18  19
ENDBRANCH   1  17
BRANCH   6  28
HETATM   28  O1  UNL     1      17.025  61.983  39.304  1.00  0.00    -0.316 OA
BRANCH  28  29
HETATM   29  C13 UNL     1      18.172  61.257  39.431  1.00  0.00     0.255 C 
HETATM   30  C14 UNL     1      18.041  59.811  39.748  1.00  0.00     0.126 C 
HETATM   31  O2  UNL     1      19.287  61.771  39.290  1.00  0.00    -0.266 OA
ENDBRANCH  28  29
ENDBRANCH   6  28
TORSDOF 8
ENDMDL
MODEL 2
REMARK VINA RESULT: -7.922525748      2.324      7.141
REMARK  8 active torsions:
REMARK  status: ('A' for Active; 'I' for Inactive)
REMARK    1  A    between atoms: C2_2  and  C4_4 
REMARK    2  A    between atoms: C4_4  and  C5_5 
REMARK    3  A    between atoms: C4_4  and  C22_27 
REMARK    4  A    between atoms: C6_6  and  C7_7 
REMARK    5  A    between atoms: C12_12  and  O1_13 
REMARK    6  A    between atoms: O1_13  and  C13_14 
REMARK    7  A    between atoms: C22_27  and  C23_28 
REMARK    8  A    between atoms: C23_28  and  O7_30 
ROOT
HETATM    1  C7  UNL     1      12.536  60.186  38.534  1.00  0.00     0.054 C 
HETATM    2  C8  UNL     1      12.315  61.639  38.981  1.00  0.00    -0.030 C 
HETATM    3  C9  UNL     1      10.855  62.000  38.697  1.00  0.00     0.016 C 
HETATM    4  C10 UNL     1      12.510  61.766  40.467  1.00  0.00     0.013 C 
HETATM    5  C11 UNL     1      13.086  63.048  40.966  1.00  0.00     0.033 C 
HETATM    6  C12 UNL     1      12.965  64.228  40.053  1.00  0.00     0.132 C 
HETATM    7  C15 UNL     1      13.037  63.933  38.620  1.00  0.00     0.038 C 
HETATM    8  C16 UNL     1      13.238  62.510  38.223  1.00  0.00    -0.001 C 
HETATM    9  C17 UNL     1      13.057  62.469  36.724  1.00  0.00     0.041 C 
HETATM   10  C18 UNL     1      12.913  61.116  36.174  1.00  0.00     0.170 C 
HETATM   11  O3  UNL     1      11.795  61.159  35.250  1.00  0.00    -0.290 OA
HETATM   12  C19 UNL     1      11.213  59.899  35.276  1.00  0.00     0.407 C 
HETATM   13  O4  UNL     1      10.702  59.303  34.307  1.00  0.00    -0.229 OA
HETATM   14  O5  UNL     1      11.328  59.493  36.571  1.00  0.00    -0.284 OA
HETATM   15  C20 UNL     1      12.562  60.037  37.072  1.00  0.00     0.103 C 
HETATM   16  C21 UNL     1      13.547  58.860  36.751  1.00  0.00     0.050 C 
ENDROOT
BRANCH   1  17
HETATM   17  C6  UNL     1      13.794  59.707  39.122  1.00  0.00    -0.018 C 
HETATM   18  C5  UNL     1      14.950  60.477  39.006  1.00  0.00     0.004 C 
BRANCH  18  19
HETATM   19  C4  UNL     1      16.125  60.076  39.521  1.00  0.00    -0.044 C 
BRANCH  19  20
HETATM   20  C2  UNL     1      16.632  61.764  39.778  1.00  0.00    -0.065 C 
HETATM   21  C1  UNL     1      16.149  62.353  40.741  1.00  0.00     0.019 C 
HETATM   22  C3  UNL     1      17.607  62.257  38.847  1.00  0.00     0.048 C 
ENDBRANCH  19  20
BRANCH  19  23
HETATM   23  C22 UNL     1      17.263  59.697  40.017  1.00  0.00     0.150 C 
BRANCH  23  24
HETATM   24  C23 UNL     1      17.534  58.210  39.651  1.00  0.00     0.262 C 
HETATM   25  O6  UNL     1      18.635  57.842  39.252  1.00  0.00    -0.265 OA
BRANCH  24  26
HETATM   26  O7  UNL     1      16.526  57.305  39.788  1.00  0.00    -0.326 OA
HETATM   27  C24 UNL     1      16.829  56.069  40.457  1.00  0.00     0.213 C 
ENDBRANCH  24  26
ENDBRANCH  23  24
ENDBRANCH  19  23
ENDBRANCH  18  19
ENDBRANCH   1  17
BRANCH   6  28
HETATM   28  O1  UNL     1      11.765  64.934  40.331  1.00  0.00    -0.316 OA
BRANCH  28  29
HETATM   29  C13 UNL     1      11.700  66.039  41.127  1.00  0.00     0.255 C 
HETATM   30  C14 UNL     1      10.418  66.789  41.162  1.00  0.00     0.126 C 
HETATM   31  O2  UNL     1      12.667  66.416  41.798  1.00  0.00    -0.266 OA
ENDBRANCH  28  29
ENDBRANCH   6  28
TORSDOF 8
ENDMDL
MODEL 3
REMARK VINA RESULT: -7.904781390      5.753      8.999
REMARK  8 active torsions:
REMARK  status: ('A' for Active; 'I' for Inactive)
REMARK    1  A    between atoms: C2_2  and  C4_4 
REMARK    2  A    between atoms: C4_4  and  C5_5 
REMARK    3  A    between atoms: C4_4  and  C22_27 
REMARK    4  A    between atoms: C6_6  and  C7_7 
REMARK    5  A    between atoms: C12_12  and  O1_13 
REMARK    6  A    between atoms: O1_13  and  C13_14 
REMARK    7  A    between atoms: C22_27  and  C23_28 
REMARK    8  A    between atoms: C23_28  and  O7_30 
ROOT
HETATM    1  C7  UNL     1      15.350  56.625  37.093  1.00  0.00     0.054 C 
HETATM    2  C8  UNL     1      15.562  56.682  35.573  1.00  0.00    -0.030 C 
HETATM    3  C9  UNL     1      15.168  55.321  34.992  1.00  0.00     0.016 C 
HETATM    4  C10 UNL     1      14.641  57.698  34.953  1.00  0.00     0.013 C 
HETATM    5  C11 UNL     1      15.154  58.438  33.764  1.00  0.00     0.033 C 
HETATM    6  C12 UNL     1      16.283  57.795  33.020  1.00  0.00     0.132 C 
HETATM    7  C15 UNL     1      17.229  57.030  33.837  1.00  0.00     0.038 C 
HETATM    8  C16 UNL     1      16.984  56.985  35.307  1.00  0.00    -0.001 C 
HETATM    9  C17 UNL     1      17.959  55.972  35.858  1.00  0.00     0.041 C 
HETATM   10  C18 UNL     1      17.677  55.556  37.237  1.00  0.00     0.170 C 
HETATM   11  O3  UNL     1      17.784  54.109  37.265  1.00  0.00    -0.290 OA
HETATM   12  C19 UNL     1      16.897  53.667  38.237  1.00  0.00     0.407 C 
HETATM   13  O4  UNL     1      17.067  52.698  39.004  1.00  0.00    -0.229 OA
HETATM   14  O5  UNL     1      15.835  54.514  38.145  1.00  0.00    -0.284 OA
HETATM   15  C20 UNL     1      16.358  55.803  37.779  1.00  0.00     0.103 C 
HETATM   16  C21 UNL     1      16.578  56.439  39.195  1.00  0.00     0.050 C 
ENDROOT
BRANCH   1  17
HETATM   17  C6  UNL     1      15.364  57.998  37.615  1.00  0.00    -0.018 C 
HETATM   18  C5  UNL     1      14.177  58.587  38.047  1.00  0.00     0.004 C 
BRANCH  18  19
HETATM   19  C4  UNL     1      14.140  59.842  38.525  1.00  0.00    -0.044 C 
BRANCH  19  20
HETATM   20  C2  UNL     1      12.668  60.197  37.587  1.00  0.00    -0.065 C 
HETATM   21  C1  UNL     1      11.597  60.153  38.187  1.00  0.00     0.019 C 
HETATM   22  C3  UNL     1      12.889  60.553  36.214  1.00  0.00     0.048 C 
ENDBRANCH  19  20
BRANCH  19  23
HETATM   23  C22 UNL     1      14.098  61.056  38.981  1.00  0.00     0.150 C 
BRANCH  23  24
HETATM   24  C23 UNL     1      15.351  61.339  39.858  1.00  0.00     0.262 C 
HETATM   25  O6  UNL     1      15.609  62.471  40.256  1.00  0.00    -0.265 OA
BRANCH  24  26
HETATM   26  O7  UNL     1      16.166  60.301  40.194  1.00  0.00    -0.326 OA
HETATM   27  C24 UNL     1      17.567  60.435  39.903  1.00  0.00     0.213 C 
ENDBRANCH  24  26
ENDBRANCH  23  24
ENDBRANCH  19  23
ENDBRANCH  18  19
ENDBRANCH   1  17
BRANCH   6  28
HETATM   28  O1  UNL     1      15.771  56.966  31.987  1.00  0.00    -0.316 OA
BRANCH  28  29
HETATM   29  C13 UNL     1      14.891  57.392  31.037  1.00  0.00     0.255 C 
HETATM   30  C14 UNL     1      15.346  58.454  30.103  1.00  0.00     0.126 C 
HETATM   31  O2  UNL     1      13.752  56.921  30.947  1.00  0.00    -0.266 OA
ENDBRANCH  28  29
ENDBRANCH   6  28
TORSDOF 8
ENDMDL
MODEL 4
REMARK VINA RESULT: -7.740110546      5.885      9.320
REMARK  8 active torsions:
REMARK  status: ('A' for Active; 'I' for Inactive)
REMARK    1  A    between atoms: C2_2  and  C4_4 
REMARK    2  A    between atoms: C4_4  and  C5_5 
REMARK    3  A    between atoms: C4_4  and  C22_27 
REMARK    4  A    between atoms: C6_6  and  C7_7 
REMARK    5  A    between atoms: C12_12  and  O1_13 
REMARK    6  A    between atoms: O1_13  and  C13_14 
REMARK    7  A    between atoms: C22_27  and  C23_28 
REMARK    8  A    between atoms: C23_28  and  O7_30 
ROOT
HETATM    1  C7  UNL     1      15.663  56.488  37.039  1.00  0.00     0.054 C 
HETATM    2  C8  UNL     1      15.655  56.591  35.507  1.00  0.00    -0.030 C 
HETATM    3  C9  UNL     1      14.915  55.368  34.958  1.00  0.00     0.016 C 
HETATM    4  C10 UNL     1      14.875  57.800  35.067  1.00  0.00     0.013 C 
HETATM    5  C11 UNL     1      15.344  58.494  33.833  1.00  0.00     0.033 C 
HETATM    6  C12 UNL     1      16.198  57.689  32.904  1.00  0.00     0.132 C 
HETATM    7  C15 UNL     1      17.082  56.709  33.542  1.00  0.00     0.038 C 
HETATM    8  C16 UNL     1      17.053  56.627  35.030  1.00  0.00    -0.001 C 
HETATM    9  C17 UNL     1      17.877  55.414  35.394  1.00  0.00     0.041 C 
HETATM   10  C18 UNL     1      17.724  54.982  36.787  1.00  0.00     0.170 C 
HETATM   11  O3  UNL     1      17.542  53.543  36.760  1.00  0.00    -0.290 OA
HETATM   12  C19 UNL     1      16.737  53.225  37.846  1.00  0.00     0.407 C 
HETATM   13  O4  UNL     1      16.822  52.199  38.550  1.00  0.00    -0.229 OA
HETATM   14  O5  UNL     1      15.866  54.267  37.944  1.00  0.00    -0.284 OA
HETATM   15  C20 UNL     1      16.577  55.449  37.536  1.00  0.00     0.103 C 
HETATM   16  C21 UNL     1      17.126  55.946  38.917  1.00  0.00     0.050 C 
ENDROOT
BRANCH   1  17
HETATM   17  C6  UNL     1      16.030  57.800  37.590  1.00  0.00    -0.018 C 
HETATM   18  C5  UNL     1      15.308  58.329  38.658  1.00  0.00     0.004 C 
BRANCH  18  19
HETATM   19  C4  UNL     1      15.601  59.527  39.190  1.00  0.00    -0.044 C 
BRANCH  19  20
HETATM   20  C2  UNL     1      13.962  59.669  39.872  1.00  0.00    -0.065 C 
HETATM   21  C1  UNL     1      13.831  59.425  41.069  1.00  0.00     0.019 C 
HETATM   22  C3  UNL     1      12.953  60.108  38.951  1.00  0.00     0.048 C 
ENDBRANCH  19  20
BRANCH  19  23
HETATM   23  C22 UNL     1      15.876  60.686  39.705  1.00  0.00     0.150 C 
BRANCH  23  24
HETATM   24  C23 UNL     1      17.417  60.899  39.745  1.00  0.00     0.262 C 
HETATM   25  O6  UNL     1      18.183  59.968  39.976  1.00  0.00    -0.265 OA
BRANCH  24  26
HETATM   26  O7  UNL     1      17.914  62.144  39.508  1.00  0.00    -0.326 OA
HETATM   27  C24 UNL     1      16.986  63.166  39.106  1.00  0.00     0.213 C 
ENDBRANCH  24  26
ENDBRANCH  23  24
ENDBRANCH  19  23
ENDBRANCH  18  19
ENDBRANCH   1  17
BRANCH   6  28
HETATM   28  O1  UNL     1      15.383  57.036  31.942  1.00  0.00    -0.316 OA
BRANCH  28  29
HETATM   29  C13 UNL     1      14.698  57.687  30.960  1.00  0.00     0.255 C 
HETATM   30  C14 UNL     1      15.478  58.535  30.021  1.00  0.00     0.126 C 
HETATM   31  O2  UNL     1      13.471  57.586  30.845  1.00  0.00    -0.266 OA
ENDBRANCH  28  29
ENDBRANCH   6  28
TORSDOF 8
ENDMDL
MODEL 5
REMARK VINA RESULT: -7.605094473      2.109      7.067
REMARK  8 active torsions:
REMARK  status: ('A' for Active; 'I' for Inactive)
REMARK    1  A    between atoms: C2_2  and  C4_4 
REMARK    2  A    between atoms: C4_4  and  C5_5 
REMARK    3  A    between atoms: C4_4  and  C22_27 
REMARK    4  A    between atoms: C6_6  and  C7_7 
REMARK    5  A    between atoms: C12_12  and  O1_13 
REMARK    6  A    between atoms: O1_13  and  C13_14 
REMARK    7  A    between atoms: C22_27  and  C23_28 
REMARK    8  A    between atoms: C23_28  and  O7_30 
ROOT
HETATM    1  C7  UNL     1      12.446  60.686  38.743  1.00  0.00     0.054 C 
HETATM    2  C8  UNL     1      12.204  62.079  39.344  1.00  0.00    -0.030 C 
HETATM    3  C9  UNL     1      10.745  62.146  39.803  1.00  0.00     0.016 C 
HETATM    4  C10 UNL     1      13.052  62.273  40.572  1.00  0.00     0.013 C 
HETATM    5  C11 UNL     1      13.553  63.653  40.834  1.00  0.00     0.033 C 
HETATM    6  C12 UNL     1      12.805  64.768  40.171  1.00  0.00     0.132 C 
HETATM    7  C15 UNL     1      12.243  64.460  38.853  1.00  0.00     0.038 C 
HETATM    8  C16 UNL     1      12.485  63.093  38.307  1.00  0.00    -0.001 C 
HETATM    9  C17 UNL     1      11.628  62.985  37.068  1.00  0.00     0.041 C 
HETATM   10  C18 UNL     1      11.487  61.618  36.554  1.00  0.00     0.170 C 
HETATM   11  O3  UNL     1      10.079  61.424  36.266  1.00  0.00    -0.290 OA
HETATM   12  C19 UNL     1       9.816  60.076  36.471  1.00  0.00     0.407 C 
HETATM   13  O4  UNL     1       9.024  59.371  35.813  1.00  0.00    -0.229 OA
HETATM   14  O5  UNL     1      10.600  59.729  37.529  1.00  0.00    -0.284 OA
HETATM   15  C20 UNL     1      11.804  60.511  37.432  1.00  0.00     0.103 C 
HETATM   16  C21 UNL     1      12.713  59.540  36.604  1.00  0.00     0.050 C 
ENDROOT
BRANCH   1  17
HETATM   17  C6  UNL     1      13.895  60.471  38.639  1.00  0.00    -0.018 C 
HETATM   18  C5  UNL     1      14.531  59.598  39.520  1.00  0.00     0.004 C 
BRANCH  18  19
HETATM   19  C4  UNL     1      15.855  59.375  39.468  1.00  0.00    -0.044 C 
BRANCH  19  20
HETATM   20  C2  UNL     1      15.591  57.629  39.238  1.00  0.00    -0.065 C 
HETATM   21  C1  UNL     1      15.258  57.257  38.116  1.00  0.00     0.019 C 
HETATM   22  C3  UNL     1      15.846  56.815  40.392  1.00  0.00     0.048 C 
ENDBRANCH  19  20
BRANCH  19  23
HETATM   23  C22 UNL     1      17.132  59.152  39.418  1.00  0.00     0.150 C 
BRANCH  23  24
HETATM   24  C23 UNL     1      17.914  60.471  39.680  1.00  0.00     0.262 C 
HETATM   25  O6  UNL     1      19.141  60.495  39.684  1.00  0.00    -0.265 OA
BRANCH  24  26
HETATM   26  O7  UNL     1      17.213  61.617  39.900  1.00  0.00    -0.326 OA
HETATM   27  C24 UNL     1      17.649  62.804  39.215  1.00  0.00     0.213 C 
ENDBRANCH  24  26
ENDBRANCH  23  24
ENDBRANCH  19  23
ENDBRANCH  18  19
ENDBRANCH   1  17
BRANCH   6  28
HETATM   28  O1  UNL     1      11.774  65.235  41.028  1.00  0.00    -0.316 OA
BRANCH  28  29
HETATM   29  C13 UNL     1      11.663  66.527  41.448  1.00  0.00     0.255 C 
HETATM   30  C14 UNL     1      12.605  66.993  42.499  1.00  0.00     0.126 C 
HETATM   31  O2  UNL     1      10.814  67.293  40.981  1.00  0.00    -0.266 OA
ENDBRANCH  28  29
ENDBRANCH   6  28
TORSDOF 8
ENDMDL
