MODEL 1
REMARK VINA RESULT: -6.995619006      0.000      0.000
REMARK  5 active torsions:
REMARK  status: ('A' for Active; 'I' for Inactive)
REMARK    1  A    between atoms: C6_6  and  O1_7 
REMARK    2  A    between atoms: C8_9  and  C9_10 
REMARK    3  A    between atoms: C10_11  and  C11_12 
REMARK    4  A    between atoms: C11_12  and  N1_13 
REMARK    5  A    between atoms: N1_13  and  C12_15 
ROOT
HETATM    1  C1  UNL     1      35.567  10.968  51.594  1.00  0.00     0.018 C 
HETATM    2  C2  UNL     1      36.773  10.872  51.676  1.00  0.00    -0.078 C 
HETATM    3  C3  UNL     1      38.202  10.741  51.769  1.00  0.00     0.017 A 
HETATM    4  C4  UNL     1      39.009  11.847  51.914  1.00  0.00     0.023 A 
HETATM    5  C5  UNL     1      40.373  11.717  52.002  1.00  0.00     0.039 A 
HETATM    6  C6  UNL     1      40.904  10.465  51.943  1.00  0.00     0.078 A 
HETATM    7  C8  UNL     1      40.133   9.303  51.797  1.00  0.00    -0.002 A 
HETATM    8  C14 UNL     1      38.766   9.472  51.711  1.00  0.00     0.034 A 
ENDROOT
BRANCH   7   9
HETATM    9  C9  UNL     1      40.771   7.999  51.750  1.00  0.00     0.012 C 
HETATM   10  C10 UNL     1      40.997   7.326  50.650  1.00  0.00    -0.007 C 
BRANCH  10  11
HETATM   11  C11 UNL     1      41.655   5.982  50.618  1.00  0.00     0.148 C 
BRANCH  11  12
HETATM   12  N1  UNL     1      41.819   5.499  49.295  1.00  0.00    -0.374 N 
ATOM     13  H1  UNL     1      41.033   5.592  48.650  1.00  0.00     0.161 HD
BRANCH  12  14
HETATM   14  C12 UNL     1      42.994   4.901  48.816  1.00  0.00     0.125 C 
HETATM   15  N2  UNL     1      43.400   3.630  49.399  1.00  0.00    -0.082 NA
HETATM   16  C13 UNL     1      43.790   5.357  47.879  1.00  0.00     0.144 C 
HETATM   17  N3  UNL     1      43.580   6.569  47.182  1.00  0.00    -0.112 NA
ENDBRANCH  12  14
ENDBRANCH  11  12
ENDBRANCH  10  11
ENDBRANCH   7   9
BRANCH   6  18
HETATM   18  O1  UNL     1      42.277  10.284  52.027  1.00  0.00    -0.355 OA
HETATM   19  C7  UNL     1      43.147  10.435  50.932  1.00  0.00     0.210 C 
ENDBRANCH   6  18
TORSDOF 5
ENDMDL
MODEL 2
REMARK VINA RESULT: -6.859329913      1.015      1.083
REMARK  5 active torsions:
REMARK  status: ('A' for Active; 'I' for Inactive)
REMARK    1  A    between atoms: C6_6  and  O1_7 
REMARK    2  A    between atoms: C8_9  and  C9_10 
REMARK    3  A    between atoms: C10_11  and  C11_12 
REMARK    4  A    between atoms: C11_12  and  N1_13 
REMARK    5  A    between atoms: N1_13  and  C12_15 
ROOT
HETATM    1  C1  UNL     1      35.310  10.986  51.634  1.00  0.00     0.018 C 
HETATM    2  C2  UNL     1      36.520  10.945  51.684  1.00  0.00    -0.078 C 
HETATM    3  C3  UNL     1      37.955  10.879  51.741  1.00  0.00     0.017 A 
HETATM    4  C4  UNL     1      38.718  12.024  51.814  1.00  0.00     0.023 A 
HETATM    5  C5  UNL     1      40.088  11.956  51.868  1.00  0.00     0.039 A 
HETATM    6  C6  UNL     1      40.671  10.726  51.847  1.00  0.00     0.078 A 
HETATM    7  C8  UNL     1      39.947   9.527  51.774  1.00  0.00    -0.002 A 
HETATM    8  C14 UNL     1      38.573   9.634  51.721  1.00  0.00     0.034 A 
ENDROOT
BRANCH   7   9
HETATM    9  C9  UNL     1      40.641   8.251  51.765  1.00  0.00     0.012 C 
HETATM   10  C10 UNL     1      40.802   7.505  50.701  1.00  0.00    -0.007 C 
BRANCH  10  11
HETATM   11  C11 UNL     1      41.519   6.191  50.707  1.00  0.00     0.148 C 
BRANCH  11  12
HETATM   12  N1  UNL     1      42.350   6.030  49.569  1.00  0.00    -0.374 N 
ATOM     13  H1  UNL     1      41.984   5.494  48.782  1.00  0.00     0.161 HD
BRANCH  12  14
HETATM   14  C12 UNL     1      43.643   6.561  49.459  1.00  0.00     0.125 C 
HETATM   15  N2  UNL     1      44.381   6.823  50.686  1.00  0.00    -0.082 NA
HETATM   16  C13 UNL     1      44.287   6.856  48.355  1.00  0.00     0.144 C 
HETATM   17  N3  UNL     1      43.756   6.677  47.056  1.00  0.00    -0.112 NA
ENDBRANCH  12  14
ENDBRANCH  11  12
ENDBRANCH  10  11
ENDBRANCH   7   9
BRANCH   6  18
HETATM   18  O1  UNL     1      42.053  10.607  51.898  1.00  0.00    -0.355 OA
HETATM   19  C7  UNL     1      42.855  10.388  50.764  1.00  0.00     0.210 C 
ENDBRANCH   6  18
TORSDOF 5
ENDMDL
MODEL 3
REMARK VINA RESULT: -6.747779787      4.017      7.198
REMARK  5 active torsions:
REMARK  status: ('A' for Active; 'I' for Inactive)
REMARK    1  A    between atoms: C6_6  and  O1_7 
REMARK    2  A    between atoms: C8_9  and  C9_10 
REMARK    3  A    between atoms: C10_11  and  C11_12 
REMARK    4  A    between atoms: C11_12  and  N1_13 
REMARK    5  A    between atoms: N1_13  and  C12_15 
ROOT
HETATM    1  C1  UNL     1      45.693  11.667  51.994  1.00  0.00     0.018 C 
HETATM    2  C2  UNL     1      44.848  10.857  51.679  1.00  0.00    -0.078 C 
HETATM    3  C3  UNL     1      43.834   9.910  51.302  1.00  0.00     0.017 A 
HETATM    4  C4  UNL     1      44.110   8.563  51.233  1.00  0.00     0.023 A 
HETATM    5  C5  UNL     1      43.139   7.662  50.872  1.00  0.00     0.039 A 
HETATM    6  C6  UNL     1      41.896   8.138  50.585  1.00  0.00     0.078 A 
HETATM    7  C8  UNL     1      41.557   9.497  50.639  1.00  0.00    -0.002 A 
HETATM    8  C14 UNL     1      42.557  10.374  51.005  1.00  0.00     0.034 A 
ENDROOT
BRANCH   7   9
HETATM    9  C9  UNL     1      40.205   9.929  50.327  1.00  0.00     0.012 C 
HETATM   10  C10 UNL     1      39.312  10.265  51.224  1.00  0.00    -0.007 C 
BRANCH  10  11
HETATM   11  C11 UNL     1      37.922  10.708  50.888  1.00  0.00     0.148 C 
BRANCH  11  12
HETATM   12  N1  UNL     1      37.056  10.649  52.010  1.00  0.00    -0.374 N 
ATOM     13  H1  UNL     1      37.464  10.422  52.917  1.00  0.00     0.161 HD
BRANCH  12  14
HETATM   14  C12 UNL     1      35.675  10.882  51.950  1.00  0.00     0.125 C 
HETATM   15  N2  UNL     1      34.812   9.781  51.545  1.00  0.00    -0.082 NA
HETATM   16  C13 UNL     1      35.047  12.000  52.225  1.00  0.00     0.144 C 
HETATM   17  N3  UNL     1      35.692  13.189  52.639  1.00  0.00    -0.112 NA
ENDBRANCH  12  14
ENDBRANCH  11  12
ENDBRANCH  10  11
ENDBRANCH   7   9
BRANCH   6  18
HETATM   18  O1  UNL     1      40.882   7.266  50.215  1.00  0.00    -0.355 OA
HETATM   19  C7  UNL     1      41.018   5.866  50.236  1.00  0.00     0.210 C 
ENDBRANCH   6  18
TORSDOF 5
ENDMDL
MODEL 4
REMARK VINA RESULT: -6.633095115      4.086      7.261
REMARK  5 active torsions:
REMARK  status: ('A' for Active; 'I' for Inactive)
REMARK    1  A    between atoms: C6_6  and  O1_7 
REMARK    2  A    between atoms: C8_9  and  C9_10 
REMARK    3  A    between atoms: C10_11  and  C11_12 
REMARK    4  A    between atoms: C11_12  and  N1_13 
REMARK    5  A    between atoms: N1_13  and  C12_15 
ROOT
HETATM    1  C1  UNL     1      45.736  11.696  51.976  1.00  0.00     0.018 C 
HETATM    2  C2  UNL     1      44.893  10.882  51.668  1.00  0.00    -0.078 C 
HETATM    3  C3  UNL     1      43.881   9.928  51.299  1.00  0.00     0.017 A 
HETATM    4  C4  UNL     1      44.172   8.587  51.195  1.00  0.00     0.023 A 
HETATM    5  C5  UNL     1      43.203   7.681  50.843  1.00  0.00     0.039 A 
HETATM    6  C6  UNL     1      41.947   8.145  50.600  1.00  0.00     0.078 A 
HETATM    7  C8  UNL     1      41.592   9.499  50.690  1.00  0.00    -0.002 A 
HETATM    8  C14 UNL     1      42.591  10.381  51.047  1.00  0.00     0.034 A 
ENDROOT
BRANCH   7   9
HETATM    9  C9  UNL     1      40.226   9.918  50.424  1.00  0.00     0.012 C 
HETATM   10  C10 UNL     1      39.432  10.455  51.316  1.00  0.00    -0.007 C 
BRANCH  10  11
HETATM   11  C11 UNL     1      38.026  10.882  51.028  1.00  0.00     0.148 C 
BRANCH  11  12
HETATM   12  N1  UNL     1      37.275  11.084  52.214  1.00  0.00    -0.374 N 
ATOM     13  H1  UNL     1      37.689  10.790  53.099  1.00  0.00     0.161 HD
BRANCH  12  14
HETATM   14  C12 UNL     1      35.999  11.664  52.247  1.00  0.00     0.125 C 
HETATM   15  N2  UNL     1      35.895  13.066  52.628  1.00  0.00    -0.082 NA
HETATM   16  C13 UNL     1      34.857  11.084  51.966  1.00  0.00     0.144 C 
HETATM   17  N3  UNL     1      34.732   9.731  51.573  1.00  0.00    -0.112 NA
ENDBRANCH  12  14
ENDBRANCH  11  12
ENDBRANCH  10  11
ENDBRANCH   7   9
BRANCH   6  18
HETATM   18  O1  UNL     1      40.935   7.267  50.240  1.00  0.00    -0.355 OA
HETATM   19  C7  UNL     1      41.076   5.868  50.267  1.00  0.00     0.210 C 
ENDBRANCH   6  18
TORSDOF 5
ENDMDL
MODEL 5
REMARK VINA RESULT: -6.619268006      0.437      1.311
REMARK  5 active torsions:
REMARK  status: ('A' for Active; 'I' for Inactive)
REMARK    1  A    between atoms: C6_6  and  O1_7 
REMARK    2  A    between atoms: C8_9  and  C9_10 
REMARK    3  A    between atoms: C10_11  and  C11_12 
REMARK    4  A    between atoms: C11_12  and  N1_13 
REMARK    5  A    between atoms: N1_13  and  C12_15 
ROOT
HETATM    1  C1  UNL     1      35.430  10.986  51.605  1.00  0.00     0.018 C 
HETATM    2  C2  UNL     1      36.639  10.923  51.675  1.00  0.00    -0.078 C 
HETATM    3  C3  UNL     1      38.071  10.831  51.754  1.00  0.00     0.017 A 
HETATM    4  C4  UNL     1      38.853  11.962  51.837  1.00  0.00     0.023 A 
HETATM    5  C5  UNL     1      40.221  11.869  51.912  1.00  0.00     0.039 A 
HETATM    6  C6  UNL     1      40.782  10.629  51.904  1.00  0.00     0.078 A 
HETATM    7  C8  UNL     1      40.038   9.443  51.821  1.00  0.00    -0.002 A 
HETATM    8  C14 UNL     1      38.666   9.574  51.746  1.00  0.00     0.034 A 
ENDROOT
BRANCH   7   9
HETATM    9  C9  UNL     1      40.708   8.154  51.826  1.00  0.00     0.012 C 
HETATM   10  C10 UNL     1      40.868   7.401  50.766  1.00  0.00    -0.007 C 
BRANCH  10  11
HETATM   11  C11 UNL     1      41.560   6.074  50.786  1.00  0.00     0.148 C 
BRANCH  11  12
HETATM   12  N1  UNL     1      41.687   5.518  49.488  1.00  0.00    -0.374 N 
ATOM     13  H1  UNL     1      40.833   5.256  48.994  1.00  0.00     0.161 HD
BRANCH  12  14
HETATM   14  C12 UNL     1      42.912   5.305  48.840  1.00  0.00     0.125 C 
HETATM   15  N2  UNL     1      43.413   6.354  47.963  1.00  0.00    -0.082 NA
HETATM   16  C13 UNL     1      43.685   4.250  48.932  1.00  0.00     0.144 C 
HETATM   17  N3  UNL     1      43.389   3.119  49.730  1.00  0.00    -0.112 NA
ENDBRANCH  12  14
ENDBRANCH  11  12
ENDBRANCH  10  11
ENDBRANCH   7   9
BRANCH   6  18
HETATM   18  O1  UNL     1      42.160  10.485  51.977  1.00  0.00    -0.355 OA
HETATM   19  C7  UNL     1      42.996  10.436  50.846  1.00  0.00     0.210 C 
ENDBRANCH   6  18
TORSDOF 5
ENDMDL
