MODEL 1
REMARK VINA RESULT: -8.442398005      0.000      0.000
REMARK  8 active torsions:
REMARK  status: ('A' for Active; 'I' for Inactive)
REMARK    1  A    between atoms: C2_3  and  S1_4 
REMARK    2  A    between atoms: S1_4  and  C3_6 
REMARK    3  A    between atoms: C3_6  and  C4_7 
REMARK    4  A    between atoms: C4_7  and  C5_9 
REMARK    5  A    between atoms: C7_11  and  N2_12 
REMARK       I    between atoms: N2_12  and  C8_14 
REMARK    6  A    between atoms: C8_14  and  C9_16 
REMARK    7  A    between atoms: C9_16  and  C10_17 
REMARK    8  A    between atoms: N4_26  and  C16_27 
ROOT
HETATM    1  N1  UNL     1       4.646  19.381  57.423  1.00  0.00    -0.196 NA
HETATM    2  C1  UNL     1       4.752  20.179  56.576  1.00  0.00     0.071 C 
HETATM    3  C2  UNL     1       4.906  21.178  55.506  1.00  0.00     0.232 C 
ENDROOT
BRANCH   3   4
HETATM    4  S1  UNL     1       6.560  21.603  55.335  1.00  0.00     0.035 S 
HETATM    5  O1  UNL     1       7.307  22.380  56.531  1.00  0.00    -0.257 OA
BRANCH   4   6
HETATM    6  C3  UNL     1       7.233  21.645  53.753  1.00  0.00     0.195 C 
BRANCH   6   7
HETATM    7  C4  UNL     1       6.819  20.552  52.858  1.00  0.00     0.189 C 
HETATM    8  O2  UNL     1       7.320  19.421  52.972  1.00  0.00    -0.290 OA
BRANCH   7   9
HETATM    9  C5  UNL     1       5.820  20.794  51.841  1.00  0.00     0.107 A 
HETATM   10  C6  UNL     1       4.427  20.718  51.971  1.00  0.00     0.085 A 
HETATM   11  C7  UNL     1       3.866  21.033  50.739  1.00  0.00     0.125 A 
HETATM   12  N3  UNL     1       4.903  21.284  49.921  1.00  0.00    -0.278 N 
HETATM   13  N4  UNL     1       6.043  21.146  50.559  1.00  0.00    -0.251 N 
ATOM     14  H3  UNL     1       4.816  21.546  48.939  1.00  0.00     0.189 HD
BRANCH  11  15
HETATM   15  N2  UNL     1       2.613  21.049  50.542  1.00  0.00    -0.312 N 
HETATM   16  C8  UNL     1       1.679  20.125  51.040  1.00  0.00     0.227 C 
HETATM   17  O3  UNL     1       0.913  20.475  51.965  1.00  0.00    -0.273 OA
ATOM     18  H2  UNL     1       2.247  21.807  49.966  1.00  0.00     0.170 HD
BRANCH  16  19
HETATM   19  C9  UNL     1       1.600  18.774  50.486  1.00  0.00     0.141 C 
BRANCH  19  20
HETATM   20  C10 UNL     1       1.641  18.720  49.020  1.00  0.00    -0.048 A 
HETATM   21  C11 UNL     1       0.483  18.908  48.301  1.00  0.00     0.007 A 
HETATM   22  C12 UNL     1       0.485  18.862  46.909  1.00  0.00     0.002 A 
HETATM   23  C13 UNL     1       1.679  18.622  46.242  1.00  0.00     0.024 A 
HETATM   24  C14 UNL     1       2.851  18.430  46.955  1.00  0.00     0.034 A 
HETATM   25 CL1  UNL     1       4.361  18.126  46.121  1.00  0.00    -0.084 Cl
HETATM   26  C15 UNL     1       2.824  18.481  48.352  1.00  0.00     0.031 A 
ENDBRANCH  19  20
ENDBRANCH  16  19
ENDBRANCH  11  15
BRANCH  13  27
HETATM   27  C16 UNL     1       7.333  21.345  49.959  1.00  0.00     0.057 A 
HETATM   28  C17 UNL     1       8.059  20.282  49.482  1.00  0.00     0.031 A 
HETATM   29  C18 UNL     1       9.290  20.451  48.907  1.00  0.00     0.002 A 
HETATM   30  C19 UNL     1       9.852  21.721  48.786  1.00  0.00     0.000 A 
HETATM   31  C20 UNL     1       9.102  22.770  49.274  1.00  0.00     0.002 A 
HETATM   32  C21 UNL     1       7.862  22.604  49.854  1.00  0.00     0.031 A 
ENDBRANCH  13  27
ENDBRANCH   7   9
ENDBRANCH   6   7
ENDBRANCH   4   6
ENDBRANCH   3   4
TORSDOF 8
ENDMDL
MODEL 2
REMARK VINA RESULT: -8.254657383      3.072      5.713
REMARK  8 active torsions:
REMARK  status: ('A' for Active; 'I' for Inactive)
REMARK    1  A    between atoms: C2_3  and  S1_4 
REMARK    2  A    between atoms: S1_4  and  C3_6 
REMARK    3  A    between atoms: C3_6  and  C4_7 
REMARK    4  A    between atoms: C4_7  and  C5_9 
REMARK    5  A    between atoms: C7_11  and  N2_12 
REMARK       I    between atoms: N2_12  and  C8_14 
REMARK    6  A    between atoms: C8_14  and  C9_16 
REMARK    7  A    between atoms: C9_16  and  C10_17 
REMARK    8  A    between atoms: N4_26  and  C16_27 
ROOT
HETATM    1  N1  UNL     1      10.881  23.394  46.631  1.00  0.00    -0.196 NA
HETATM    2  C1  UNL     1      10.673  22.485  47.336  1.00  0.00     0.071 C 
HETATM    3  C2  UNL     1      10.393  21.348  48.227  1.00  0.00     0.232 C 
ENDROOT
BRANCH   3   4
HETATM    4  S1  UNL     1       9.109  21.745  49.295  1.00  0.00     0.035 S 
HETATM    5  O1  UNL     1       8.540  23.251  49.327  1.00  0.00    -0.257 OA
BRANCH   4   6
HETATM    6  C3  UNL     1       8.802  20.700  50.627  1.00  0.00     0.195 C 
BRANCH   6   7
HETATM    7  C4  UNL     1       7.473  20.838  51.247  1.00  0.00     0.189 C 
HETATM    8  O2  UNL     1       7.260  21.729  52.085  1.00  0.00    -0.290 OA
BRANCH   7   9
HETATM    9  C5  UNL     1       6.410  19.932  50.876  1.00  0.00     0.107 A 
HETATM   10  C6  UNL     1       6.154  19.379  49.614  1.00  0.00     0.085 A 
HETATM   11  C7  UNL     1       5.033  18.565  49.725  1.00  0.00     0.125 A 
HETATM   12  N3  UNL     1       4.651  18.645  51.011  1.00  0.00    -0.278 N 
HETATM   13  N4  UNL     1       5.450  19.440  51.686  1.00  0.00    -0.251 N 
ATOM     14  H3  UNL     1       3.850  18.154  51.409  1.00  0.00     0.189 HD
BRANCH  11  15
HETATM   15  N2  UNL     1       4.554  17.924  48.740  1.00  0.00    -0.312 N 
HETATM   16  C8  UNL     1       3.923  18.475  47.613  1.00  0.00     0.227 C 
HETATM   17  O3  UNL     1       4.530  18.479  46.519  1.00  0.00    -0.273 OA
ATOM     18  H2  UNL     1       4.636  16.907  48.770  1.00  0.00     0.170 HD
BRANCH  16  19
HETATM   19  C9  UNL     1       2.576  19.035  47.713  1.00  0.00     0.141 C 
BRANCH  19  20
HETATM   20  C10 UNL     1       1.775  18.904  46.490  1.00  0.00    -0.048 A 
HETATM   21  C11 UNL     1       1.769  19.927  45.570  1.00  0.00     0.007 A 
HETATM   22  C12 UNL     1       1.020  19.838  44.399  1.00  0.00     0.002 A 
HETATM   23  C13 UNL     1       0.270  18.693  44.162  1.00  0.00     0.024 A 
HETATM   24  C14 UNL     1       0.268  17.656  45.081  1.00  0.00     0.034 A 
HETATM   25 CL1  UNL     1      -0.676  16.210  44.789  1.00  0.00    -0.084 Cl
HETATM   26  C15 UNL     1       1.028  17.770  46.249  1.00  0.00     0.031 A 
ENDBRANCH  19  20
ENDBRANCH  16  19
ENDBRANCH  11  15
BRANCH  13  27
HETATM   27  C16 UNL     1       5.306  19.732  53.084  1.00  0.00     0.057 A 
HETATM   28  C17 UNL     1       4.454  20.718  53.513  1.00  0.00     0.031 A 
HETATM   29  C18 UNL     1       4.302  21.011  54.842  1.00  0.00     0.002 A 
HETATM   30  C19 UNL     1       5.017  20.310  55.813  1.00  0.00     0.000 A 
HETATM   31  C20 UNL     1       5.867  19.326  55.354  1.00  0.00     0.002 A 
HETATM   32  C21 UNL     1       6.022  19.028  54.016  1.00  0.00     0.031 A 
ENDBRANCH  13  27
ENDBRANCH   7   9
ENDBRANCH   6   7
ENDBRANCH   4   6
ENDBRANCH   3   4
TORSDOF 8
ENDMDL
MODEL 3
REMARK VINA RESULT: -8.236038787      2.397      5.264
REMARK  8 active torsions:
REMARK  status: ('A' for Active; 'I' for Inactive)
REMARK    1  A    between atoms: C2_3  and  S1_4 
REMARK    2  A    between atoms: S1_4  and  C3_6 
REMARK    3  A    between atoms: C3_6  and  C4_7 
REMARK    4  A    between atoms: C4_7  and  C5_9 
REMARK    5  A    between atoms: C7_11  and  N2_12 
REMARK       I    between atoms: N2_12  and  C8_14 
REMARK    6  A    between atoms: C8_14  and  C9_16 
REMARK    7  A    between atoms: C9_16  and  C10_17 
REMARK    8  A    between atoms: N4_26  and  C16_27 
ROOT
HETATM    1  N1  UNL     1      10.741  22.764  46.859  1.00  0.00    -0.196 NA
HETATM    2  C1  UNL     1      10.301  22.925  47.929  1.00  0.00     0.071 C 
HETATM    3  C2  UNL     1       9.748  23.107  49.281  1.00  0.00     0.232 C 
ENDROOT
BRANCH   3   4
HETATM    4  S1  UNL     1       8.999  21.656  49.807  1.00  0.00     0.035 S 
HETATM    5  O1  UNL     1       8.597  20.533  48.725  1.00  0.00    -0.257 OA
BRANCH   4   6
HETATM    6  C3  UNL     1       8.255  21.636  51.358  1.00  0.00     0.195 C 
BRANCH   6   7
HETATM    7  C4  UNL     1       7.484  20.422  51.675  1.00  0.00     0.189 C 
HETATM    8  O2  UNL     1       8.062  19.390  52.052  1.00  0.00    -0.290 OA
BRANCH   7   9
HETATM    9  C5  UNL     1       6.044  20.433  51.550  1.00  0.00     0.107 A 
HETATM   10  C6  UNL     1       5.283  20.285  50.382  1.00  0.00     0.085 A 
HETATM   11  C7  UNL     1       3.941  20.358  50.735  1.00  0.00     0.125 A 
HETATM   12  N3  UNL     1       3.925  20.543  52.066  1.00  0.00    -0.278 N 
HETATM   13  N4  UNL     1       5.148  20.587  52.545  1.00  0.00    -0.251 N 
ATOM     14  H3  UNL     1       3.079  20.637  52.628  1.00  0.00     0.189 HD
BRANCH  11  15
HETATM   15  N2  UNL     1       3.004  20.258  49.886  1.00  0.00    -0.312 N 
HETATM   16  C8  UNL     1       2.164  19.147  49.697  1.00  0.00     0.227 C 
HETATM   17  O3  UNL     1       0.975  19.214  50.078  1.00  0.00    -0.273 OA
ATOM     18  H2  UNL     1       2.844  21.063  49.280  1.00  0.00     0.170 HD
BRANCH  16  19
HETATM   19  C9  UNL     1       2.670  17.931  49.062  1.00  0.00     0.141 C 
BRANCH  19  20
HETATM   20  C10 UNL     1       2.662  17.967  47.595  1.00  0.00    -0.048 A 
HETATM   21  C11 UNL     1       3.342  17.002  46.888  1.00  0.00     0.007 A 
HETATM   22  C12 UNL     1       3.357  17.007  45.496  1.00  0.00     0.002 A 
HETATM   23  C13 UNL     1       2.671  18.004  44.815  1.00  0.00     0.024 A 
HETATM   24  C14 UNL     1       1.982  18.981  45.516  1.00  0.00     0.034 A 
HETATM   25 CL1  UNL     1       1.115  20.243  44.665  1.00  0.00    -0.084 Cl
HETATM   26  C15 UNL     1       1.982  18.955  46.914  1.00  0.00     0.031 A 
ENDBRANCH  19  20
ENDBRANCH  16  19
ENDBRANCH  11  15
BRANCH  13  27
HETATM   27  C16 UNL     1       5.465  20.775  53.933  1.00  0.00     0.057 A 
HETATM   28  C17 UNL     1       5.768  22.020  54.423  1.00  0.00     0.031 A 
HETATM   29  C18 UNL     1       6.073  22.220  55.743  1.00  0.00     0.002 A 
HETATM   30  C19 UNL     1       6.085  21.153  56.641  1.00  0.00     0.000 A 
HETATM   31  C20 UNL     1       5.777  19.914  56.122  1.00  0.00     0.002 A 
HETATM   32  C21 UNL     1       5.470  19.709  54.793  1.00  0.00     0.031 A 
ENDBRANCH  13  27
ENDBRANCH   7   9
ENDBRANCH   6   7
ENDBRANCH   4   6
ENDBRANCH   3   4
TORSDOF 8
ENDMDL
MODEL 4
REMARK VINA RESULT: -8.230969194      2.789      4.780
REMARK  8 active torsions:
REMARK  status: ('A' for Active; 'I' for Inactive)
REMARK    1  A    between atoms: C2_3  and  S1_4 
REMARK    2  A    between atoms: S1_4  and  C3_6 
REMARK    3  A    between atoms: C3_6  and  C4_7 
REMARK    4  A    between atoms: C4_7  and  C5_9 
REMARK    5  A    between atoms: C7_11  and  N2_12 
REMARK       I    between atoms: N2_12  and  C8_14 
REMARK    6  A    between atoms: C8_14  and  C9_16 
REMARK    7  A    between atoms: C9_16  and  C10_17 
REMARK    8  A    between atoms: N4_26  and  C16_27 
ROOT
HETATM    1  N1  UNL     1      11.047  22.022  46.805  1.00  0.00    -0.196 NA
HETATM    2  C1  UNL     1      10.494  22.442  47.745  1.00  0.00     0.071 C 
HETATM    3  C2  UNL     1       9.798  22.953  48.937  1.00  0.00     0.232 C 
ENDROOT
BRANCH   3   4
HETATM    4  S1  UNL     1       9.082  21.653  49.798  1.00  0.00     0.035 S 
HETATM    5  O1  UNL     1       9.939  20.319  50.077  1.00  0.00    -0.257 OA
BRANCH   4   6
HETATM    6  C3  UNL     1       7.366  21.589  49.904  1.00  0.00     0.195 C 
BRANCH   6   7
HETATM    7  C4  UNL     1       6.828  21.117  51.190  1.00  0.00     0.189 C 
HETATM    8  O2  UNL     1       7.264  21.572  52.260  1.00  0.00    -0.290 OA
BRANCH   7   9
HETATM    9  C5  UNL     1       5.783  20.118  51.209  1.00  0.00     0.107 A 
HETATM   10  C6  UNL     1       4.399  20.325  51.296  1.00  0.00     0.085 A 
HETATM   11  C7  UNL     1       3.781  19.080  51.278  1.00  0.00     0.125 A 
HETATM   12  N3  UNL     1       4.775  18.181  51.184  1.00  0.00    -0.278 N 
HETATM   13  N4  UNL     1       5.943  18.781  51.143  1.00  0.00    -0.251 N 
ATOM     14  H3  UNL     1       4.641  17.170  51.149  1.00  0.00     0.189 HD
BRANCH  11  15
HETATM   15  N2  UNL     1       2.521  18.943  51.344  1.00  0.00    -0.312 N 
HETATM   16  C8  UNL     1       1.676  18.491  50.317  1.00  0.00     0.227 C 
HETATM   17  O3  UNL     1       1.184  17.343  50.397  1.00  0.00    -0.273 OA
ATOM     18  H2  UNL     1       2.078  19.183  52.231  1.00  0.00     0.170 HD
BRANCH  16  19
HETATM   19  C9  UNL     1       1.373  19.347  49.171  1.00  0.00     0.141 C 
BRANCH  19  20
HETATM   20  C10 UNL     1       2.008  18.924  47.917  1.00  0.00    -0.048 A 
HETATM   21  C11 UNL     1       3.167  18.183  47.958  1.00  0.00     0.007 A 
HETATM   22  C12 UNL     1       3.796  17.767  46.788  1.00  0.00     0.002 A 
HETATM   23  C13 UNL     1       3.239  18.107  45.562  1.00  0.00     0.024 A 
HETATM   24  C14 UNL     1       2.072  18.852  45.508  1.00  0.00     0.034 A 
HETATM   25 CL1  UNL     1       1.364  19.286  43.966  1.00  0.00    -0.084 Cl
HETATM   26  C15 UNL     1       1.459  19.259  46.696  1.00  0.00     0.031 A 
ENDBRANCH  19  20
ENDBRANCH  16  19
ENDBRANCH  11  15
BRANCH  13  27
HETATM   27  C16 UNL     1       7.200  18.094  51.044  1.00  0.00     0.057 A 
HETATM   28  C17 UNL     1       7.969  17.867  52.158  1.00  0.00     0.031 A 
HETATM   29  C18 UNL     1       9.170  17.214  52.084  1.00  0.00     0.002 A 
HETATM   30  C19 UNL     1       9.657  16.754  50.861  1.00  0.00     0.000 A 
HETATM   31  C20 UNL     1       8.865  16.996  49.758  1.00  0.00     0.002 A 
HETATM   32  C21 UNL     1       7.655  17.653  49.829  1.00  0.00     0.031 A 
ENDBRANCH  13  27
ENDBRANCH   7   9
ENDBRANCH   6   7
ENDBRANCH   4   6
ENDBRANCH   3   4
TORSDOF 8
ENDMDL
MODEL 5
REMARK VINA RESULT: -8.209620262      2.684      6.557
REMARK  8 active torsions:
REMARK  status: ('A' for Active; 'I' for Inactive)
REMARK    1  A    between atoms: C2_3  and  S1_4 
REMARK    2  A    between atoms: S1_4  and  C3_6 
REMARK    3  A    between atoms: C3_6  and  C4_7 
REMARK    4  A    between atoms: C4_7  and  C5_9 
REMARK    5  A    between atoms: C7_11  and  N2_12 
REMARK       I    between atoms: N2_12  and  C8_14 
REMARK    6  A    between atoms: C8_14  and  C9_16 
REMARK    7  A    between atoms: C9_16  and  C10_17 
REMARK    8  A    between atoms: N4_26  and  C16_27 
ROOT
HETATM    1  N1  UNL     1       7.475  22.115  53.706  1.00  0.00    -0.196 NA
HETATM    2  C1  UNL     1       6.712  21.317  54.089  1.00  0.00     0.071 C 
HETATM    3  C2  UNL     1       5.738  20.318  54.558  1.00  0.00     0.232 C 
ENDROOT
BRANCH   3   4
HETATM    4  S1  UNL     1       4.154  20.781  54.088  1.00  0.00     0.035 S 
HETATM    5  O1  UNL     1       3.126  21.331  55.199  1.00  0.00    -0.257 OA
BRANCH   4   6
HETATM    6  C3  UNL     1       3.541  20.196  52.591  1.00  0.00     0.195 C 
BRANCH   6   7
HETATM    7  C4  UNL     1       4.362  20.503  51.408  1.00  0.00     0.189 C 
HETATM    8  O2  UNL     1       4.351  21.641  50.911  1.00  0.00    -0.290 OA
BRANCH   7   9
HETATM    9  C5  UNL     1       5.190  19.473  50.821  1.00  0.00     0.107 A 
HETATM   10  C6  UNL     1       6.512  19.143  51.149  1.00  0.00     0.085 A 
HETATM   11  C7  UNL     1       6.904  18.090  50.331  1.00  0.00     0.125 A 
HETATM   12  N3  UNL     1       5.842  17.819  49.553  1.00  0.00    -0.278 N 
HETATM   13  N4  UNL     1       4.841  18.622  49.835  1.00  0.00    -0.251 N 
ATOM     14  H3  UNL     1       5.816  17.089  48.841  1.00  0.00     0.189 HD
BRANCH  11  15
HETATM   15  N2  UNL     1       8.059  17.569  50.394  1.00  0.00    -0.312 N 
HETATM   16  C8  UNL     1       9.285  18.255  50.381  1.00  0.00     0.227 C 
HETATM   17  O3  UNL     1       9.944  18.339  51.441  1.00  0.00    -0.273 OA
ATOM     18  H2  UNL     1       8.102  16.552  50.461  1.00  0.00     0.170 HD
BRANCH  16  19
HETATM   19  C9  UNL     1       9.787  18.859  49.148  1.00  0.00     0.141 C 
BRANCH  19  20
HETATM   20  C10 UNL     1       9.724  20.325  49.126  1.00  0.00    -0.048 A 
HETATM   21  C11 UNL     1       9.109  20.995  50.159  1.00  0.00     0.007 A 
HETATM   22  C12 UNL     1       9.030  22.385  50.169  1.00  0.00     0.002 A 
HETATM   23  C13 UNL     1       9.585  23.103  49.117  1.00  0.00     0.024 A 
HETATM   24  C14 UNL     1      10.207  22.440  48.072  1.00  0.00     0.034 A 
HETATM   25 CL1  UNL     1      10.908  23.337  46.742  1.00  0.00    -0.084 Cl
HETATM   26  C15 UNL     1      10.274  21.044  48.084  1.00  0.00     0.031 A 
ENDBRANCH  19  20
ENDBRANCH  16  19
ENDBRANCH  11  15
BRANCH  13  27
HETATM   27  C16 UNL     1       3.565  18.584  49.176  1.00  0.00     0.057 A 
HETATM   28  C17 UNL     1       3.396  19.150  47.937  1.00  0.00     0.031 A 
HETATM   29  C18 UNL     1       2.188  19.124  47.293  1.00  0.00     0.002 A 
HETATM   30  C19 UNL     1       1.079  18.516  47.880  1.00  0.00     0.000 A 
HETATM   31  C20 UNL     1       1.277  17.957  49.125  1.00  0.00     0.002 A 
HETATM   32  C21 UNL     1       2.492  17.981  49.777  1.00  0.00     0.031 A 
ENDBRANCH  13  27
ENDBRANCH   7   9
ENDBRANCH   6   7
ENDBRANCH   4   6
ENDBRANCH   3   4
TORSDOF 8
ENDMDL
