MODEL 1
REMARK VINA RESULT: -4.628099190      0.000      0.000
REMARK  3 active torsions:
REMARK  status: ('A' for Active; 'I' for Inactive)
REMARK    1  A    between atoms: C2_2  and  N1_3 
REMARK    2  A    between atoms: C2_2  and  C3_7 
REMARK    3  A    between atoms: C3_7  and  C5_9 
ROOT
HETATM    1  C5  UNL     1       1.730  18.818 -20.735  1.00  0.00     0.052 C 
HETATM    2  C6  UNL     1       2.565  18.199 -21.826  1.00  0.00     0.041 C 
HETATM    3  C7  UNL     1       1.942  18.090 -19.436  1.00  0.00     0.199 C 
HETATM    4  O1  UNL     1       1.843  16.726 -19.719  1.00  0.00    -0.384 OA
HETATM    5  C8  UNL     1       0.511  16.458 -19.924  1.00  0.00     0.211 C 
HETATM    6  C9  UNL     1      -0.131  17.297 -20.974  1.00  0.00     0.082 C 
HETATM    7  N2  UNL     1       0.331  18.622 -21.093  1.00  0.00    -0.389 N 
ATOM      8  H2  UNL     1      -0.267  19.386 -21.407  1.00  0.00     0.159 HD
ENDROOT
BRANCH   1   9
HETATM    9  C3  UNL     1       1.921  20.297 -20.626  1.00  0.00     0.041 C 
HETATM   10  C4  UNL     1       2.311  20.843 -21.983  1.00  0.00     0.015 C 
BRANCH   9  11
HETATM   11  C2  UNL     1       2.852  20.736 -19.549  1.00  0.00     0.185 C 
HETATM   12  C1  UNL     1       2.008  21.153 -18.347  1.00  0.00     0.040 C 
BRANCH  11  13
HETATM   13  N1  UNL     1       3.675  21.856 -19.867  1.00  0.00    -0.075 N 
ATOM     14  H13 UNL     1       3.154  22.727 -19.967  1.00  0.00     0.274 HD
ATOM     15  H12 UNL     1       4.271  22.153 -19.093  1.00  0.00     0.274 HD
ATOM     16  H11 UNL     1       4.198  21.598 -20.703  1.00  0.00     0.274 HD
ENDBRANCH  11  13
ENDBRANCH   9  11
ENDBRANCH   1   9
TORSDOF 3
ENDMDL
MODEL 2
REMARK VINA RESULT: -4.482292656      1.178      1.792
REMARK  3 active torsions:
REMARK  status: ('A' for Active; 'I' for Inactive)
REMARK    1  A    between atoms: C2_2  and  N1_3 
REMARK    2  A    between atoms: C2_2  and  C3_7 
REMARK    3  A    between atoms: C3_7  and  C5_9 
ROOT
HETATM    1  C5  UNL     1       2.088  18.437 -20.608  1.00  0.00     0.052 C 
HETATM    2  C6  UNL     1       2.781  17.495 -21.559  1.00  0.00     0.041 C 
HETATM    3  C7  UNL     1       1.829  17.755 -19.292  1.00  0.00     0.199 C 
HETATM    4  O1  UNL     1       1.274  16.508 -19.589  1.00  0.00    -0.384 OA
HETATM    5  C8  UNL     1      -0.019  16.734 -19.996  1.00  0.00     0.211 C 
HETATM    6  C9  UNL     1      -0.149  17.690 -21.131  1.00  0.00     0.082 C 
HETATM    7  N2  UNL     1       0.783  18.745 -21.177  1.00  0.00    -0.389 N 
ATOM      8  H2  UNL     1       0.560  19.657 -21.578  1.00  0.00     0.159 HD
ENDROOT
BRANCH   1   9
HETATM    9  C3  UNL     1       2.795  19.747 -20.469  1.00  0.00     0.041 C 
HETATM   10  C4  UNL     1       2.165  20.526 -19.335  1.00  0.00     0.015 C 
BRANCH   9  11
HETATM   11  C2  UNL     1       2.893  20.548 -21.722  1.00  0.00     0.185 C 
HETATM   12  C1  UNL     1       4.068  21.509 -21.567  1.00  0.00     0.040 C 
BRANCH  11  13
HETATM   13  N1  UNL     1       1.756  21.352 -22.028  1.00  0.00    -0.075 N 
ATOM     14  H13 UNL     1       1.683  22.188 -21.448  1.00  0.00     0.274 HD
ATOM     15  H12 UNL     1       1.828  21.829 -22.927  1.00  0.00     0.274 HD
ATOM     16  H11 UNL     1       0.944  20.739 -21.958  1.00  0.00     0.274 HD
ENDBRANCH  11  13
ENDBRANCH   9  11
ENDBRANCH   1   9
TORSDOF 3
ENDMDL
MODEL 3
REMARK VINA RESULT: -4.097166695      2.084      4.127
REMARK  3 active torsions:
REMARK  status: ('A' for Active; 'I' for Inactive)
REMARK    1  A    between atoms: C2_2  and  N1_3 
REMARK    2  A    between atoms: C2_2  and  C3_7 
REMARK    3  A    between atoms: C3_7  and  C5_9 
ROOT
HETATM    1  C5  UNL     1       1.467  19.665 -20.980  1.00  0.00     0.052 C 
HETATM    2  C6  UNL     1       0.298  20.538 -21.358  1.00  0.00     0.041 C 
HETATM    3  C7  UNL     1       2.010  20.071 -19.637  1.00  0.00     0.199 C 
HETATM    4  O1  UNL     1       2.139  21.461 -19.659  1.00  0.00    -0.384 OA
HETATM    5  C8  UNL     1       3.227  21.747 -20.449  1.00  0.00     0.211 C 
HETATM    6  C9  UNL     1       3.161  21.168 -21.820  1.00  0.00     0.082 C 
HETATM    7  N2  UNL     1       2.528  19.916 -21.946  1.00  0.00    -0.389 N 
ATOM      8  H2  UNL     1       2.792  19.237 -22.660  1.00  0.00     0.159 HD
ENDROOT
BRANCH   1   9
HETATM    9  C3  UNL     1       1.159  18.205 -21.080  1.00  0.00     0.041 C 
HETATM   10  C4  UNL     1      -0.342  18.024 -21.149  1.00  0.00     0.015 C 
BRANCH   9  11
HETATM   11  C2  UNL     1       1.785  17.353 -20.031  1.00  0.00     0.185 C 
HETATM   12  C1  UNL     1       3.163  16.933 -20.536  1.00  0.00     0.040 C 
BRANCH  11  13
HETATM   13  N1  UNL     1       1.089  16.149 -19.720  1.00  0.00    -0.075 N 
ATOM     14  H13 UNL     1       0.075  16.243 -19.768  1.00  0.00     0.274 HD
ATOM     15  H12 UNL     1       1.183  15.430 -20.438  1.00  0.00     0.274 HD
ATOM     16  H11 UNL     1       1.426  15.852 -18.804  1.00  0.00     0.274 HD
ENDBRANCH  11  13
ENDBRANCH   9  11
ENDBRANCH   1   9
TORSDOF 3
ENDMDL
MODEL 4
REMARK VINA RESULT: -3.973715794      1.929      2.996
REMARK  3 active torsions:
REMARK  status: ('A' for Active; 'I' for Inactive)
REMARK    1  A    between atoms: C2_2  and  N1_3 
REMARK    2  A    between atoms: C2_2  and  C3_7 
REMARK    3  A    between atoms: C3_7  and  C5_9 
ROOT
HETATM    1  C5  UNL     1       2.379  19.810 -20.941  1.00  0.00     0.052 C 
HETATM    2  C6  UNL     1       2.112  20.209 -19.513  1.00  0.00     0.041 C 
HETATM    3  C7  UNL     1       1.113  19.328 -21.595  1.00  0.00     0.199 C 
HETATM    4  O1  UNL     1       0.518  18.430 -20.705  1.00  0.00    -0.384 OA
HETATM    5  C8  UNL     1       1.261  17.275 -20.750  1.00  0.00     0.211 C 
HETATM    6  C9  UNL     1       2.712  17.465 -20.469  1.00  0.00     0.082 C 
HETATM    7  N2  UNL     1       3.287  18.672 -20.912  1.00  0.00    -0.389 N 
ATOM      8  H2  UNL     1       4.266  18.743 -21.190  1.00  0.00     0.159 HD
ENDROOT
BRANCH   1   9
HETATM    9  C3  UNL     1       3.082  20.875 -21.720  1.00  0.00     0.041 C 
HETATM   10  C4  UNL     1       3.550  21.953 -20.766  1.00  0.00     0.015 C 
BRANCH   9  11
HETATM   11  C2  UNL     1       2.313  21.429 -22.870  1.00  0.00     0.185 C 
HETATM   12  C1  UNL     1       3.312  21.785 -23.968  1.00  0.00     0.040 C 
BRANCH  11  13
HETATM   13  N1  UNL     1       1.576  22.619 -22.600  1.00  0.00    -0.075 N 
ATOM     14  H13 UNL     1       2.108  23.317 -22.080  1.00  0.00     0.274 HD
ATOM     15  H12 UNL     1       1.403  23.186 -23.430  1.00  0.00     0.274 HD
ATOM     16  H11 UNL     1       0.722  22.325 -22.126  1.00  0.00     0.274 HD
ENDBRANCH  11  13
ENDBRANCH   9  11
ENDBRANCH   1   9
TORSDOF 3
ENDMDL
MODEL 5
REMARK VINA RESULT: -3.943433989      2.047      4.186
REMARK  3 active torsions:
REMARK  status: ('A' for Active; 'I' for Inactive)
REMARK    1  A    between atoms: C2_2  and  N1_3 
REMARK    2  A    between atoms: C2_2  and  C3_7 
REMARK    3  A    between atoms: C3_7  and  C5_9 
ROOT
HETATM    1  C5  UNL     1       2.141  19.980 -20.417  1.00  0.00     0.052 C 
HETATM    2  C6  UNL     1       2.216  20.965 -19.279  1.00  0.00     0.041 C 
HETATM    3  C7  UNL     1       3.480  19.859 -21.093  1.00  0.00     0.199 C 
HETATM    4  O1  UNL     1       3.939  21.161 -21.309  1.00  0.00    -0.384 OA
HETATM    5  C8  UNL     1       3.197  21.678 -22.344  1.00  0.00     0.211 C 
HETATM    6  C9  UNL     1       1.724  21.632 -22.129  1.00  0.00     0.082 C 
HETATM    7  N2  UNL     1       1.226  20.529 -21.408  1.00  0.00    -0.389 N 
ATOM      8  H2  UNL     1       0.295  20.144 -21.568  1.00  0.00     0.159 HD
ENDROOT
BRANCH   1   9
HETATM    9  C3  UNL     1       1.561  18.663 -20.008  1.00  0.00     0.041 C 
HETATM   10  C4  UNL     1       2.641  17.836 -19.344  1.00  0.00     0.015 C 
BRANCH   9  11
HETATM   11  C2  UNL     1       0.861  17.918 -21.091  1.00  0.00     0.185 C 
HETATM   12  C1  UNL     1      -0.284  17.137 -20.452  1.00  0.00     0.040 C 
BRANCH  11  13
HETATM   13  N1  UNL     1       1.654  16.964 -21.793  1.00  0.00    -0.075 N 
ATOM     14  H13 UNL     1       2.350  17.387 -22.407  1.00  0.00     0.274 HD
ATOM     15  H12 UNL     1       2.306  16.459 -21.192  1.00  0.00     0.274 HD
ATOM     16  H11 UNL     1       1.000  16.353 -22.282  1.00  0.00     0.274 HD
ENDBRANCH  11  13
ENDBRANCH   9  11
ENDBRANCH   1   9
TORSDOF 3
ENDMDL
