MODEL 1
REMARK VINA RESULT: -5.218059822      0.000      0.000
REMARK  4 active torsions:
REMARK  status: ('A' for Active; 'I' for Inactive)
REMARK    1  A    between atoms: O1_2  and  C2_3 
REMARK    2  A    between atoms: C2_3  and  N1_4 
REMARK    3  A    between atoms: C2_3  and  N2_8 
REMARK    4  A    between atoms: N2_8  and  C3_11 
ROOT
HETATM    1  N2  UNL     1       1.359  19.274 -21.118  1.00  0.00    -0.014 N 
ATOM      2  H21 UNL     1       0.657  19.768 -20.567  1.00  0.00     0.283 HD
ATOM      3  H22 UNL     1       0.940  19.353 -22.044  1.00  0.00     0.283 HD
ENDROOT
BRANCH   1   4
HETATM    4  C2  UNL     1       1.435  17.891 -20.715  1.00  0.00     0.521 C 
BRANCH   4   5
HETATM    5  O1  UNL     1       0.309  17.229 -21.109  1.00  0.00    -0.344 OA
HETATM    6  C1  UNL     1      -0.872  17.918 -21.062  1.00  0.00     0.206 C 
ENDBRANCH   4   5
BRANCH   4   7
HETATM    7  N1  UNL     1       2.599  17.216 -21.249  1.00  0.00    -0.027 N 
ATOM      8  H13 UNL     1       3.007  16.561 -20.580  1.00  0.00     0.279 HD
ATOM      9  H12 UNL     1       2.356  16.545 -21.978  1.00  0.00     0.279 HD
ATOM     10  H11 UNL     1       3.274  17.910 -21.571  1.00  0.00     0.279 HD
ENDBRANCH   4   7
ENDBRANCH   1   4
BRANCH   1  11
HETATM   11  C3  UNL     1       2.598  19.961 -21.075  1.00  0.00     0.247 C 
HETATM   12  C4  UNL     1       2.418  21.448 -21.364  1.00  0.00     0.151 C 
HETATM   13  C5  UNL     1       2.699  21.669 -22.839  1.00  0.00     0.042 C 
HETATM   14  O2  UNL     1       3.554  21.643 -20.547  1.00  0.00    -0.377 OA
HETATM   15  C6  UNL     1       3.121  20.514 -19.810  1.00  0.00     0.151 C 
HETATM   16  C7  UNL     1       2.179  20.967 -18.752  1.00  0.00     0.042 C 
ENDBRANCH   1  11
TORSDOF 4
ENDMDL
MODEL 2
REMARK VINA RESULT: -5.037270300      1.223      1.457
REMARK  4 active torsions:
REMARK  status: ('A' for Active; 'I' for Inactive)
REMARK    1  A    between atoms: O1_2  and  C2_3 
REMARK    2  A    between atoms: C2_3  and  N1_4 
REMARK    3  A    between atoms: C2_3  and  N2_8 
REMARK    4  A    between atoms: N2_8  and  C3_11 
ROOT
HETATM    1  N2  UNL     1       0.771  19.783 -21.235  1.00  0.00    -0.014 N 
ATOM      2  H21 UNL     1       0.430  19.943 -20.286  1.00  0.00     0.283 HD
ATOM      3  H22 UNL     1       0.256  20.510 -21.730  1.00  0.00     0.283 HD
ENDROOT
BRANCH   1   4
HETATM    4  C2  UNL     1       0.372  18.477 -21.699  1.00  0.00     0.521 C 
BRANCH   4   5
HETATM    5  O1  UNL     1       1.223  17.530 -21.208  1.00  0.00    -0.344 OA
HETATM    6  C1  UNL     1       0.791  16.792 -20.140  1.00  0.00     0.206 C 
ENDBRANCH   4   5
BRANCH   4   7
HETATM    7  N1  UNL     1      -0.985  18.140 -21.326  1.00  0.00    -0.027 N 
ATOM      8  H13 UNL     1      -1.062  17.192 -20.958  1.00  0.00     0.279 HD
ATOM      9  H12 UNL     1      -1.294  18.644 -20.494  1.00  0.00     0.279 HD
ATOM     10  H11 UNL     1      -1.603  18.296 -22.123  1.00  0.00     0.279 HD
ENDBRANCH   4   7
ENDBRANCH   1   4
BRANCH   1  11
HETATM   11  C3  UNL     1       2.165  20.025 -21.307  1.00  0.00     0.247 C 
HETATM   12  C4  UNL     1       2.462  21.513 -21.468  1.00  0.00     0.151 C 
HETATM   13  C5  UNL     1       2.649  21.790 -22.948  1.00  0.00     0.042 C 
HETATM   14  O2  UNL     1       3.675  21.242 -20.796  1.00  0.00    -0.377 OA
HETATM   15  C6  UNL     1       2.969  20.240 -20.087  1.00  0.00     0.151 C 
HETATM   16  C7  UNL     1       2.343  20.855 -18.886  1.00  0.00     0.042 C 
ENDBRANCH   1  11
TORSDOF 4
ENDMDL
MODEL 3
REMARK VINA RESULT: -4.981466807      1.342      4.243
REMARK  4 active torsions:
REMARK  status: ('A' for Active; 'I' for Inactive)
REMARK    1  A    between atoms: O1_2  and  C2_3 
REMARK    2  A    between atoms: C2_3  and  N1_4 
REMARK    3  A    between atoms: C2_3  and  N2_8 
REMARK    4  A    between atoms: N2_8  and  C3_11 
ROOT
HETATM    1  N2  UNL     1       1.753  19.721 -21.099  1.00  0.00    -0.014 N 
ATOM      2  H21 UNL     1       2.210  19.351 -21.933  1.00  0.00     0.283 HD
ATOM      3  H22 UNL     1       0.936  20.156 -21.526  1.00  0.00     0.283 HD
ENDROOT
BRANCH   1   4
HETATM    4  C2  UNL     1       2.584  20.717 -20.468  1.00  0.00     0.521 C 
BRANCH   4   5
HETATM    5  O1  UNL     1       2.674  21.820 -21.267  1.00  0.00    -0.344 OA
HETATM    6  C1  UNL     1       2.541  21.631 -22.615  1.00  0.00     0.206 C 
ENDBRANCH   4   5
BRANCH   4   7
HETATM    7  N1  UNL     1       2.095  21.109 -19.163  1.00  0.00    -0.027 N 
ATOM      8  H13 UNL     1       2.469  22.010 -18.865  1.00  0.00     0.279 HD
ATOM      9  H12 UNL     1       1.106  21.361 -19.180  1.00  0.00     0.279 HD
ATOM     10  H11 UNL     1       2.293  20.367 -18.492  1.00  0.00     0.279 HD
ENDBRANCH   4   7
ENDBRANCH   1   4
BRANCH   1  11
HETATM   11  C3  UNL     1       1.359  18.664 -20.241  1.00  0.00     0.247 C 
HETATM   12  C4  UNL     1       0.692  17.536 -21.019  1.00  0.00     0.151 C 
HETATM   13  C5  UNL     1      -0.809  17.745 -20.942  1.00  0.00     0.042 C 
HETATM   14  O2  UNL     1       1.186  16.679 -20.010  1.00  0.00    -0.377 OA
HETATM   15  C6  UNL     1       2.287  17.564 -19.907  1.00  0.00     0.151 C 
HETATM   16  C7  UNL     1       3.327  17.149 -20.886  1.00  0.00     0.042 C 
ENDBRANCH   1  11
TORSDOF 4
ENDMDL
MODEL 4
REMARK VINA RESULT: -4.657716018      1.381      4.231
REMARK  4 active torsions:
REMARK  status: ('A' for Active; 'I' for Inactive)
REMARK    1  A    between atoms: O1_2  and  C2_3 
REMARK    2  A    between atoms: C2_3  and  N1_4 
REMARK    3  A    between atoms: C2_3  and  N2_8 
REMARK    4  A    between atoms: N2_8  and  C3_11 
ROOT
HETATM    1  N2  UNL     1       1.728  19.543 -21.670  1.00  0.00    -0.014 N 
ATOM      2  H21 UNL     1       2.487  19.111 -22.198  1.00  0.00     0.283 HD
ATOM      3  H22 UNL     1       0.997  19.541 -22.382  1.00  0.00     0.283 HD
ENDROOT
BRANCH   1   4
HETATM    4  C2  UNL     1       2.073  20.895 -21.305  1.00  0.00     0.521 C 
BRANCH   4   5
HETATM    5  O1  UNL     1       3.177  20.891 -20.503  1.00  0.00    -0.344 OA
HETATM    6  C1  UNL     1       3.009  21.285 -19.204  1.00  0.00     0.206 C 
ENDBRANCH   4   5
BRANCH   4   7
HETATM    7  N1  UNL     1       2.319  21.740 -22.454  1.00  0.00    -0.027 N 
ATOM      8  H13 UNL     1       2.642  22.670 -22.189  1.00  0.00     0.279 HD
ATOM      9  H12 UNL     1       3.142  21.446 -22.981  1.00  0.00     0.279 HD
ATOM     10  H11 UNL     1       1.481  21.773 -23.035  1.00  0.00     0.279 HD
ENDBRANCH   4   7
ENDBRANCH   1   4
BRANCH   1  11
HETATM   11  C3  UNL     1       1.355  18.722 -20.577  1.00  0.00     0.247 C 
HETATM   12  C4  UNL     1       0.671  17.444 -21.050  1.00  0.00     0.151 C 
HETATM   13  C5  UNL     1      -0.828  17.673 -20.989  1.00  0.00     0.042 C 
HETATM   14  O2  UNL     1       1.189  16.850 -19.877  1.00  0.00    -0.377 OA
HETATM   15  C6  UNL     1       2.291  17.729 -20.013  1.00  0.00     0.151 C 
HETATM   16  C7  UNL     1       3.309  17.088 -20.889  1.00  0.00     0.042 C 
ENDBRANCH   1  11
TORSDOF 4
ENDMDL
MODEL 5
REMARK VINA RESULT: -4.634864469      0.789      2.088
REMARK  4 active torsions:
REMARK  status: ('A' for Active; 'I' for Inactive)
REMARK    1  A    between atoms: O1_2  and  C2_3 
REMARK    2  A    between atoms: C2_3  and  N1_4 
REMARK    3  A    between atoms: C2_3  and  N2_8 
REMARK    4  A    between atoms: N2_8  and  C3_11 
ROOT
HETATM    1  N2  UNL     1       2.253  19.015 -21.223  1.00  0.00    -0.014 N 
ATOM      2  H21 UNL     1       2.129  18.941 -22.234  1.00  0.00     0.283 HD
ATOM      3  H22 UNL     1       3.240  18.771 -21.151  1.00  0.00     0.283 HD
ENDROOT
BRANCH   1   4
HETATM    4  C2  UNL     1       1.439  18.038 -20.542  1.00  0.00     0.521 C 
BRANCH   4   5
HETATM    5  O1  UNL     1       0.464  17.581 -21.380  1.00  0.00    -0.344 OA
HETATM    6  C1  UNL     1      -0.829  17.906 -21.073  1.00  0.00     0.206 C 
ENDBRANCH   4   5
BRANCH   4   7
HETATM    7  N1  UNL     1       2.209  16.916 -20.047  1.00  0.00    -0.027 N 
ATOM      8  H13 UNL     1       1.623  16.108 -19.835  1.00  0.00     0.279 HD
ATOM      9  H12 UNL     1       2.785  16.491 -20.775  1.00  0.00     0.279 HD
ATOM     10  H11 UNL     1       2.761  17.214 -19.243  1.00  0.00     0.279 HD
ENDBRANCH   4   7
ENDBRANCH   1   4
BRANCH   1  11
HETATM   11  C3  UNL     1       2.040  20.349 -20.795  1.00  0.00     0.247 C 
HETATM   12  C4  UNL     1       3.056  20.760 -19.734  1.00  0.00     0.151 C 
HETATM   13  C5  UNL     1       2.416  20.548 -18.375  1.00  0.00     0.042 C 
HETATM   14  O2  UNL     1       2.890  22.074 -20.227  1.00  0.00    -0.377 OA
HETATM   15  C6  UNL     1       2.668  21.487 -21.496  1.00  0.00     0.151 C 
HETATM   16  C7  UNL     1       3.978  21.307 -22.176  1.00  0.00     0.042 C 
ENDBRANCH   1  11
TORSDOF 4
ENDMDL
