MODEL 1
REMARK VINA RESULT: -6.971694146      0.000      0.000
REMARK  4 active torsions:
REMARK  status: ('A' for Active; 'I' for Inactive)
REMARK    1  A    between atoms: N1_1  and  C1_4 
REMARK    2  A    between atoms: N5_14  and  N6_16 
REMARK    3  A    between atoms: N6_16  and  S1_18 
REMARK    4  A    between atoms: S1_18  and  N7_19 
ROOT
HETATM    1  C1  UNL     1       5.186 -13.450   1.988  1.00  0.00     0.150 A 
HETATM    2  N2  UNL     1       5.003 -13.970   0.750  1.00  0.00    -0.291 N 
ATOM      3  H2  UNL     1       4.237 -13.616   0.178  1.00  0.00     0.172 HD
HETATM    4  C2  UNL     1       5.795 -14.934   0.246  1.00  0.00     0.340 A 
HETATM    5  O1  UNL     1       5.636 -15.424  -0.900  1.00  0.00    -0.245 OA
HETATM    6  N3  UNL     1       6.793 -15.371   1.030  1.00  0.00    -0.250 N 
ATOM      7  H3  UNL     1       7.412 -16.102   0.679  1.00  0.00     0.192 HD
HETATM    8  N4  UNL     1       6.999 -14.887   2.243  1.00  0.00    -0.277 N 
ATOM      9  H4  UNL     1       7.771 -15.255   2.797  1.00  0.00     0.189 HD
HETATM   10  C3  UNL     1       6.208 -13.908   2.774  1.00  0.00     0.180 A 
HETATM   11  N5  UNL     1       6.490 -13.514   3.942  1.00  0.00    -0.271 N 
ATOM     12  H5  UNL     1       7.291 -13.969   4.379  1.00  0.00     0.189 HD
ENDROOT
BRANCH   1  13
HETATM   13  N1  UNL     1       4.424 -12.536   2.450  1.00  0.00    -0.382 N 
ATOM     14  H12 UNL     1       4.759 -11.572   2.442  1.00  0.00     0.157 HD
ATOM     15  H11 UNL     1       3.499 -12.748   2.822  1.00  0.00     0.157 HD
ENDBRANCH   1  13
BRANCH  11  16
HETATM   16  N6  UNL     1       5.870 -12.563   4.696  1.00  0.00    -0.208 N 
ATOM     17  H6  UNL     1       5.061 -12.816   5.263  1.00  0.00     0.201 HD
BRANCH  16  18
HETATM   18  S1  UNL     1       6.440 -10.945   4.702  1.00  0.00     0.330 S 
HETATM   19  O2  UNL     1       5.897 -10.144   3.556  1.00  0.00    -0.181 OA
HETATM   20  O3  UNL     1       6.116 -10.279   6.020  1.00  0.00    -0.181 OA
BRANCH  18  21
HETATM   21  N7  UNL     1       8.166 -10.942   4.557  1.00  0.00    -0.310 N 
ATOM     22  H72 UNL     1       8.780 -11.649   4.962  1.00  0.00     0.170 HD
ATOM     23  H71 UNL     1       8.458 -10.132   4.011  1.00  0.00     0.170 HD
ENDBRANCH  18  21
ENDBRANCH  16  18
ENDBRANCH  11  16
TORSDOF 4
ENDMDL
MODEL 2
REMARK VINA RESULT: -6.902542961      2.664      5.304
REMARK  4 active torsions:
REMARK  status: ('A' for Active; 'I' for Inactive)
REMARK    1  A    between atoms: N1_1  and  C1_4 
REMARK    2  A    between atoms: N5_14  and  N6_16 
REMARK    3  A    between atoms: N6_16  and  S1_18 
REMARK    4  A    between atoms: S1_18  and  N7_19 
ROOT
HETATM    1  C1  UNL     1       6.046 -11.301   3.684  1.00  0.00     0.150 A 
HETATM    2  N2  UNL     1       6.076 -10.483   4.765  1.00  0.00    -0.291 N 
ATOM      3  H2  UNL     1       5.454  -9.675   4.785  1.00  0.00     0.172 HD
HETATM    4  C2  UNL     1       6.894 -10.696   5.811  1.00  0.00     0.340 A 
HETATM    5  O1  UNL     1       6.931  -9.945   6.818  1.00  0.00    -0.245 OA
HETATM    6  N3  UNL     1       7.696 -11.770   5.745  1.00  0.00    -0.250 N 
ATOM      7  H3  UNL     1       8.329 -11.962   6.522  1.00  0.00     0.192 HD
HETATM    8  N4  UNL     1       7.693 -12.588   4.707  1.00  0.00    -0.277 N 
ATOM      9  H4  UNL     1       8.323 -13.391   4.708  1.00  0.00     0.189 HD
HETATM   10  C3  UNL     1       6.871 -12.392   3.634  1.00  0.00     0.180 A 
HETATM   11  N5  UNL     1       6.945 -13.233   2.693  1.00  0.00    -0.271 N 
ATOM     12  H5  UNL     1       7.619 -13.987   2.828  1.00  0.00     0.189 HD
ENDROOT
BRANCH   1  13
HETATM   13  N1  UNL     1       5.263 -11.083   2.701  1.00  0.00    -0.382 N 
ATOM     14  H12 UNL     1       4.400 -11.623   2.635  1.00  0.00     0.157 HD
ATOM     15  H11 UNL     1       5.482 -10.388   1.987  1.00  0.00     0.157 HD
ENDBRANCH   1  13
BRANCH  11  16
HETATM   16  N6  UNL     1       6.247 -13.270   1.523  1.00  0.00    -0.208 N 
ATOM     17  H6  UNL     1       6.457 -12.595   0.788  1.00  0.00     0.201 HD
BRANCH  16  18
HETATM   18  S1  UNL     1       5.019 -14.441   1.276  1.00  0.00     0.330 S 
HETATM   19  O2  UNL     1       5.228 -15.673   2.106  1.00  0.00    -0.181 OA
HETATM   20  O3  UNL     1       3.658 -13.839   1.546  1.00  0.00    -0.181 OA
BRANCH  18  21
HETATM   21  N7  UNL     1       5.020 -14.934  -0.384  1.00  0.00    -0.310 N 
ATOM     22  H72 UNL     1       4.339 -14.628  -1.078  1.00  0.00     0.170 HD
ATOM     23  H71 UNL     1       5.802 -15.570  -0.547  1.00  0.00     0.170 HD
ENDBRANCH  18  21
ENDBRANCH  16  18
ENDBRANCH  11  16
TORSDOF 4
ENDMDL
MODEL 3
REMARK VINA RESULT: -6.886061731      2.542      5.495
REMARK  4 active torsions:
REMARK  status: ('A' for Active; 'I' for Inactive)
REMARK    1  A    between atoms: N1_1  and  C1_4 
REMARK    2  A    between atoms: N5_14  and  N6_16 
REMARK    3  A    between atoms: N6_16  and  S1_18 
REMARK    4  A    between atoms: S1_18  and  N7_19 
ROOT
HETATM    1  C1  UNL     1       5.757 -11.841   2.346  1.00  0.00     0.150 A 
HETATM    2  N2  UNL     1       5.714 -10.901   3.322  1.00  0.00    -0.291 N 
ATOM      3  H2  UNL     1       5.322  -9.985   3.102  1.00  0.00     0.172 HD
HETATM    4  C2  UNL     1       6.166 -11.129   4.568  1.00  0.00     0.340 A 
HETATM    5  O1  UNL     1       6.131 -10.266   5.480  1.00  0.00    -0.245 OA
HETATM    6  N3  UNL     1       6.673 -12.348   4.816  1.00  0.00    -0.250 N 
ATOM      7  H3  UNL     1       7.024 -12.555   5.751  1.00  0.00     0.192 HD
HETATM    8  N4  UNL     1       6.731 -13.288   3.888  1.00  0.00    -0.277 N 
ATOM      9  H4  UNL     1       7.126 -14.197   4.129  1.00  0.00     0.189 HD
HETATM   10  C3  UNL     1       6.278 -13.078   2.617  1.00  0.00     0.180 A 
HETATM   11  N5  UNL     1       6.378 -14.043   1.805  1.00  0.00    -0.271 N 
ATOM     12  H5  UNL     1       6.792 -14.894   2.183  1.00  0.00     0.189 HD
ENDROOT
BRANCH   1  13
HETATM   13  N1  UNL     1       5.324 -11.606   1.169  1.00  0.00    -0.382 N 
ATOM     14  H12 UNL     1       4.537 -10.966   1.059  1.00  0.00     0.157 HD
ATOM     15  H11 UNL     1       5.743 -12.041   0.348  1.00  0.00     0.157 HD
ENDBRANCH   1  13
BRANCH  11  16
HETATM   16  N6  UNL     1       6.008 -14.099   0.494  1.00  0.00    -0.208 N 
ATOM     17  H6  UNL     1       5.717 -13.247   0.015  1.00  0.00     0.201 HD
BRANCH  16  18
HETATM   18  S1  UNL     1       6.030 -15.589  -0.355  1.00  0.00     0.330 S 
HETATM   19  O2  UNL     1       7.287 -16.369  -0.108  1.00  0.00    -0.181 OA
HETATM   20  O3  UNL     1       4.811 -16.411  -0.002  1.00  0.00    -0.181 OA
BRANCH  18  21
HETATM   21  N7  UNL     1       5.943 -15.281  -2.057  1.00  0.00    -0.310 N 
ATOM     22  H72 UNL     1       5.324 -14.595  -2.489  1.00  0.00     0.170 HD
ATOM     23  H71 UNL     1       6.602 -15.888  -2.545  1.00  0.00     0.170 HD
ENDBRANCH  18  21
ENDBRANCH  16  18
ENDBRANCH  11  16
TORSDOF 4
ENDMDL
MODEL 4
REMARK VINA RESULT: -6.806498023      1.483      1.910
REMARK  4 active torsions:
REMARK  status: ('A' for Active; 'I' for Inactive)
REMARK    1  A    between atoms: N1_1  and  C1_4 
REMARK    2  A    between atoms: N5_14  and  N6_16 
REMARK    3  A    between atoms: N6_16  and  S1_18 
REMARK    4  A    between atoms: S1_18  and  N7_19 
ROOT
HETATM    1  C1  UNL     1       6.279 -14.713   2.565  1.00  0.00     0.150 A 
HETATM    2  N2  UNL     1       5.704 -15.776   1.950  1.00  0.00    -0.291 N 
ATOM      3  H2  UNL     1       5.614 -16.651   2.466  1.00  0.00     0.172 HD
HETATM    4  C2  UNL     1       5.247 -15.720   0.687  1.00  0.00     0.340 A 
HETATM    5  O1  UNL     1       4.712 -16.698   0.106  1.00  0.00    -0.245 OA
HETATM    6  N3  UNL     1       5.383 -14.550   0.043  1.00  0.00    -0.250 N 
ATOM      7  H3  UNL     1       5.046 -14.473  -0.917  1.00  0.00     0.192 HD
HETATM    8  N4  UNL     1       5.939 -13.494   0.612  1.00  0.00    -0.277 N 
ATOM      9  H4  UNL     1       6.018 -12.629   0.078  1.00  0.00     0.189 HD
HETATM   10  C3  UNL     1       6.410 -13.528   1.893  1.00  0.00     0.180 A 
HETATM   11  N5  UNL     1       6.924 -12.464   2.344  1.00  0.00    -0.271 N 
ATOM     12  H5  UNL     1       6.936 -11.674   1.700  1.00  0.00     0.189 HD
ENDROOT
BRANCH   1  13
HETATM   13  N1  UNL     1       6.708 -14.785   3.765  1.00  0.00    -0.382 N 
ATOM     14  H12 UNL     1       6.620 -15.672   4.262  1.00  0.00     0.157 HD
ATOM     15  H11 UNL     1       7.129 -13.982   4.231  1.00  0.00     0.157 HD
ENDBRANCH   1  13
BRANCH  11  16
HETATM   16  N6  UNL     1       7.463 -12.229   3.574  1.00  0.00    -0.208 N 
ATOM     17  H6  UNL     1       8.402 -12.565   3.786  1.00  0.00     0.201 HD
BRANCH  16  18
HETATM   18  S1  UNL     1       6.576 -11.374   4.767  1.00  0.00     0.330 S 
HETATM   19  O2  UNL     1       6.007 -10.089   4.245  1.00  0.00    -0.181 OA
HETATM   20  O3  UNL     1       5.483 -12.251   5.336  1.00  0.00    -0.181 OA
BRANCH  18  21
HETATM   21  N7  UNL     1       7.624 -10.974   6.086  1.00  0.00    -0.310 N 
ATOM     22  H72 UNL     1       8.318 -10.227   6.065  1.00  0.00     0.170 HD
ATOM     23  H71 UNL     1       7.435 -11.598   6.870  1.00  0.00     0.170 HD
ENDBRANCH  18  21
ENDBRANCH  16  18
ENDBRANCH  11  16
TORSDOF 4
ENDMDL
MODEL 5
REMARK VINA RESULT: -6.743648679      2.512      5.501
REMARK  4 active torsions:
REMARK  status: ('A' for Active; 'I' for Inactive)
REMARK    1  A    between atoms: N1_1  and  C1_4 
REMARK    2  A    between atoms: N5_14  and  N6_16 
REMARK    3  A    between atoms: N6_16  and  S1_18 
REMARK    4  A    between atoms: S1_18  and  N7_19 
ROOT
HETATM    1  C1  UNL     1       6.436 -13.058   3.813  1.00  0.00     0.150 A 
HETATM    2  N2  UNL     1       6.387 -12.288   4.928  1.00  0.00    -0.291 N 
ATOM      3  H2  UNL     1       6.504 -12.734   5.837  1.00  0.00     0.172 HD
HETATM    4  C2  UNL     1       6.189 -10.958   4.881  1.00  0.00     0.340 A 
HETATM    5  O1  UNL     1       6.141 -10.234   5.906  1.00  0.00    -0.245 OA
HETATM    6  N3  UNL     1       6.039 -10.410   3.665  1.00  0.00    -0.250 N 
ATOM      7  H3  UNL     1       5.888  -9.403   3.593  1.00  0.00     0.192 HD
HETATM    8  N4  UNL     1       6.081 -11.130   2.557  1.00  0.00    -0.277 N 
ATOM      9  H4  UNL     1       5.962 -10.663   1.659  1.00  0.00     0.189 HD
HETATM   10  C3  UNL     1       6.281 -12.481   2.582  1.00  0.00     0.180 A 
HETATM   11  N5  UNL     1       6.305 -13.077   1.466  1.00  0.00    -0.271 N 
ATOM     12  H5  UNL     1       6.173 -12.485   0.647  1.00  0.00     0.189 HD
ENDROOT
BRANCH   1  13
HETATM   13  N1  UNL     1       6.624 -14.318   3.877  1.00  0.00    -0.382 N 
ATOM     14  H12 UNL     1       7.063 -14.704   4.714  1.00  0.00     0.157 HD
ATOM     15  H11 UNL     1       6.349 -14.939   3.117  1.00  0.00     0.157 HD
ENDBRANCH   1  13
BRANCH  11  16
HETATM   16  N6  UNL     1       6.485 -14.404   1.210  1.00  0.00    -0.208 N 
ATOM     17  H6  UNL     1       7.344 -14.864   1.509  1.00  0.00     0.201 HD
BRANCH  16  18
HETATM   18  S1  UNL     1       5.278 -15.306   0.391  1.00  0.00     0.330 S 
HETATM   19  O2  UNL     1       5.265 -16.749   0.801  1.00  0.00    -0.181 OA
HETATM   20  O3  UNL     1       3.919 -14.678   0.604  1.00  0.00    -0.181 OA
BRANCH  18  21
HETATM   21  N7  UNL     1       5.583 -15.259  -1.313  1.00  0.00    -0.310 N 
ATOM     22  H72 UNL     1       6.482 -15.474  -1.745  1.00  0.00     0.170 HD
ATOM     23  H71 UNL     1       4.730 -14.985  -1.802  1.00  0.00     0.170 HD
ENDBRANCH  18  21
ENDBRANCH  16  18
ENDBRANCH  11  16
TORSDOF 4
ENDMDL
