MODEL 1
REMARK VINA RESULT: -7.726218698      0.000      0.000
REMARK  6 active torsions:
REMARK  status: ('A' for Active; 'I' for Inactive)
REMARK    1  A    between atoms: C1_2  and  C2_4 
REMARK    2  A    between atoms: C2_4  and  N1_5 
REMARK       I    between atoms: N1_5  and  C3_6 
REMARK    3  A    between atoms: N1_5  and  C13_23 
REMARK    4  A    between atoms: C3_6  and  C4_8 
REMARK    5  A    between atoms: C4_8  and  N2_9 
REMARK    6  A    between atoms: N3_12  and  C7_13 
ROOT
HETATM    1  N2  UNL     1      -3.647  12.373  21.268  1.00  0.00    -0.242 N 
HETATM    2  C5  UNL     1      -4.676  12.790  20.431  1.00  0.00     0.104 C 
HETATM    3  C6  UNL     1      -5.622  11.701  20.123  1.00  0.00     0.189 C 
HETATM    4  N3  UNL     1      -5.009  10.414  20.265  1.00  0.00    -0.254 N 
HETATM    5  S1  UNL     1      -3.568  10.716  21.218  1.00  0.00     0.331 S 
HETATM    6  O4  UNL     1      -2.410  10.210  20.433  1.00  0.00    -0.181 OA
HETATM    7  O5  UNL     1      -3.646   9.991  22.503  1.00  0.00    -0.181 OA
ENDROOT
BRANCH   1   8
HETATM    8  C4  UNL     1      -3.143  13.130  22.304  1.00  0.00     0.184 C 
BRANCH   8   9
HETATM    9  C3  UNL     1      -4.027  14.077  22.969  1.00  0.00     0.265 C 
HETATM   10  N1  UNL     1      -4.897  13.701  24.045  1.00  0.00    -0.303 N 
HETATM   11  O3  UNL     1      -4.040  15.265  22.601  1.00  0.00    -0.266 OA
BRANCH  10  12
HETATM   12  C2  UNL     1      -4.943  12.379  24.578  1.00  0.00     0.245 C 
BRANCH  12  13
HETATM   13  C1  UNL     1      -3.769  12.005  25.403  1.00  0.00     0.192 C 
HETATM   14  O1  UNL     1      -3.011  12.861  25.924  1.00  0.00    -0.647 OA
HETATM   15  O2  UNL     1      -3.435  10.675  25.652  1.00  0.00    -0.647 OA
ENDBRANCH  12  13
ENDBRANCH  10  12
BRANCH  10  16
HETATM   16  C13 UNL     1      -5.741  14.687  24.665  1.00  0.00     0.038 A 
HETATM   17  C14 UNL     1      -7.074  14.802  24.241  1.00  0.00     0.030 A 
HETATM   18  C15 UNL     1      -7.888  15.724  24.808  1.00  0.00     0.002 A 
HETATM   19  C16 UNL     1      -7.486  16.588  25.806  1.00  0.00     0.000 A 
HETATM   20  C17 UNL     1      -6.180  16.471  26.213  1.00  0.00     0.002 A 
HETATM   21  C18 UNL     1      -5.325  15.531  25.648  1.00  0.00     0.030 A 
ENDBRANCH  10  16
ENDBRANCH   8   9
ENDBRANCH   1   8
BRANCH   4  22
HETATM   22  C7  UNL     1      -5.397   9.150  19.792  1.00  0.00     0.046 A 
HETATM   23  C8  UNL     1      -4.559   8.364  19.032  1.00  0.00     0.031 A 
HETATM   24  C9  UNL     1      -4.933   7.128  18.567  1.00  0.00     0.021 A 
HETATM   25  C10 UNL     1      -6.177   6.633  18.852  1.00  0.00     0.011 A 
HETATM   26 BR1  UNL     1      -6.704   4.899  18.201  1.00  0.00    -0.051 Br
HETATM   27  C11 UNL     1      -7.035   7.395  19.610  1.00  0.00     0.021 A 
HETATM   28  C12 UNL     1      -6.647   8.630  20.068  1.00  0.00     0.031 A 
ENDBRANCH   4  22
TORSDOF 6
ENDMDL
MODEL 2
REMARK VINA RESULT: -7.635639734      5.095      8.749
REMARK  6 active torsions:
REMARK  status: ('A' for Active; 'I' for Inactive)
REMARK    1  A    between atoms: C1_2  and  C2_4 
REMARK    2  A    between atoms: C2_4  and  N1_5 
REMARK       I    between atoms: N1_5  and  C3_6 
REMARK    3  A    between atoms: N1_5  and  C13_23 
REMARK    4  A    between atoms: C3_6  and  C4_8 
REMARK    5  A    between atoms: C4_8  and  N2_9 
REMARK    6  A    between atoms: N3_12  and  C7_13 
ROOT
HETATM    1  N2  UNL     1      -4.626  13.973  24.439  1.00  0.00    -0.242 N 
HETATM    2  C5  UNL     1      -5.950  13.793  24.055  1.00  0.00     0.104 C 
HETATM    3  C6  UNL     1      -6.661  15.074  23.881  1.00  0.00     0.189 C 
HETATM    4  N3  UNL     1      -6.054  16.122  24.646  1.00  0.00    -0.254 N 
HETATM    5  S1  UNL     1      -4.459  15.511  25.042  1.00  0.00     0.331 S 
HETATM    6  O4  UNL     1      -4.332  15.547  26.524  1.00  0.00    -0.181 OA
HETATM    7  O5  UNL     1      -3.420  16.371  24.437  1.00  0.00    -0.181 OA
ENDROOT
BRANCH   1   8
HETATM    8  C4  UNL     1      -3.575  13.226  23.953  1.00  0.00     0.184 C 
BRANCH   8   9
HETATM    9  C3  UNL     1      -2.899  12.306  24.855  1.00  0.00     0.265 C 
HETATM   10  N1  UNL     1      -2.256  11.106  24.400  1.00  0.00    -0.303 N 
HETATM   11  O3  UNL     1      -2.866  12.554  26.073  1.00  0.00    -0.266 OA
BRANCH  10  12
HETATM   12  C2  UNL     1      -2.195  10.734  23.025  1.00  0.00     0.245 C 
BRANCH  12  13
HETATM   13  C1  UNL     1      -0.966  11.174  22.321  1.00  0.00     0.192 C 
HETATM   14  O1  UNL     1      -0.399  10.470  21.449  1.00  0.00    -0.647 OA
HETATM   15  O2  UNL     1      -0.363  12.402  22.587  1.00  0.00    -0.647 OA
ENDBRANCH  12  13
ENDBRANCH  10  12
BRANCH  10  16
HETATM   16  C13 UNL     1      -1.598  10.242  25.343  1.00  0.00     0.038 A 
HETATM   17  C14 UNL     1      -2.323   9.765  26.447  1.00  0.00     0.030 A 
HETATM   18  C15 UNL     1      -1.725   8.952  27.349  1.00  0.00     0.002 A 
HETATM   19  C16 UNL     1      -0.409   8.544  27.257  1.00  0.00     0.000 A 
HETATM   20  C17 UNL     1       0.292   9.016  26.176  1.00  0.00     0.002 A 
HETATM   21  C18 UNL     1      -0.300   9.851  25.235  1.00  0.00     0.030 A 
ENDBRANCH  10  16
ENDBRANCH   8   9
ENDBRANCH   1   8
BRANCH   4  22
HETATM   22  C7  UNL     1      -6.543  17.380  25.037  1.00  0.00     0.046 A 
HETATM   23  C8  UNL     1      -6.235  18.532  24.347  1.00  0.00     0.031 A 
HETATM   24  C9  UNL     1      -6.709  19.763  24.723  1.00  0.00     0.021 A 
HETATM   25  C10 UNL     1      -7.520  19.882  25.820  1.00  0.00     0.011 A 
HETATM   26 BR1  UNL     1      -8.187  21.608  26.351  1.00  0.00    -0.051 Br
HETATM   27  C11 UNL     1      -7.845  18.749  26.529  1.00  0.00     0.021 A 
HETATM   28  C12 UNL     1      -7.363  17.524  26.140  1.00  0.00     0.031 A 
ENDBRANCH   4  22
TORSDOF 6
ENDMDL
MODEL 3
REMARK VINA RESULT: -7.578395049      2.203      4.200
REMARK  6 active torsions:
REMARK  status: ('A' for Active; 'I' for Inactive)
REMARK    1  A    between atoms: C1_2  and  C2_4 
REMARK    2  A    between atoms: C2_4  and  N1_5 
REMARK       I    between atoms: N1_5  and  C3_6 
REMARK    3  A    between atoms: N1_5  and  C13_23 
REMARK    4  A    between atoms: C3_6  and  C4_8 
REMARK    5  A    between atoms: C4_8  and  N2_9 
REMARK    6  A    between atoms: N3_12  and  C7_13 
ROOT
HETATM    1  N2  UNL     1      -3.709  12.279  21.651  1.00  0.00    -0.242 N 
HETATM    2  C5  UNL     1      -5.083  12.485  21.722  1.00  0.00     0.104 C 
HETATM    3  C6  UNL     1      -5.846  11.242  21.501  1.00  0.00     0.189 C 
HETATM    4  N3  UNL     1      -5.092  10.287  20.747  1.00  0.00    -0.254 N 
HETATM    5  S1  UNL     1      -3.434  10.845  20.863  1.00  0.00     0.331 S 
HETATM    6  O4  UNL     1      -2.936  11.029  19.473  1.00  0.00    -0.181 OA
HETATM    7  O5  UNL     1      -2.604   9.836  21.554  1.00  0.00    -0.181 OA
ENDROOT
BRANCH   1   8
HETATM    8  C4  UNL     1      -2.798  12.872  22.498  1.00  0.00     0.184 C 
BRANCH   8   9
HETATM    9  C3  UNL     1      -2.043  12.028  23.412  1.00  0.00     0.265 C 
HETATM   10  N1  UNL     1      -2.650  11.349  24.520  1.00  0.00    -0.303 N 
HETATM   11  O3  UNL     1      -0.821  11.877  23.239  1.00  0.00    -0.266 OA
BRANCH  10  12
HETATM   12  C2  UNL     1      -4.047  11.415  24.798  1.00  0.00     0.245 C 
BRANCH  12  13
HETATM   13  C1  UNL     1      -4.510  12.723  25.320  1.00  0.00     0.192 C 
HETATM   14  O1  UNL     1      -5.697  13.117  25.197  1.00  0.00    -0.647 OA
HETATM   15  O2  UNL     1      -3.652  13.599  25.983  1.00  0.00    -0.647 OA
ENDBRANCH  12  13
ENDBRANCH  10  12
BRANCH  10  16
HETATM   16  C13 UNL     1      -1.848  10.523  25.383  1.00  0.00     0.038 A 
HETATM   17  C14 UNL     1      -2.437   9.967  26.529  1.00  0.00     0.030 A 
HETATM   18  C15 UNL     1      -1.702   9.188  27.358  1.00  0.00     0.002 A 
HETATM   19  C16 UNL     1      -0.371   8.891  27.147  1.00  0.00     0.000 A 
HETATM   20  C17 UNL     1       0.198   9.439  26.024  1.00  0.00     0.002 A 
HETATM   21  C18 UNL     1      -0.536  10.242  25.158  1.00  0.00     0.030 A 
ENDBRANCH  10  16
ENDBRANCH   8   9
ENDBRANCH   1   8
BRANCH   4  22
HETATM   22  C7  UNL     1      -5.497   9.139  20.045  1.00  0.00     0.046 A 
HETATM   23  C8  UNL     1      -4.612   8.379  19.313  1.00  0.00     0.031 A 
HETATM   24  C9  UNL     1      -5.001   7.256  18.627  1.00  0.00     0.021 A 
HETATM   25  C10 UNL     1      -6.309   6.853  18.652  1.00  0.00     0.011 A 
HETATM   26 BR1  UNL     1      -6.858   5.278  17.689  1.00  0.00    -0.051 Br
HETATM   27  C11 UNL     1      -7.215   7.593  19.375  1.00  0.00     0.021 A 
HETATM   28  C12 UNL     1      -6.811   8.714  20.057  1.00  0.00     0.031 A 
ENDBRANCH   4  22
TORSDOF 6
ENDMDL
MODEL 4
REMARK VINA RESULT: -7.522490250      3.724      8.688
REMARK  6 active torsions:
REMARK  status: ('A' for Active; 'I' for Inactive)
REMARK    1  A    between atoms: C1_2  and  C2_4 
REMARK    2  A    between atoms: C2_4  and  N1_5 
REMARK       I    between atoms: N1_5  and  C3_6 
REMARK    3  A    between atoms: N1_5  and  C13_23 
REMARK    4  A    between atoms: C3_6  and  C4_8 
REMARK    5  A    between atoms: C4_8  and  N2_9 
REMARK    6  A    between atoms: N3_12  and  C7_13 
ROOT
HETATM    1  N2  UNL     1      -4.743  12.355  22.076  1.00  0.00    -0.242 N 
HETATM    2  C5  UNL     1      -6.073  12.117  22.403  1.00  0.00     0.104 C 
HETATM    3  C6  UNL     1      -6.786  13.352  22.780  1.00  0.00     0.189 C 
HETATM    4  N3  UNL     1      -5.883  14.359  23.251  1.00  0.00    -0.254 N 
HETATM    5  S1  UNL     1      -4.306  13.831  22.695  1.00  0.00     0.331 S 
HETATM    6  O4  UNL     1      -3.432  13.726  23.895  1.00  0.00    -0.181 OA
HETATM    7  O5  UNL     1      -3.739  14.823  21.757  1.00  0.00    -0.181 OA
ENDROOT
BRANCH   1   8
HETATM    8  C4  UNL     1      -4.086  11.740  21.032  1.00  0.00     0.184 C 
BRANCH   8   9
HETATM    9  C3  UNL     1      -4.451  10.375  20.685  1.00  0.00     0.265 C 
HETATM   10  N1  UNL     1      -5.127  10.039  19.465  1.00  0.00    -0.303 N 
HETATM   11  O3  UNL     1      -4.173   9.449  21.467  1.00  0.00    -0.266 OA
BRANCH  10  12
HETATM   12  C2  UNL     1      -5.466  11.008  18.475  1.00  0.00     0.245 C 
BRANCH  12  13
HETATM   13  C1  UNL     1      -4.512  11.091  17.343  1.00  0.00     0.192 C 
HETATM   14  O1  UNL     1      -3.476  11.801  17.384  1.00  0.00    -0.647 OA
HETATM   15  O2  UNL     1      -4.708  10.382  16.159  1.00  0.00    -0.647 OA
ENDBRANCH  12  13
ENDBRANCH  10  12
BRANCH  10  16
HETATM   16  C13 UNL     1      -5.455   8.668  19.179  1.00  0.00     0.038 A 
HETATM   17  C14 UNL     1      -6.751   8.208  19.457  1.00  0.00     0.030 A 
HETATM   18  C15 UNL     1      -7.083   6.921  19.197  1.00  0.00     0.002 A 
HETATM   19  C16 UNL     1      -6.207   5.998  18.662  1.00  0.00     0.000 A 
HETATM   20  C17 UNL     1      -4.940   6.456  18.396  1.00  0.00     0.002 A 
HETATM   21  C18 UNL     1      -4.576   7.773  18.652  1.00  0.00     0.030 A 
ENDBRANCH  10  16
ENDBRANCH   8   9
ENDBRANCH   1   8
BRANCH   4  22
HETATM   22  C7  UNL     1      -6.113  15.531  23.991  1.00  0.00     0.046 A 
HETATM   23  C8  UNL     1      -6.279  15.513  25.358  1.00  0.00     0.031 A 
HETATM   24  C9  UNL     1      -6.504  16.654  26.086  1.00  0.00     0.021 A 
HETATM   25  C10 UNL     1      -6.570  17.869  25.457  1.00  0.00     0.011 A 
HETATM   26 BR1  UNL     1      -6.886  19.473  26.476  1.00  0.00    -0.051 Br
HETATM   27  C11 UNL     1      -6.407  17.918  24.093  1.00  0.00     0.021 A 
HETATM   28  C12 UNL     1      -6.183  16.768  23.378  1.00  0.00     0.031 A 
ENDBRANCH   4  22
TORSDOF 6
ENDMDL
MODEL 5
REMARK VINA RESULT: -7.454448754      3.724      8.706
REMARK  6 active torsions:
REMARK  status: ('A' for Active; 'I' for Inactive)
REMARK    1  A    between atoms: C1_2  and  C2_4 
REMARK    2  A    between atoms: C2_4  and  N1_5 
REMARK       I    between atoms: N1_5  and  C3_6 
REMARK    3  A    between atoms: N1_5  and  C13_23 
REMARK    4  A    between atoms: C3_6  and  C4_8 
REMARK    5  A    between atoms: C4_8  and  N2_9 
REMARK    6  A    between atoms: N3_12  and  C7_13 
ROOT
HETATM    1  N2  UNL     1      -4.838  12.340  22.073  1.00  0.00    -0.242 N 
HETATM    2  C5  UNL     1      -6.175  12.126  22.390  1.00  0.00     0.104 C 
HETATM    3  C6  UNL     1      -6.868  13.375  22.762  1.00  0.00     0.189 C 
HETATM    4  N3  UNL     1      -5.950  14.364  23.242  1.00  0.00    -0.254 N 
HETATM    5  S1  UNL     1      -4.379  13.808  22.697  1.00  0.00     0.331 S 
HETATM    6  O4  UNL     1      -3.517  13.686  23.904  1.00  0.00    -0.181 OA
HETATM    7  O5  UNL     1      -3.786  14.790  21.766  1.00  0.00    -0.181 OA
ENDROOT
BRANCH   1   8
HETATM    8  C4  UNL     1      -4.184  11.715  21.033  1.00  0.00     0.184 C 
BRANCH   8   9
HETATM    9  C3  UNL     1      -4.556  10.349  20.697  1.00  0.00     0.265 C 
HETATM   10  N1  UNL     1      -5.237  10.007  19.481  1.00  0.00    -0.303 N 
HETATM   11  O3  UNL     1      -4.279   9.427  21.485  1.00  0.00    -0.266 OA
BRANCH  10  12
HETATM   12  C2  UNL     1      -5.574  10.971  18.486  1.00  0.00     0.245 C 
BRANCH  12  13
HETATM   13  C1  UNL     1      -4.586  11.092  17.386  1.00  0.00     0.192 C 
HETATM   14  O1  UNL     1      -3.571  11.829  17.470  1.00  0.00    -0.647 OA
HETATM   15  O2  UNL     1      -4.725  10.393  16.189  1.00  0.00    -0.647 OA
ENDBRANCH  12  13
ENDBRANCH  10  12
BRANCH  10  16
HETATM   16  C13 UNL     1      -5.570   8.635  19.206  1.00  0.00     0.038 A 
HETATM   17  C14 UNL     1      -4.593   7.799  18.643  1.00  0.00     0.030 A 
HETATM   18  C15 UNL     1      -4.884   6.505  18.373  1.00  0.00     0.002 A 
HETATM   19  C16 UNL     1      -6.114   5.929  18.620  1.00  0.00     0.000 A 
HETATM   20  C17 UNL     1      -7.064   6.754  19.169  1.00  0.00     0.002 A 
HETATM   21  C18 UNL     1      -6.790   8.087  19.457  1.00  0.00     0.030 A 
ENDBRANCH  10  16
ENDBRANCH   8   9
ENDBRANCH   1   8
BRANCH   4  22
HETATM   22  C7  UNL     1      -6.165  15.539  23.981  1.00  0.00     0.046 A 
HETATM   23  C8  UNL     1      -6.251  16.776  23.381  1.00  0.00     0.031 A 
HETATM   24  C9  UNL     1      -6.462  17.927  24.097  1.00  0.00     0.021 A 
HETATM   25  C10 UNL     1      -6.594  17.876  25.459  1.00  0.00     0.011 A 
HETATM   26 BR1  UNL     1      -6.889  19.490  26.468  1.00  0.00    -0.051 Br
HETATM   27  C11 UNL     1      -6.513  16.654  26.086  1.00  0.00     0.021 A 
HETATM   28  C12 UNL     1      -6.302  15.511  25.356  1.00  0.00     0.031 A 
ENDBRANCH   4  22
TORSDOF 6
ENDMDL
