MODEL 1
REMARK VINA RESULT: -9.339587741      0.000      0.000
REMARK  6 active torsions:
REMARK  status: ('A' for Active; 'I' for Inactive)
REMARK    1  A    between atoms: C2_2  and  C4_4 
REMARK    2  A    between atoms: C4_4  and  N1_5 
REMARK    3  A    between atoms: C4_4  and  C12_17 
REMARK    4  A    between atoms: C12_17  and  C15_20 
REMARK       I    between atoms: C15_20  and  N2_22 
REMARK       I    between atoms: N2_22  and  C16_24 
REMARK    5  A    between atoms: C16_24  and  C17_26 
REMARK    6  A    between atoms: N3_29  and  N4_30 
ROOT
HETATM    1  C12 UNL     1      -2.873  11.336  21.703  1.00  0.00     0.074 C 
HETATM    2  C13 UNL     1      -2.018  10.715  20.683  1.00  0.00     0.031 C 
HETATM    3  C14 UNL     1      -2.599  12.846  21.779  1.00  0.00     0.031 C 
ENDROOT
BRANCH   1   4
HETATM    4  C4  UNL     1      -4.312  11.078  21.713  1.00  0.00     0.030 C 
BRANCH   4   5
HETATM    5  C2  UNL     1      -5.296  12.102  22.112  1.00  0.00     0.026 C 
HETATM    6  C1  UNL     1      -6.748  11.764  21.777  1.00  0.00     0.016 C 
HETATM    7  C3  UNL     1      -5.306  12.690  23.462  1.00  0.00     0.016 C 
ENDBRANCH   4   5
BRANCH   4   8
HETATM    8  N1  UNL     1      -4.809  10.304  20.554  1.00  0.00    -0.207 N 
HETATM    9  C5  UNL     1      -5.305   8.947  20.625  1.00  0.00     0.273 C 
HETATM   10  O1  UNL     1      -5.586   8.389  21.746  1.00  0.00    -0.266 OA
HETATM   11  C6  UNL     1      -5.450   8.315  19.364  1.00  0.00     0.056 A 
HETATM   12  C7  UNL     1      -5.773   6.971  19.104  1.00  0.00     0.018 A 
HETATM   13  C11 UNL     1      -5.132   9.044  18.282  1.00  0.00     0.096 A 
HETATM   14  C8  UNL     1      -5.757   6.446  17.839  1.00  0.00     0.001 A 
HETATM   15  C9  UNL     1      -5.425   7.203  16.746  1.00  0.00     0.002 A 
HETATM   16  C10 UNL     1      -5.111   8.530  17.015  1.00  0.00     0.026 A 
HETATM   17  S1  UNL     1      -4.946  10.700  18.913  1.00  0.00     0.272 S 
HETATM   18  O2  UNL     1      -3.778  11.296  18.256  1.00  0.00    -0.200 OA
HETATM   19  O3  UNL     1      -6.206  11.387  18.492  1.00  0.00    -0.200 OA
ENDBRANCH   4   8
ENDBRANCH   1   4
BRANCH   1  20
HETATM   20  C15 UNL     1      -2.289  10.907  23.033  1.00  0.00     0.238 C 
HETATM   21  O4  UNL     1      -2.899  10.188  23.852  1.00  0.00    -0.272 OA
HETATM   22  N2  UNL     1      -0.985  11.304  23.434  1.00  0.00    -0.292 N 
HETATM   23  C16 UNL     1      -0.378  10.942  24.640  1.00  0.00     0.258 C 
ATOM     24  H2  UNL     1      -0.453  11.895  22.796  1.00  0.00     0.172 HD
HETATM   25  O5  UNL     1       0.784  11.360  24.884  1.00  0.00    -0.267 OA
BRANCH  23  26
HETATM   26  C17 UNL     1      -0.979  10.114  25.658  1.00  0.00     0.035 A 
HETATM   27  C18 UNL     1      -0.437   8.881  25.950  1.00  0.00     0.036 A 
HETATM   28  C19 UNL     1      -0.992   8.063  26.925  1.00  0.00     0.119 A 
HETATM   29  N3  UNL     1      -2.074   8.483  27.589  1.00  0.00    -0.255 N 
HETATM   30  C20 UNL     1      -2.645   9.688  27.340  1.00  0.00     0.119 A 
HETATM   31  C21 UNL     1      -2.089  10.513  26.360  1.00  0.00     0.036 A 
BRANCH  29  32
HETATM   32  N4  UNL     1      -2.685   7.709  28.586  1.00  0.00    -0.159 N 
HETATM   33  F1  UNL     1      -3.908   7.178  28.439  1.00  0.00    -0.084 F 
ATOM     34  H4  UNL     1      -2.180   7.542  29.456  1.00  0.00     0.222 HD
ENDBRANCH  29  32
ENDBRANCH  23  26
ENDBRANCH   1  20
TORSDOF 6
ENDMDL
MODEL 2
REMARK VINA RESULT: -9.316415877      1.139      1.447
REMARK  6 active torsions:
REMARK  status: ('A' for Active; 'I' for Inactive)
REMARK    1  A    between atoms: C2_2  and  C4_4 
REMARK    2  A    between atoms: C4_4  and  N1_5 
REMARK    3  A    between atoms: C4_4  and  C12_17 
REMARK    4  A    between atoms: C12_17  and  C15_20 
REMARK       I    between atoms: C15_20  and  N2_22 
REMARK       I    between atoms: N2_22  and  C16_24 
REMARK    5  A    between atoms: C16_24  and  C17_26 
REMARK    6  A    between atoms: N3_29  and  N4_30 
ROOT
HETATM    1  C12 UNL     1      -3.462  11.306  21.546  1.00  0.00     0.074 C 
HETATM    2  C13 UNL     1      -2.894  10.473  20.478  1.00  0.00     0.031 C 
HETATM    3  C14 UNL     1      -3.021  12.769  21.370  1.00  0.00     0.031 C 
ENDROOT
BRANCH   1   4
HETATM    4  C4  UNL     1      -4.890  11.238  21.853  1.00  0.00     0.030 C 
BRANCH   4   5
HETATM    5  C2  UNL     1      -5.626  12.370  22.446  1.00  0.00     0.026 C 
HETATM    6  C1  UNL     1      -7.090  12.084  22.776  1.00  0.00     0.016 C 
HETATM    7  C3  UNL     1      -5.087  13.143  23.578  1.00  0.00     0.016 C 
ENDBRANCH   4   5
BRANCH   4   8
HETATM    8  N1  UNL     1      -5.712  10.568  20.821  1.00  0.00    -0.207 N 
HETATM    9  C5  UNL     1      -6.030   9.157  20.816  1.00  0.00     0.273 C 
HETATM   10  O1  UNL     1      -5.831   8.415  21.844  1.00  0.00    -0.266 OA
HETATM   11  C6  UNL     1      -6.576   8.690  19.593  1.00  0.00     0.056 A 
HETATM   12  C7  UNL     1      -6.857   7.361  19.225  1.00  0.00     0.018 A 
HETATM   13  C11 UNL     1      -6.742   9.598  18.618  1.00  0.00     0.096 A 
HETATM   14  C8  UNL     1      -7.265   7.023  17.961  1.00  0.00     0.001 A 
HETATM   15  C9  UNL     1      -7.424   7.963  16.977  1.00  0.00     0.002 A 
HETATM   16  C10 UNL     1      -7.146   9.272  17.354  1.00  0.00     0.026 A 
HETATM   17  S1  UNL     1      -6.476  11.161  19.432  1.00  0.00     0.272 S 
HETATM   18  O2  UNL     1      -5.688  12.004  18.527  1.00  0.00    -0.200 OA
HETATM   19  O3  UNL     1      -7.857  11.711  19.609  1.00  0.00    -0.200 OA
ENDBRANCH   4   8
ENDBRANCH   1   4
BRANCH   1  20
HETATM   20  C15 UNL     1      -2.676  10.955  22.792  1.00  0.00     0.238 C 
HETATM   21  O4  UNL     1      -3.103  10.190  23.681  1.00  0.00    -0.272 OA
HETATM   22  N2  UNL     1      -1.378  11.484  23.025  1.00  0.00    -0.292 N 
HETATM   23  C16 UNL     1      -0.591  11.200  24.145  1.00  0.00     0.258 C 
ATOM     24  H2  UNL     1      -0.991  12.116  22.325  1.00  0.00     0.172 HD
HETATM   25  O5  UNL     1       0.545  11.734  24.239  1.00  0.00    -0.267 OA
BRANCH  23  26
HETATM   26  C17 UNL     1      -0.973  10.329  25.231  1.00  0.00     0.035 A 
HETATM   27  C18 UNL     1      -2.014  10.681  26.062  1.00  0.00     0.036 A 
HETATM   28  C19 UNL     1      -2.405   9.862  27.113  1.00  0.00     0.119 A 
HETATM   29  N3  UNL     1      -1.754   8.712  27.319  1.00  0.00    -0.255 N 
HETATM   30  C20 UNL     1      -0.724   8.320  26.529  1.00  0.00     0.119 A 
HETATM   31  C21 UNL     1      -0.329   9.141  25.472  1.00  0.00     0.036 A 
BRANCH  29  32
HETATM   32  N4  UNL     1      -2.096   7.838  28.361  1.00  0.00    -0.159 N 
HETATM   33  F1  UNL     1      -1.267   6.879  28.800  1.00  0.00    -0.084 F 
ATOM     34  H4  UNL     1      -3.011   7.935  28.802  1.00  0.00     0.222 HD
ENDBRANCH  29  32
ENDBRANCH  23  26
ENDBRANCH   1  20
TORSDOF 6
ENDMDL
MODEL 3
REMARK VINA RESULT: -8.988083542      2.690      5.037
REMARK  6 active torsions:
REMARK  status: ('A' for Active; 'I' for Inactive)
REMARK    1  A    between atoms: C2_2  and  C4_4 
REMARK    2  A    between atoms: C4_4  and  N1_5 
REMARK    3  A    between atoms: C4_4  and  C12_17 
REMARK    4  A    between atoms: C12_17  and  C15_20 
REMARK       I    between atoms: C15_20  and  N2_22 
REMARK       I    between atoms: N2_22  and  C16_24 
REMARK    5  A    between atoms: C16_24  and  C17_26 
REMARK    6  A    between atoms: N3_29  and  N4_30 
ROOT
HETATM    1  C12 UNL     1      -3.139  11.192  21.631  1.00  0.00     0.074 C 
HETATM    2  C13 UNL     1      -4.451  10.535  21.659  1.00  0.00     0.031 C 
HETATM    3  C14 UNL     1      -2.199  10.462  20.658  1.00  0.00     0.031 C 
ENDROOT
BRANCH   1   4
HETATM    4  C4  UNL     1      -3.044  12.639  21.440  1.00  0.00     0.030 C 
BRANCH   4   5
HETATM    5  C2  UNL     1      -2.752  13.246  20.128  1.00  0.00     0.026 C 
HETATM    6  C1  UNL     1      -1.270  13.492  19.848  1.00  0.00     0.016 C 
HETATM    7  C3  UNL     1      -3.330  12.719  18.879  1.00  0.00     0.016 C 
ENDBRANCH   4   5
BRANCH   4   8
HETATM    8  N1  UNL     1      -4.071  13.425  22.159  1.00  0.00    -0.207 N 
HETATM    9  C5  UNL     1      -3.991  13.798  23.554  1.00  0.00     0.273 C 
HETATM   10  O1  UNL     1      -2.900  13.687  24.221  1.00  0.00    -0.266 OA
HETATM   11  C6  UNL     1      -5.206  14.289  24.095  1.00  0.00     0.056 A 
HETATM   12  C7  UNL     1      -5.490  14.600  25.437  1.00  0.00     0.018 A 
HETATM   13  C11 UNL     1      -6.254  14.362  23.258  1.00  0.00     0.096 A 
HETATM   14  C8  UNL     1      -6.748  14.946  25.857  1.00  0.00     0.001 A 
HETATM   15  C9  UNL     1      -7.807  15.011  24.991  1.00  0.00     0.002 A 
HETATM   16  C10 UNL     1      -7.513  14.704  23.667  1.00  0.00     0.026 A 
HETATM   17  S1  UNL     1      -5.545  14.084  21.648  1.00  0.00     0.272 S 
HETATM   18  O2  UNL     1      -6.460  13.212  20.905  1.00  0.00    -0.200 OA
HETATM   19  O3  UNL     1      -5.494  15.450  21.038  1.00  0.00    -0.200 OA
ENDBRANCH   4   8
ENDBRANCH   1   4
BRANCH   1  20
HETATM   20  C15 UNL     1      -2.477  10.827  22.943  1.00  0.00     0.238 C 
HETATM   21  O4  UNL     1      -3.020  10.116  23.813  1.00  0.00    -0.272 OA
HETATM   22  N2  UNL     1      -1.169  11.281  23.266  1.00  0.00    -0.292 N 
HETATM   23  C16 UNL     1      -0.492  10.980  24.451  1.00  0.00     0.258 C 
ATOM     24  H2  UNL     1      -0.690  11.869  22.584  1.00  0.00     0.172 HD
HETATM   25  O5  UNL     1       0.666  11.445  24.623  1.00  0.00    -0.267 OA
BRANCH  23  26
HETATM   26  C17 UNL     1      -1.012  10.166  25.522  1.00  0.00     0.035 A 
HETATM   27  C18 UNL     1      -0.425   8.954  25.814  1.00  0.00     0.036 A 
HETATM   28  C19 UNL     1      -0.903   8.150  26.840  1.00  0.00     0.119 A 
HETATM   29  N3  UNL     1      -1.954   8.563  27.555  1.00  0.00    -0.255 N 
HETATM   30  C20 UNL     1      -2.568   9.747  27.309  1.00  0.00     0.119 A 
HETATM   31  C21 UNL     1      -2.090  10.558  26.278  1.00  0.00     0.036 A 
BRANCH  29  32
HETATM   32  N4  UNL     1      -2.488   7.802  28.605  1.00  0.00    -0.159 N 
HETATM   33  F1  UNL     1      -3.632   7.110  28.486  1.00  0.00    -0.084 F 
ATOM     34  H4  UNL     1      -1.987   7.773  29.493  1.00  0.00     0.222 HD
ENDBRANCH  29  32
ENDBRANCH  23  26
ENDBRANCH   1  20
TORSDOF 6
ENDMDL
MODEL 4
REMARK VINA RESULT: -8.917146451      1.462      1.634
REMARK  6 active torsions:
REMARK  status: ('A' for Active; 'I' for Inactive)
REMARK    1  A    between atoms: C2_2  and  C4_4 
REMARK    2  A    between atoms: C4_4  and  N1_5 
REMARK    3  A    between atoms: C4_4  and  C12_17 
REMARK    4  A    between atoms: C12_17  and  C15_20 
REMARK       I    between atoms: C15_20  and  N2_22 
REMARK       I    between atoms: N2_22  and  C16_24 
REMARK    5  A    between atoms: C16_24  and  C17_26 
REMARK    6  A    between atoms: N3_29  and  N4_30 
ROOT
HETATM    1  C12 UNL     1      -3.750  11.373  21.483  1.00  0.00     0.074 C 
HETATM    2  C13 UNL     1      -2.815  10.614  20.643  1.00  0.00     0.031 C 
HETATM    3  C14 UNL     1      -3.501  12.882  21.326  1.00  0.00     0.031 C 
ENDROOT
BRANCH   1   4
HETATM    4  C4  UNL     1      -5.183  11.086  21.435  1.00  0.00     0.030 C 
BRANCH   4   5
HETATM    5  C2  UNL     1      -6.205  12.132  21.623  1.00  0.00     0.026 C 
HETATM    6  C1  UNL     1      -7.363  12.086  20.627  1.00  0.00     0.016 C 
HETATM    7  C3  UNL     1      -6.801  12.412  22.941  1.00  0.00     0.016 C 
ENDBRANCH   4   5
BRANCH   4   8
HETATM    8  N1  UNL     1      -5.589  10.149  20.364  1.00  0.00    -0.207 N 
HETATM    9  C5  UNL     1      -6.312   8.915  20.584  1.00  0.00     0.273 C 
HETATM   10  O1  UNL     1      -6.878   8.655  21.706  1.00  0.00    -0.266 OA
HETATM   11  C6  UNL     1      -6.335   8.048  19.463  1.00  0.00     0.056 A 
HETATM   12  C7  UNL     1      -6.828   6.732  19.399  1.00  0.00     0.018 A 
HETATM   13  C11 UNL     1      -5.711   8.477  18.353  1.00  0.00     0.096 A 
HETATM   14  C8  UNL     1      -6.677   5.947  18.286  1.00  0.00     0.001 A 
HETATM   15  C9  UNL     1      -6.033   6.399  17.165  1.00  0.00     0.002 A 
HETATM   16  C10 UNL     1      -5.552   7.701  17.239  1.00  0.00     0.026 A 
HETATM   17  S1  UNL     1      -5.363  10.192  18.687  1.00  0.00     0.272 S 
HETATM   18  O2  UNL     1      -4.014  10.476  18.187  1.00  0.00    -0.200 OA
HETATM   19  O3  UNL     1      -6.394  10.928  17.890  1.00  0.00    -0.200 OA
ENDBRANCH   4   8
ENDBRANCH   1   4
BRANCH   1  20
HETATM   20  C15 UNL     1      -3.260  11.184  22.903  1.00  0.00     0.238 C 
HETATM   21  O4  UNL     1      -2.794  10.108  23.333  1.00  0.00    -0.272 OA
HETATM   22  N2  UNL     1      -3.299  12.244  23.850  1.00  0.00    -0.292 N 
HETATM   23  C16 UNL     1      -2.860  12.147  25.173  1.00  0.00     0.258 C 
ATOM     24  H2  UNL     1      -3.675  13.140  23.541  1.00  0.00     0.172 HD
HETATM   25  O5  UNL     1      -2.949  13.158  25.917  1.00  0.00    -0.267 OA
BRANCH  23  26
HETATM   26  C17 UNL     1      -2.299  10.963  25.778  1.00  0.00     0.035 A 
HETATM   27  C18 UNL     1      -1.035  10.542  25.427  1.00  0.00     0.036 A 
HETATM   28  C19 UNL     1      -0.470   9.408  25.994  1.00  0.00     0.119 A 
HETATM   29  N3  UNL     1      -1.169   8.713  26.898  1.00  0.00    -0.255 N 
HETATM   30  C20 UNL     1      -2.417   9.086  27.278  1.00  0.00     0.119 A 
HETATM   31  C21 UNL     1      -2.988  10.226  26.710  1.00  0.00     0.036 A 
BRANCH  29  32
HETATM   32  N4  UNL     1      -0.660   7.560  27.510  1.00  0.00    -0.159 N 
HETATM   33  F1  UNL     1      -0.532   6.393  26.859  1.00  0.00    -0.084 F 
ATOM     34  H4  UNL     1      -0.374   7.610  28.488  1.00  0.00     0.222 HD
ENDBRANCH  29  32
ENDBRANCH  23  26
ENDBRANCH   1  20
TORSDOF 6
ENDMDL
MODEL 5
REMARK VINA RESULT: -8.860914012      3.542      7.396
REMARK  6 active torsions:
REMARK  status: ('A' for Active; 'I' for Inactive)
REMARK    1  A    between atoms: C2_2  and  C4_4 
REMARK    2  A    between atoms: C4_4  and  N1_5 
REMARK    3  A    between atoms: C4_4  and  C12_17 
REMARK    4  A    between atoms: C12_17  and  C15_20 
REMARK       I    between atoms: C15_20  and  N2_22 
REMARK       I    between atoms: N2_22  and  C16_24 
REMARK    5  A    between atoms: C16_24  and  C17_26 
REMARK    6  A    between atoms: N3_29  and  N4_30 
ROOT
HETATM    1  C12 UNL     1      -6.575  12.040  21.390  1.00  0.00     0.074 C 
HETATM    2  C13 UNL     1      -7.083  11.322  22.566  1.00  0.00     0.031 C 
HETATM    3  C14 UNL     1      -7.733  12.718  20.640  1.00  0.00     0.031 C 
ENDROOT
BRANCH   1   4
HETATM    4  C4  UNL     1      -5.445  12.959  21.519  1.00  0.00     0.030 C 
BRANCH   4   5
HETATM    5  C2  UNL     1      -5.611  14.424  21.503  1.00  0.00     0.026 C 
HETATM    6  C1  UNL     1      -6.474  14.986  22.633  1.00  0.00     0.016 C 
HETATM    7  C3  UNL     1      -4.465  15.338  21.361  1.00  0.00     0.016 C 
ENDBRANCH   4   5
BRANCH   4   8
HETATM    8  N1  UNL     1      -4.438  12.561  22.529  1.00  0.00    -0.207 N 
HETATM    9  C5  UNL     1      -3.238  11.808  22.239  1.00  0.00     0.273 C 
HETATM   10  O1  UNL     1      -2.823  11.636  21.037  1.00  0.00    -0.266 OA
HETATM   11  C6  UNL     1      -2.582  11.297  23.387  1.00  0.00     0.056 A 
HETATM   12  C7  UNL     1      -1.483  10.419  23.434  1.00  0.00     0.018 A 
HETATM   13  C11 UNL     1      -3.133  11.583  24.577  1.00  0.00     0.096 A 
HETATM   14  C8  UNL     1      -1.017   9.893  24.610  1.00  0.00     0.001 A 
HETATM   15  C9  UNL     1      -1.596  10.192  25.815  1.00  0.00     0.002 A 
HETATM   16  C10 UNL     1      -2.678  11.062  25.756  1.00  0.00     0.026 A 
HETATM   17  S1  UNL     1      -4.360  12.820  24.200  1.00  0.00     0.272 S 
HETATM   18  O2  UNL     1      -5.555  12.516  24.995  1.00  0.00    -0.200 OA
HETATM   19  O3  UNL     1      -3.728  14.099  24.652  1.00  0.00    -0.200 OA
ENDBRANCH   4   8
ENDBRANCH   1   4
BRANCH   1  20
HETATM   20  C15 UNL     1      -6.219  10.965  20.384  1.00  0.00     0.238 C 
HETATM   21  O4  UNL     1      -6.643   9.793  20.451  1.00  0.00    -0.272 OA
HETATM   22  N2  UNL     1      -5.365  11.235  19.280  1.00  0.00    -0.292 N 
HETATM   23  C16 UNL     1      -4.999  10.298  18.310  1.00  0.00     0.258 C 
ATOM     24  H2  UNL     1      -4.993  12.180  19.189  1.00  0.00     0.172 HD
HETATM   25  O5  UNL     1      -4.232  10.658  17.378  1.00  0.00    -0.267 OA
BRANCH  23  26
HETATM   26  C17 UNL     1      -5.430   8.921  18.278  1.00  0.00     0.035 A 
HETATM   27  C18 UNL     1      -4.574   7.922  18.688  1.00  0.00     0.036 A 
HETATM   28  C19 UNL     1      -4.962   6.589  18.670  1.00  0.00     0.119 A 
HETATM   29  N3  UNL     1      -6.190   6.273  18.245  1.00  0.00    -0.255 N 
HETATM   30  C20 UNL     1      -7.070   7.219  17.831  1.00  0.00     0.119 A 
HETATM   31  C21 UNL     1      -6.683   8.560  17.848  1.00  0.00     0.036 A 
BRANCH  29  32
HETATM   32  N4  UNL     1      -6.647   4.949  18.201  1.00  0.00    -0.159 N 
HETATM   33  F1  UNL     1      -7.422   4.485  17.208  1.00  0.00    -0.084 F 
ATOM     34  H4  UNL     1      -6.380   4.313  18.952  1.00  0.00     0.222 HD
ENDBRANCH  29  32
ENDBRANCH  23  26
ENDBRANCH   1  20
TORSDOF 6
ENDMDL
