MODEL 1
REMARK VINA RESULT: -7.613282062      0.000      0.000
REMARK  14 active torsions:
REMARK  status: ('A' for Active; 'I' for Inactive)
REMARK    1  A    between atoms: C2_2  and  C3_3 
REMARK    2  A    between atoms: C3_3  and  C5_5 
REMARK    3  A    between atoms: C5_5  and  N1_6 
REMARK    4  A    between atoms: C5_5  and  C11_15 
REMARK       I    between atoms: N1_6  and  C6_8 
REMARK    5  A    between atoms: C6_8  and  O2_10 
REMARK    6  A    between atoms: O2_10  and  C7_11 
REMARK       I    between atoms: C11_15  and  N2_17 
REMARK    7  A    between atoms: N2_17  and  C12_19 
REMARK    8  A    between atoms: C12_19  and  C13_20 
REMARK    9  A    between atoms: C12_19  and  C20_33 
REMARK       I    between atoms: C13_20  and  N3_22 
REMARK   10  A    between atoms: N3_22  and  C14_24 
REMARK   11  A    between atoms: C14_24  and  C15_25 
REMARK   12  A    between atoms: C14_24  and  C18_28 
REMARK   13  A    between atoms: C18_28  and  O5_29 
REMARK   14  A    between atoms: C18_28  and  O6_31 
ROOT
HETATM    1  C11 UNL     1      13.456  14.016  33.717  1.00  0.00     0.241 C 
HETATM    2  O3  UNL     1      12.355  13.824  33.093  1.00  0.00    -0.271 OA
HETATM    3  N2  UNL     1      14.393  14.939  33.181  1.00  0.00    -0.345 N 
ATOM      4  H2  UNL     1      15.275  15.107  33.664  1.00  0.00     0.163 HD
ENDROOT
BRANCH   3   5
HETATM    5  C12 UNL     1      14.097  15.653  31.930  1.00  0.00     0.184 C 
BRANCH   5   6
HETATM    6  C13 UNL     1      14.035  17.099  32.176  1.00  0.00     0.241 C 
HETATM    7  O4  UNL     1      14.362  17.502  33.347  1.00  0.00    -0.271 OA
HETATM    8  N3  UNL     1      13.654  18.106  31.276  1.00  0.00    -0.350 N 
ATOM      9  H3  UNL     1      13.383  17.839  30.330  1.00  0.00     0.163 HD
BRANCH   8  10
HETATM   10  C14 UNL     1      13.630  19.525  31.640  1.00  0.00     0.142 C 
BRANCH  10  11
HETATM   11  C15 UNL     1      14.759  20.241  31.017  1.00  0.00     0.005 C 
HETATM   12  C16 UNL     1      15.098  19.737  29.635  1.00  0.00     0.012 C 
HETATM   13  C17 UNL     1      16.017  20.299  31.820  1.00  0.00     0.012 C 
ENDBRANCH  10  11
BRANCH  10  14
HETATM   14  C18 UNL     1      12.264  20.059  31.293  1.00  0.00     0.279 C 
BRANCH  14  15
HETATM   15  O5  UNL     1      11.361  19.966  32.351  1.00  0.00    -0.369 OA
ATOM     16  H5  UNL     1      10.727  20.673  32.359  1.00  0.00     0.212 HD
ENDBRANCH  14  15
BRANCH  14  17
HETATM   17  O6  UNL     1      12.272  21.289  30.688  1.00  0.00    -0.364 OA
HETATM   18  C19 UNL     1      11.731  21.273  29.427  1.00  0.00     0.204 C 
ENDBRANCH  14  17
ENDBRANCH  10  14
ENDBRANCH   8  10
ENDBRANCH   5   6
BRANCH   5  19
HETATM   19  C20 UNL     1      15.191  15.324  30.940  1.00  0.00    -0.022 C 
HETATM   20  C21 UNL     1      14.836  15.870  29.578  1.00  0.00     0.017 C 
HETATM   21  C22 UNL     1      16.519  15.960  31.420  1.00  0.00     0.017 C 
HETATM   22  C23 UNL     1      15.482  13.871  30.825  1.00  0.00     0.017 C 
ENDBRANCH   5  19
ENDBRANCH   3   5
BRANCH   1  23
HETATM   23  C5  UNL     1      13.705  13.280  34.958  1.00  0.00     0.182 C 
BRANCH  23  24
HETATM   24  C3  UNL     1      15.077  13.556  35.543  1.00  0.00     0.013 C 
HETATM   25  C4  UNL     1      15.120  13.442  37.027  1.00  0.00     0.012 C 
BRANCH  24  26
HETATM   26  C2  UNL     1      16.126  12.647  34.952  1.00  0.00     0.002 C 
HETATM   27  C1  UNL     1      17.213  13.519  34.357  1.00  0.00     0.005 C 
ENDBRANCH  24  26
ENDBRANCH  23  24
BRANCH  23  28
HETATM   28  N1  UNL     1      12.658  13.407  35.930  1.00  0.00    -0.323 N 
HETATM   29  C6  UNL     1      11.788  12.355  36.332  1.00  0.00     0.362 C 
HETATM   30  O1  UNL     1      11.926  11.220  35.812  1.00  0.00    -0.238 OA
ATOM     31  H1  UNL     1      12.527  14.320  36.365  1.00  0.00     0.165 HD
BRANCH  29  32
HETATM   32  O2  UNL     1      10.812  12.548  37.264  1.00  0.00    -0.294 OA
BRANCH  32  33
HETATM   33  C7  UNL     1      10.908  12.213  38.631  1.00  0.00     0.061 C 
HETATM   34  C8  UNL     1      10.567  10.794  38.936  1.00  0.00     0.046 C 
HETATM   35  C9  UNL     1       9.872  13.098  39.332  1.00  0.00     0.046 C 
HETATM   36  C10 UNL     1      12.249  12.540  39.235  1.00  0.00     0.046 C 
ENDBRANCH  32  33
ENDBRANCH  29  32
ENDBRANCH  23  28
ENDBRANCH   1  23
TORSDOF 14
ENDMDL
MODEL 2
REMARK VINA RESULT: -7.578750219      1.125      1.475
REMARK  14 active torsions:
REMARK  status: ('A' for Active; 'I' for Inactive)
REMARK    1  A    between atoms: C2_2  and  C3_3 
REMARK    2  A    between atoms: C3_3  and  C5_5 
REMARK    3  A    between atoms: C5_5  and  N1_6 
REMARK    4  A    between atoms: C5_5  and  C11_15 
REMARK       I    between atoms: N1_6  and  C6_8 
REMARK    5  A    between atoms: C6_8  and  O2_10 
REMARK    6  A    between atoms: O2_10  and  C7_11 
REMARK       I    between atoms: C11_15  and  N2_17 
REMARK    7  A    between atoms: N2_17  and  C12_19 
REMARK    8  A    between atoms: C12_19  and  C13_20 
REMARK    9  A    between atoms: C12_19  and  C20_33 
REMARK       I    between atoms: C13_20  and  N3_22 
REMARK   10  A    between atoms: N3_22  and  C14_24 
REMARK   11  A    between atoms: C14_24  and  C15_25 
REMARK   12  A    between atoms: C14_24  and  C18_28 
REMARK   13  A    between atoms: C18_28  and  O5_29 
REMARK   14  A    between atoms: C18_28  and  O6_31 
ROOT
HETATM    1  C11 UNL     1      13.392  13.824  33.624  1.00  0.00     0.241 C 
HETATM    2  O3  UNL     1      12.344  13.606  32.924  1.00  0.00    -0.271 OA
HETATM    3  N2  UNL     1      14.316  14.809  33.182  1.00  0.00    -0.345 N 
ATOM      4  H2  UNL     1      15.156  14.999  33.728  1.00  0.00     0.163 HD
ENDROOT
BRANCH   3   5
HETATM    5  C12 UNL     1      14.064  15.556  31.941  1.00  0.00     0.184 C 
BRANCH   5   6
HETATM    6  C13 UNL     1      14.008  16.996  32.221  1.00  0.00     0.241 C 
HETATM    7  O4  UNL     1      14.309  17.369  33.408  1.00  0.00    -0.271 OA
HETATM    8  N3  UNL     1      13.657  18.028  31.336  1.00  0.00    -0.350 N 
ATOM      9  H3  UNL     1      13.406  17.786  30.377  1.00  0.00     0.163 HD
BRANCH   8  10
HETATM   10  C14 UNL     1      13.634  19.438  31.734  1.00  0.00     0.142 C 
BRANCH  10  11
HETATM   11  C15 UNL     1      14.789  20.158  31.164  1.00  0.00     0.005 C 
HETATM   12  C16 UNL     1      15.155  19.696  29.773  1.00  0.00     0.012 C 
HETATM   13  C17 UNL     1      16.028  20.168  31.998  1.00  0.00     0.012 C 
ENDBRANCH  10  11
BRANCH  10  14
HETATM   14  C18 UNL     1      12.285  19.994  31.358  1.00  0.00     0.279 C 
BRANCH  14  15
HETATM   15  O5  UNL     1      11.355  19.903  32.392  1.00  0.00    -0.369 OA
ATOM     16  H5  UNL     1      10.625  20.502  32.286  1.00  0.00     0.212 HD
ENDBRANCH  14  15
BRANCH  14  17
HETATM   17  O6  UNL     1      12.325  21.230  30.766  1.00  0.00    -0.364 OA
HETATM   18  C19 UNL     1      11.800  21.237  29.497  1.00  0.00     0.204 C 
ENDBRANCH  14  17
ENDBRANCH  10  14
ENDBRANCH   8  10
ENDBRANCH   5   6
BRANCH   5  19
HETATM   19  C20 UNL     1      15.185  15.241  30.977  1.00  0.00    -0.022 C 
HETATM   20  C21 UNL     1      14.874  15.816  29.617  1.00  0.00     0.017 C 
HETATM   21  C22 UNL     1      16.502  15.859  31.509  1.00  0.00     0.017 C 
HETATM   22  C23 UNL     1      15.472  13.789  30.841  1.00  0.00     0.017 C 
ENDBRANCH   5  19
ENDBRANCH   3   5
BRANCH   1  23
HETATM   23  C5  UNL     1      13.598  13.054  34.852  1.00  0.00     0.182 C 
BRANCH  23  24
HETATM   24  C3  UNL     1      14.829  13.489  35.622  1.00  0.00     0.013 C 
HETATM   25  C4  UNL     1      14.744  13.204  37.082  1.00  0.00     0.012 C 
BRANCH  24  26
HETATM   26  C2  UNL     1      16.083  12.855  35.073  1.00  0.00     0.002 C 
HETATM   27  C1  UNL     1      17.069  13.964  34.771  1.00  0.00     0.005 C 
ENDBRANCH  24  26
ENDBRANCH  23  24
BRANCH  23  28
HETATM   28  N1  UNL     1      12.433  12.961  35.683  1.00  0.00    -0.323 N 
HETATM   29  C6  UNL     1      11.598  11.815  35.790  1.00  0.00     0.362 C 
HETATM   30  O1  UNL     1      11.880  10.792  35.118  1.00  0.00    -0.238 OA
ATOM     31  H1  UNL     1      12.184  13.780  36.238  1.00  0.00     0.165 HD
BRANCH  29  32
HETATM   32  O2  UNL     1      10.503  11.797  36.603  1.00  0.00    -0.294 OA
BRANCH  32  33
HETATM   33  C7  UNL     1       9.236  12.326  36.280  1.00  0.00     0.061 C 
HETATM   34  C8  UNL     1       9.159  13.813  36.358  1.00  0.00     0.046 C 
HETATM   35  C9  UNL     1       8.285  11.759  37.339  1.00  0.00     0.046 C 
HETATM   36  C10 UNL     1       8.722  11.874  34.938  1.00  0.00     0.046 C 
ENDBRANCH  32  33
ENDBRANCH  29  32
ENDBRANCH  23  28
ENDBRANCH   1  23
TORSDOF 14
ENDMDL
MODEL 3
REMARK VINA RESULT: -7.535374537      1.792      2.471
REMARK  14 active torsions:
REMARK  status: ('A' for Active; 'I' for Inactive)
REMARK    1  A    between atoms: C2_2  and  C3_3 
REMARK    2  A    between atoms: C3_3  and  C5_5 
REMARK    3  A    between atoms: C5_5  and  N1_6 
REMARK    4  A    between atoms: C5_5  and  C11_15 
REMARK       I    between atoms: N1_6  and  C6_8 
REMARK    5  A    between atoms: C6_8  and  O2_10 
REMARK    6  A    between atoms: O2_10  and  C7_11 
REMARK       I    between atoms: C11_15  and  N2_17 
REMARK    7  A    between atoms: N2_17  and  C12_19 
REMARK    8  A    between atoms: C12_19  and  C13_20 
REMARK    9  A    between atoms: C12_19  and  C20_33 
REMARK       I    between atoms: C13_20  and  N3_22 
REMARK   10  A    between atoms: N3_22  and  C14_24 
REMARK   11  A    between atoms: C14_24  and  C15_25 
REMARK   12  A    between atoms: C14_24  and  C18_28 
REMARK   13  A    between atoms: C18_28  and  O5_29 
REMARK   14  A    between atoms: C18_28  and  O6_31 
ROOT
HETATM    1  C11 UNL     1      15.004  15.071  32.593  1.00  0.00     0.241 C 
HETATM    2  O3  UNL     1      14.466  14.911  31.443  1.00  0.00    -0.271 OA
HETATM    3  N2  UNL     1      15.868  16.182  32.794  1.00  0.00    -0.345 N 
ATOM      4  H2  UNL     1      16.304  16.328  33.704  1.00  0.00     0.163 HD
ENDROOT
BRANCH   3   5
HETATM    5  C12 UNL     1      16.135  17.121  31.694  1.00  0.00     0.184 C 
BRANCH   5   6
HETATM    6  C13 UNL     1      15.268  18.299  31.815  1.00  0.00     0.241 C 
HETATM    7  O4  UNL     1      14.839  18.587  32.987  1.00  0.00    -0.271 OA
HETATM    8  N3  UNL     1      14.842  19.158  30.790  1.00  0.00    -0.350 N 
ATOM      9  H3  UNL     1      15.154  18.974  29.837  1.00  0.00     0.163 HD
BRANCH   8  10
HETATM   10  C14 UNL     1      13.968  20.309  31.034  1.00  0.00     0.142 C 
BRANCH  10  11
HETATM   11  C15 UNL     1      14.531  21.528  30.421  1.00  0.00     0.005 C 
HETATM   12  C16 UNL     1      15.166  21.282  29.074  1.00  0.00     0.012 C 
HETATM   13  C17 UNL     1      15.496  22.296  31.264  1.00  0.00     0.012 C 
ENDBRANCH  10  11
BRANCH  10  14
HETATM   14  C18 UNL     1      12.586  19.938  30.564  1.00  0.00     0.279 C 
BRANCH  14  15
HETATM   15  O5  UNL     1      11.847  21.037  30.132  1.00  0.00    -0.369 OA
ATOM     16  H5  UNL     1      10.937  20.826  29.959  1.00  0.00     0.212 HD
ENDBRANCH  14  15
BRANCH  14  17
HETATM   17  O6  UNL     1      12.546  18.877  29.696  1.00  0.00    -0.364 OA
HETATM   18  C19 UNL     1      12.228  19.243  28.412  1.00  0.00     0.204 C 
ENDBRANCH  14  17
ENDBRANCH  10  14
ENDBRANCH   8  10
ENDBRANCH   5   6
BRANCH   5  19
HETATM   19  C20 UNL     1      17.591  17.517  31.770  1.00  0.00    -0.022 C 
HETATM   20  C21 UNL     1      18.283  16.736  32.860  1.00  0.00     0.017 C 
HETATM   21  C22 UNL     1      18.271  17.217  30.411  1.00  0.00     0.017 C 
HETATM   22  C23 UNL     1      17.810  18.970  31.994  1.00  0.00     0.017 C 
ENDBRANCH   5  19
ENDBRANCH   3   5
BRANCH   1  23
HETATM   23  C5  UNL     1      14.708  14.108  33.655  1.00  0.00     0.182 C 
BRANCH  23  24
HETATM   24  C3  UNL     1      15.798  14.036  34.706  1.00  0.00     0.013 C 
HETATM   25  C4  UNL     1      15.277  14.086  36.101  1.00  0.00     0.012 C 
BRANCH  24  26
HETATM   26  C2  UNL     1      16.645  12.798  34.544  1.00  0.00     0.002 C 
HETATM   27  C1  UNL     1      17.876  13.179  33.750  1.00  0.00     0.005 C 
ENDBRANCH  24  26
ENDBRANCH  23  24
BRANCH  23  28
HETATM   28  N1  UNL     1      13.401  14.258  34.227  1.00  0.00    -0.323 N 
HETATM   29  C6  UNL     1      12.396  13.251  34.235  1.00  0.00     0.362 C 
HETATM   30  O1  UNL     1      12.646  12.138  33.709  1.00  0.00    -0.238 OA
ATOM     31  H1  UNL     1      13.175  15.153  34.660  1.00  0.00     0.165 HD
BRANCH  29  32
HETATM   32  O2  UNL     1      11.173  13.462  34.799  1.00  0.00    -0.294 OA
BRANCH  32  33
HETATM   33  C7  UNL     1      10.703  12.861  35.985  1.00  0.00     0.061 C 
HETATM   34  C8  UNL     1      10.167  11.482  35.799  1.00  0.00     0.046 C 
HETATM   35  C9  UNL     1       9.544  13.748  36.451  1.00  0.00     0.046 C 
HETATM   36  C10 UNL     1      11.722  12.850  37.095  1.00  0.00     0.046 C 
ENDBRANCH  32  33
ENDBRANCH  29  32
ENDBRANCH  23  28
ENDBRANCH   1  23
TORSDOF 14
ENDMDL
MODEL 4
REMARK VINA RESULT: -7.412792376      1.941      8.605
REMARK  14 active torsions:
REMARK  status: ('A' for Active; 'I' for Inactive)
REMARK    1  A    between atoms: C2_2  and  C3_3 
REMARK    2  A    between atoms: C3_3  and  C5_5 
REMARK    3  A    between atoms: C5_5  and  N1_6 
REMARK    4  A    between atoms: C5_5  and  C11_15 
REMARK       I    between atoms: N1_6  and  C6_8 
REMARK    5  A    between atoms: C6_8  and  O2_10 
REMARK    6  A    between atoms: O2_10  and  C7_11 
REMARK       I    between atoms: C11_15  and  N2_17 
REMARK    7  A    between atoms: N2_17  and  C12_19 
REMARK    8  A    between atoms: C12_19  and  C13_20 
REMARK    9  A    between atoms: C12_19  and  C20_33 
REMARK       I    between atoms: C13_20  and  N3_22 
REMARK   10  A    between atoms: N3_22  and  C14_24 
REMARK   11  A    between atoms: C14_24  and  C15_25 
REMARK   12  A    between atoms: C14_24  and  C18_28 
REMARK   13  A    between atoms: C18_28  and  O5_29 
REMARK   14  A    between atoms: C18_28  and  O6_31 
ROOT
HETATM    1  C11 UNL     1      15.076  16.585  33.277  1.00  0.00     0.241 C 
HETATM    2  O3  UNL     1      14.505  17.250  34.209  1.00  0.00    -0.271 OA
HETATM    3  N2  UNL     1      15.169  15.172  33.405  1.00  0.00    -0.345 N 
ATOM      4  H2  UNL     1      15.618  14.624  32.671  1.00  0.00     0.163 HD
ENDROOT
BRANCH   3   5
HETATM    5  C12 UNL     1      14.619  14.498  34.590  1.00  0.00     0.184 C 
BRANCH   5   6
HETATM    6  C13 UNL     1      13.718  13.414  34.181  1.00  0.00     0.241 C 
HETATM    7  O4  UNL     1      13.764  13.052  32.954  1.00  0.00    -0.271 OA
HETATM    8  N3  UNL     1      12.796  12.719  34.980  1.00  0.00    -0.350 N 
ATOM      9  H3  UNL     1      12.717  12.968  35.966  1.00  0.00     0.163 HD
BRANCH   8  10
HETATM   10  C14 UNL     1      11.942  11.650  34.455  1.00  0.00     0.142 C 
BRANCH  10  11
HETATM   11  C15 UNL     1      11.521  10.742  35.539  1.00  0.00     0.005 C 
HETATM   12  C16 UNL     1      12.373  10.856  36.781  1.00  0.00     0.012 C 
HETATM   13  C17 UNL     1      11.411   9.298  35.175  1.00  0.00     0.012 C 
ENDBRANCH  10  11
BRANCH  10  14
HETATM   14  C18 UNL     1      10.817  12.300  33.693  1.00  0.00     0.279 C 
BRANCH  14  15
HETATM   15  O5  UNL     1      10.981  12.220  32.311  1.00  0.00    -0.369 OA
ATOM     16  H5  UNL     1      10.426  12.827  31.837  1.00  0.00     0.212 HD
ENDBRANCH  14  15
BRANCH  14  17
HETATM   17  O6  UNL     1       9.563  11.943  34.116  1.00  0.00    -0.364 OA
HETATM   18  C19 UNL     1       8.819  11.328  33.139  1.00  0.00     0.204 C 
ENDBRANCH  14  17
ENDBRANCH  10  14
ENDBRANCH   8  10
ENDBRANCH   5   6
BRANCH   5  19
HETATM   19  C20 UNL     1      15.780  13.956  35.392  1.00  0.00    -0.022 C 
HETATM   20  C21 UNL     1      15.356  13.729  36.823  1.00  0.00     0.017 C 
HETATM   21  C22 UNL     1      16.243  12.614  34.774  1.00  0.00     0.017 C 
HETATM   22  C23 UNL     1      16.986  14.824  35.370  1.00  0.00     0.017 C 
ENDBRANCH   5  19
ENDBRANCH   3   5
BRANCH   1  23
HETATM   23  C5  UNL     1      15.608  17.302  32.118  1.00  0.00     0.182 C 
BRANCH  23  24
HETATM   24  C3  UNL     1      15.888  16.392  30.938  1.00  0.00     0.013 C 
HETATM   25  C4  UNL     1      14.742  16.278  29.995  1.00  0.00     0.012 C 
BRANCH  24  26
HETATM   26  C2  UNL     1      17.110  16.835  30.171  1.00  0.00     0.002 C 
HETATM   27  C1  UNL     1      18.253  16.967  31.157  1.00  0.00     0.005 C 
ENDBRANCH  24  26
ENDBRANCH  23  24
BRANCH  23  28
HETATM   28  N1  UNL     1      14.846  18.460  31.750  1.00  0.00    -0.323 N 
HETATM   29  C6  UNL     1      15.355  19.787  31.700  1.00  0.00     0.362 C 
HETATM   30  O1  UNL     1      16.560  19.989  31.994  1.00  0.00    -0.238 OA
ATOM     31  H1  UNL     1      13.865  18.321  31.507  1.00  0.00     0.165 HD
BRANCH  29  32
HETATM   32  O2  UNL     1      14.571  20.844  31.340  1.00  0.00    -0.294 OA
BRANCH  32  33
HETATM   33  C7  UNL     1      14.156  21.145  30.026  1.00  0.00     0.061 C 
HETATM   34  C8  UNL     1      14.900  20.403  28.968  1.00  0.00     0.046 C 
HETATM   35  C9  UNL     1      14.459  22.636  29.844  1.00  0.00     0.046 C 
HETATM   36  C10 UNL     1      12.676  20.966  29.809  1.00  0.00     0.046 C 
ENDBRANCH  32  33
ENDBRANCH  29  32
ENDBRANCH  23  28
ENDBRANCH   1  23
TORSDOF 14
ENDMDL
MODEL 5
REMARK VINA RESULT: -7.366260101      1.879      8.507
REMARK  14 active torsions:
REMARK  status: ('A' for Active; 'I' for Inactive)
REMARK    1  A    between atoms: C2_2  and  C3_3 
REMARK    2  A    between atoms: C3_3  and  C5_5 
REMARK    3  A    between atoms: C5_5  and  N1_6 
REMARK    4  A    between atoms: C5_5  and  C11_15 
REMARK       I    between atoms: N1_6  and  C6_8 
REMARK    5  A    between atoms: C6_8  and  O2_10 
REMARK    6  A    between atoms: O2_10  and  C7_11 
REMARK       I    between atoms: C11_15  and  N2_17 
REMARK    7  A    between atoms: N2_17  and  C12_19 
REMARK    8  A    between atoms: C12_19  and  C13_20 
REMARK    9  A    between atoms: C12_19  and  C20_33 
REMARK       I    between atoms: C13_20  and  N3_22 
REMARK   10  A    between atoms: N3_22  and  C14_24 
REMARK   11  A    between atoms: C14_24  and  C15_25 
REMARK   12  A    between atoms: C14_24  and  C18_28 
REMARK   13  A    between atoms: C18_28  and  O5_29 
REMARK   14  A    between atoms: C18_28  and  O6_31 
ROOT
HETATM    1  C11 UNL     1      15.130  16.965  33.250  1.00  0.00     0.241 C 
HETATM    2  O3  UNL     1      14.539  17.677  34.134  1.00  0.00    -0.271 OA
HETATM    3  N2  UNL     1      15.248  15.565  33.468  1.00  0.00    -0.345 N 
ATOM      4  H2  UNL     1      15.713  14.980  32.774  1.00  0.00     0.163 HD
ENDROOT
BRANCH   3   5
HETATM    5  C12 UNL     1      14.701  14.957  34.690  1.00  0.00     0.184 C 
BRANCH   5   6
HETATM    6  C13 UNL     1      13.428  14.289  34.396  1.00  0.00     0.241 C 
HETATM    7  O4  UNL     1      12.975  14.402  33.204  1.00  0.00    -0.271 OA
HETATM    8  N3  UNL     1      12.633  13.536  35.273  1.00  0.00    -0.350 N 
ATOM      9  H3  UNL     1      12.947  13.415  36.236  1.00  0.00     0.163 HD
BRANCH   8  10
HETATM   10  C14 UNL     1      11.371  12.915  34.863  1.00  0.00     0.142 C 
BRANCH  10  11
HETATM   11  C15 UNL     1      11.617  11.603  34.234  1.00  0.00     0.005 C 
HETATM   12  C16 UNL     1      10.799  11.374  32.986  1.00  0.00     0.012 C 
HETATM   13  C17 UNL     1      11.461  10.413  35.124  1.00  0.00     0.012 C 
ENDBRANCH  10  11
BRANCH  10  14
HETATM   14  C18 UNL     1      10.466  12.887  36.067  1.00  0.00     0.279 C 
BRANCH  14  15
HETATM   15  O5  UNL     1      11.141  13.146  37.259  1.00  0.00    -0.369 OA
ATOM     16  H5  UNL     1      10.576  13.501  37.934  1.00  0.00     0.212 HD
ENDBRANCH  14  15
BRANCH  14  17
HETATM   17  O6  UNL     1       9.310  13.610  35.926  1.00  0.00    -0.364 OA
HETATM   18  C19 UNL     1       8.179  12.833  35.972  1.00  0.00     0.204 C 
ENDBRANCH  14  17
ENDBRANCH  10  14
ENDBRANCH   8  10
ENDBRANCH   5   6
BRANCH   5  19
HETATM   19  C20 UNL     1      15.719  13.967  35.208  1.00  0.00    -0.022 C 
HETATM   20  C21 UNL     1      15.751  12.748  34.318  1.00  0.00     0.017 C 
HETATM   21  C22 UNL     1      17.117  14.634  35.218  1.00  0.00     0.017 C 
HETATM   22  C23 UNL     1      15.487  13.543  36.613  1.00  0.00     0.017 C 
ENDBRANCH   5  19
ENDBRANCH   3   5
BRANCH   1  23
HETATM   23  C5  UNL     1      15.658  17.617  32.050  1.00  0.00     0.182 C 
BRANCH  23  24
HETATM   24  C3  UNL     1      15.915  16.645  30.915  1.00  0.00     0.013 C 
HETATM   25  C4  UNL     1      14.724  16.418  30.051  1.00  0.00     0.012 C 
BRANCH  24  26
HETATM   26  C2  UNL     1      17.068  17.092  30.051  1.00  0.00     0.002 C 
HETATM   27  C1  UNL     1      18.345  16.563  30.671  1.00  0.00     0.005 C 
ENDBRANCH  24  26
ENDBRANCH  23  24
BRANCH  23  28
HETATM   28  N1  UNL     1      14.905  18.763  31.632  1.00  0.00    -0.323 N 
HETATM   29  C6  UNL     1      15.428  20.081  31.510  1.00  0.00     0.362 C 
HETATM   30  O1  UNL     1      16.637  20.283  31.782  1.00  0.00    -0.238 OA
ATOM     31  H1  UNL     1      13.920  18.624  31.406  1.00  0.00     0.165 HD
BRANCH  29  32
HETATM   32  O2  UNL     1      14.651  21.126  31.106  1.00  0.00    -0.294 OA
BRANCH  32  33
HETATM   33  C7  UNL     1      14.269  21.395  29.775  1.00  0.00     0.061 C 
HETATM   34  C8  UNL     1      14.513  22.801  29.344  1.00  0.00     0.046 C 
HETATM   35  C9  UNL     1      12.756  21.158  29.739  1.00  0.00     0.046 C 
HETATM   36  C10 UNL     1      14.887  20.456  28.772  1.00  0.00     0.046 C 
ENDBRANCH  32  33
ENDBRANCH  29  32
ENDBRANCH  23  28
ENDBRANCH   1  23
TORSDOF 14
ENDMDL
