MODEL 1
REMARK VINA RESULT: -5.645399282      0.000      0.000
REMARK  2 active torsions:
REMARK  status: ('A' for Active; 'I' for Inactive)
REMARK    1  A    between atoms: N1_2  and  N2_3 
REMARK       I    between atoms: N2_3  and  C2_5 
REMARK       I    between atoms: C2_5  and  N3_7 
REMARK    2  A    between atoms: N3_7  and  N4_9 
ROOT
HETATM    1  N4  UNL     1     107.834  33.749  78.568  1.00  0.00    -0.128 N 
ATOM      2  H4  UNL     1     107.541  34.042  77.637  1.00  0.00     0.205 HD
HETATM    3  C3  UNL     1     107.313  34.325  79.595  1.00  0.00     0.699 A 
HETATM    4  N5  UNL     1     107.550  34.098  80.900  1.00  0.00    -0.190 N 
ATOM      5  H5  UNL     1     108.201  33.411  81.281  1.00  0.00     0.184 HD
HETATM    6  C4  UNL     1     106.773  34.945  81.619  1.00  0.00     0.072 A 
HETATM    7  C5  UNL     1     106.057  35.692  80.714  1.00  0.00     0.142 A 
HETATM    8  N6  UNL     1     106.393  35.307  79.468  1.00  0.00    -0.173 N 
ATOM      9  H6  UNL     1     106.023  35.684  78.595  1.00  0.00     0.186 HD
HETATM   10  N7  UNL     1     105.209  36.617  81.418  1.00  0.00    -0.369 N 
HETATM   11  C6  UNL     1     104.006  37.171  80.867  1.00  0.00     0.151 C 
HETATM   12  C7  UNL     1     105.865  36.796  82.697  1.00  0.00     0.130 C 
HETATM   13  C8  UNL     1     106.373  35.397  82.975  1.00  0.00     0.081 C 
ENDROOT
BRANCH   1  14
HETATM   14  N3  UNL     1     108.785  32.739  78.689  1.00  0.00    -0.236 N 
HETATM   15  C2  UNL     1     108.880  31.708  77.724  1.00  0.00     0.350 C 
HETATM   16  N2  UNL     1     109.859  30.700  77.880  1.00  0.00    -0.255 N 
HETATM   17  O1  UNL     1     108.099  31.690  76.736  1.00  0.00    -0.244 OA
ATOM     18  H2  UNL     1     110.496  30.704  78.676  1.00  0.00     0.187 HD
ATOM     19  H3  UNL     1     109.422  32.742  79.485  1.00  0.00     0.192 HD
BRANCH  16  20
HETATM   20  N1  UNL     1     109.926  29.683  76.893  1.00  0.00    -0.142 NA
HETATM   21  C1  UNL     1     111.198  29.016  77.058  1.00  0.00     0.159 C 
ENDBRANCH  16  20
ENDBRANCH   1  14
TORSDOF 2
ENDMDL
MODEL 2
REMARK VINA RESULT: -5.633832770      5.028      6.552
REMARK  2 active torsions:
REMARK  status: ('A' for Active; 'I' for Inactive)
REMARK    1  A    between atoms: N1_2  and  N2_3 
REMARK       I    between atoms: N2_3  and  C2_5 
REMARK       I    between atoms: C2_5  and  N3_7 
REMARK    2  A    between atoms: N3_7  and  N4_9 
ROOT
HETATM    1  N4  UNL     1     108.066  38.268  77.564  1.00  0.00    -0.128 N 
ATOM      2  H4  UNL     1     107.934  39.166  78.031  1.00  0.00     0.205 HD
HETATM    3  C3  UNL     1     107.991  37.188  78.259  1.00  0.00     0.699 A 
HETATM    4  N5  UNL     1     108.130  35.913  77.853  1.00  0.00    -0.190 N 
ATOM      5  H5  UNL     1     108.321  35.604  76.901  1.00  0.00     0.184 HD
HETATM    6  C4  UNL     1     107.972  35.110  78.936  1.00  0.00     0.072 A 
HETATM    7  C5  UNL     1     107.733  35.934  80.009  1.00  0.00     0.142 A 
HETATM    8  N6  UNL     1     107.745  37.214  79.589  1.00  0.00    -0.173 N 
ATOM      9  H6  UNL     1     107.598  38.044  80.163  1.00  0.00     0.186 HD
HETATM   10  N7  UNL     1     107.557  35.139  81.195  1.00  0.00    -0.369 N 
HETATM   11  C6  UNL     1     106.822  35.579  82.346  1.00  0.00     0.151 C 
HETATM   12  C7  UNL     1     108.265  33.910  80.906  1.00  0.00     0.130 C 
HETATM   13  C8  UNL     1     107.947  33.715  79.439  1.00  0.00     0.081 C 
ENDROOT
BRANCH   1  14
HETATM   14  N3  UNL     1     108.322  38.252  76.195  1.00  0.00    -0.236 N 
HETATM   15  C2  UNL     1     108.051  39.384  75.389  1.00  0.00     0.350 C 
HETATM   16  N2  UNL     1     108.325  39.329  74.003  1.00  0.00    -0.255 N 
HETATM   17  O1  UNL     1     107.572  40.428  75.904  1.00  0.00    -0.244 OA
ATOM     18  H2  UNL     1     108.713  38.489  73.576  1.00  0.00     0.187 HD
ATOM     19  H3  UNL     1     108.710  37.412  75.767  1.00  0.00     0.192 HD
BRANCH  16  20
HETATM   20  N1  UNL     1     108.042  40.482  73.227  1.00  0.00    -0.142 NA
HETATM   21  C1  UNL     1     109.282  40.886  72.603  1.00  0.00     0.159 C 
ENDBRANCH  16  20
ENDBRANCH   1  14
TORSDOF 2
ENDMDL
MODEL 3
REMARK VINA RESULT: -5.590293851      1.129      1.136
REMARK  2 active torsions:
REMARK  status: ('A' for Active; 'I' for Inactive)
REMARK    1  A    between atoms: N1_2  and  N2_3 
REMARK       I    between atoms: N2_3  and  C2_5 
REMARK       I    between atoms: C2_5  and  N3_7 
REMARK    2  A    between atoms: N3_7  and  N4_9 
ROOT
HETATM    1  N4  UNL     1     107.882  34.780  79.108  1.00  0.00    -0.128 N 
ATOM      2  H4  UNL     1     107.973  35.498  78.389  1.00  0.00     0.205 HD
HETATM    3  C3  UNL     1     107.003  34.934  80.035  1.00  0.00     0.699 A 
HETATM    4  N5  UNL     1     106.715  34.122  81.068  1.00  0.00    -0.190 N 
ATOM      5  H5  UNL     1     107.167  33.232  81.275  1.00  0.00     0.184 HD
HETATM    6  C4  UNL     1     105.718  34.697  81.786  1.00  0.00     0.072 A 
HETATM    7  C5  UNL     1     105.410  35.881  81.160  1.00  0.00     0.142 A 
HETATM    8  N6  UNL     1     106.203  36.024  80.081  1.00  0.00    -0.173 N 
ATOM      9  H6  UNL     1     106.202  36.805  79.425  1.00  0.00     0.186 HD
HETATM   10  N7  UNL     1     104.354  36.544  81.879  1.00  0.00    -0.369 N 
HETATM   11  C6  UNL     1     103.459  37.492  81.282  1.00  0.00     0.151 C 
HETATM   12  C7  UNL     1     104.462  36.023  83.226  1.00  0.00     0.130 C 
HETATM   13  C8  UNL     1     104.823  34.577  82.963  1.00  0.00     0.081 C 
ENDROOT
BRANCH   1  14
HETATM   14  N3  UNL     1     108.712  33.663  79.053  1.00  0.00    -0.236 N 
HETATM   15  C2  UNL     1     108.470  32.619  78.129  1.00  0.00     0.350 C 
HETATM   16  N2  UNL     1     109.335  31.501  78.103  1.00  0.00    -0.255 N 
HETATM   17  O1  UNL     1     107.491  32.686  77.339  1.00  0.00    -0.244 OA
ATOM     18  H2  UNL     1     110.130  31.436  78.739  1.00  0.00     0.187 HD
ATOM     19  H3  UNL     1     109.507  33.597  79.688  1.00  0.00     0.192 HD
BRANCH  16  20
HETATM   20  N1  UNL     1     109.062  30.474  77.164  1.00  0.00    -0.142 NA
HETATM   21  C1  UNL     1     110.161  29.537  77.229  1.00  0.00     0.159 C 
ENDBRANCH  16  20
ENDBRANCH   1  14
TORSDOF 2
ENDMDL
MODEL 4
REMARK VINA RESULT: -5.294940391      1.587      1.785
REMARK  2 active torsions:
REMARK  status: ('A' for Active; 'I' for Inactive)
REMARK    1  A    between atoms: N1_2  and  N2_3 
REMARK       I    between atoms: N2_3  and  C2_5 
REMARK       I    between atoms: C2_5  and  N3_7 
REMARK    2  A    between atoms: N3_7  and  N4_9 
ROOT
HETATM    1  N4  UNL     1     108.145  32.951  79.125  1.00  0.00    -0.128 N 
ATOM      2  H4  UNL     1     107.479  32.187  79.016  1.00  0.00     0.205 HD
HETATM    3  C3  UNL     1     107.890  33.884  79.975  1.00  0.00     0.699 A 
HETATM    4  N5  UNL     1     108.621  34.972  80.277  1.00  0.00    -0.190 N 
ATOM      5  H5  UNL     1     109.518  35.226  79.864  1.00  0.00     0.184 HD
HETATM    6  C4  UNL     1     107.955  35.671  81.230  1.00  0.00     0.072 A 
HETATM    7  C5  UNL     1     106.799  34.977  81.496  1.00  0.00     0.142 A 
HETATM    8  N6  UNL     1     106.762  33.876  80.721  1.00  0.00    -0.173 N 
ATOM      9  H6  UNL     1     106.025  33.171  80.700  1.00  0.00     0.186 HD
HETATM   10  N7  UNL     1     106.041  35.672  82.503  1.00  0.00    -0.369 N 
HETATM   11  C6  UNL     1     105.090  35.033  83.365  1.00  0.00     0.151 C 
HETATM   12  C7  UNL     1     106.481  37.047  82.390  1.00  0.00     0.130 C 
HETATM   13  C8  UNL     1     107.957  36.871  82.103  1.00  0.00     0.081 C 
ENDROOT
BRANCH   1  14
HETATM   14  N3  UNL     1     109.302  32.952  78.350  1.00  0.00    -0.236 N 
HETATM   15  C2  UNL     1     109.749  31.774  77.705  1.00  0.00     0.350 C 
HETATM   16  N2  UNL     1     110.929  31.815  76.926  1.00  0.00    -0.255 N 
HETATM   17  O1  UNL     1     109.102  30.701  77.826  1.00  0.00    -0.244 OA
ATOM     18  H2  UNL     1     111.461  32.678  76.822  1.00  0.00     0.187 HD
ATOM     19  H3  UNL     1     109.835  33.815  78.245  1.00  0.00     0.192 HD
BRANCH  16  20
HETATM   20  N1  UNL     1     111.346  30.615  76.294  1.00  0.00    -0.142 NA
HETATM   21  C1  UNL     1     111.097  30.774  74.879  1.00  0.00     0.159 C 
ENDBRANCH  16  20
ENDBRANCH   1  14
TORSDOF 2
ENDMDL
MODEL 5
REMARK VINA RESULT: -5.268643921      6.370      7.705
REMARK  2 active torsions:
REMARK  status: ('A' for Active; 'I' for Inactive)
REMARK    1  A    between atoms: N1_2  and  N2_3 
REMARK       I    between atoms: N2_3  and  C2_5 
REMARK       I    between atoms: C2_5  and  N3_7 
REMARK    2  A    between atoms: N3_7  and  N4_9 
ROOT
HETATM    1  N4  UNL     1     108.051  38.482  77.307  1.00  0.00    -0.128 N 
ATOM      2  H4  UNL     1     107.839  39.137  78.060  1.00  0.00     0.205 HD
HETATM    3  C3  UNL     1     108.048  38.908  76.092  1.00  0.00     0.699 A 
HETATM    4  N5  UNL     1     108.296  38.226  74.959  1.00  0.00    -0.190 N 
ATOM      5  H5  UNL     1     108.534  37.237  74.894  1.00  0.00     0.184 HD
HETATM    6  C4  UNL     1     108.176  39.088  73.918  1.00  0.00     0.072 A 
HETATM    7  C5  UNL     1     107.846  40.311  74.452  1.00  0.00     0.142 A 
HETATM    8  N6  UNL     1     107.768  40.196  75.791  1.00  0.00    -0.173 N 
ATOM      9  H6  UNL     1     107.542  40.939  76.453  1.00  0.00     0.186 HD
HETATM   10  N7  UNL     1     107.701  41.273  73.392  1.00  0.00    -0.369 N 
HETATM   11  C6  UNL     1     107.862  42.687  73.574  1.00  0.00     0.151 C 
HETATM   12  C7  UNL     1     107.379  40.474  72.229  1.00  0.00     0.130 C 
HETATM   13  C8  UNL     1     108.254  39.257  72.446  1.00  0.00     0.081 C 
ENDROOT
BRANCH   1  14
HETATM   14  N3  UNL     1     108.334  37.157  77.627  1.00  0.00    -0.236 N 
HETATM   15  C2  UNL     1     108.224  36.688  78.957  1.00  0.00     0.350 C 
HETATM   16  N2  UNL     1     108.520  35.335  79.243  1.00  0.00    -0.255 N 
HETATM   17  O1  UNL     1     107.866  37.470  79.877  1.00  0.00    -0.244 OA
ATOM     18  H2  UNL     1     108.810  34.693  78.505  1.00  0.00     0.187 HD
ATOM     19  H3  UNL     1     108.625  36.514  76.890  1.00  0.00     0.192 HD
BRANCH  16  20
HETATM   20  N1  UNL     1     108.398  34.900  80.587  1.00  0.00    -0.142 NA
HETATM   21  C1  UNL     1     107.281  33.983  80.636  1.00  0.00     0.159 C 
ENDBRANCH  16  20
ENDBRANCH   1  14
TORSDOF 2
ENDMDL
