MODEL 1
REMARK VINA RESULT: -6.486389125      0.000      0.000
REMARK  16 active torsions:
REMARK  status: ('A' for Active; 'I' for Inactive)
REMARK    1  A    between atoms: C2_2  and  O1_3 
REMARK    2  A    between atoms: O1_3  and  C3_4 
REMARK    3  A    between atoms: C4_7  and  S1_8 
REMARK    4  A    between atoms: N3_13  and  C7_15 
REMARK    5  A    between atoms: C8_16  and  O2_18 
REMARK    6  A    between atoms: C10_20  and  O3_21 
REMARK    7  A    between atoms: O3_21  and  C11_22 
REMARK    8  A    between atoms: C11_22  and  C12_24 
REMARK    9  A    between atoms: C12_24  and  N4_25 
REMARK   10  A    between atoms: C12_24  and  C14_29 
REMARK   11  A    between atoms: N4_25  and  O5_27 
REMARK   12  A    between atoms: C16_32  and  N5_33 
REMARK   13  A    between atoms: C17_38  and  C18_39 
REMARK   14  A    between atoms: C18_39  and  O6_41 
REMARK   15  A    between atoms: C18_39  and  C20_43 
REMARK   16  A    between atoms: C20_43  and  O7_44 
REMARK       I    between atoms: N7_46  and  C21_47 
ROOT
HETATM    1  C7  UNL     1      51.073  30.972  -9.717  1.00  0.00     0.280 C 
HETATM    2  C8  UNL     1      51.340  29.559  -9.966  1.00  0.00     0.122 C 
HETATM    3  C9  UNL     1      51.081  28.828  -8.626  1.00  0.00     0.052 C 
HETATM    4  C10 UNL     1      52.526  29.081 -10.639  1.00  0.00     0.219 C 
HETATM    5  C17 UNL     1      53.865  29.710 -10.444  1.00  0.00     0.080 C 
HETATM    6  N7  UNL     1      53.772  31.173 -10.482  1.00  0.00    -0.183 N 
HETATM    7  C21 UNL     1      54.413  32.093 -11.297  1.00  0.00     0.304 C 
HETATM    8  O8  UNL     1      55.182  31.901 -12.250  1.00  0.00    -0.629 OA
HETATM    9  O9  UNL     1      54.195  33.476 -11.047  1.00  0.00    -0.629 OA
HETATM   10  S3  UNL     1      52.570  31.892  -9.400  1.00  0.00     0.266 S 
HETATM   11  O10 UNL     1      52.222  33.303  -9.840  1.00  0.00    -0.203 OA
HETATM   12  O11 UNL     1      52.948  31.968  -8.009  1.00  0.00    -0.203 OA
ENDROOT
BRANCH   4  13
HETATM   13  O3  UNL     1      52.577  27.680 -10.524  1.00  0.00    -0.305 OA
BRANCH  13  14
HETATM   14  C11 UNL     1      52.248  26.743 -11.475  1.00  0.00     0.290 C 
HETATM   15  O4  UNL     1      51.064  26.251 -11.327  1.00  0.00    -0.262 OA
BRANCH  14  16
HETATM   16  C12 UNL     1      53.096  26.292 -12.589  1.00  0.00     0.255 C 
BRANCH  16  17
HETATM   17  N4  UNL     1      54.361  26.877 -12.785  1.00  0.00    -0.283 N 
ATOM     18  H4  UNL     1      54.478  27.757 -13.287  1.00  0.00     0.189 HD
BRANCH  17  19
HETATM   19  O5  UNL     1      55.414  26.200 -12.265  1.00  0.00    -0.289 OA
HETATM   20  C13 UNL     1      56.598  26.589 -12.922  1.00  0.00     0.237 C 
ENDBRANCH  17  19
ENDBRANCH  16  17
BRANCH  16  21
HETATM   21  C14 UNL     1      52.303  26.676 -13.897  1.00  0.00     0.052 A 
HETATM   22  C15 UNL     1      52.746  27.666 -14.741  1.00  0.00     0.081 A 
HETATM   23  S2  UNL     1      51.533  27.709 -15.927  1.00  0.00    -0.064 SA
HETATM   24  C16 UNL     1      50.533  26.482 -15.300  1.00  0.00     0.142 A 
HETATM   25  N6  UNL     1      51.182  26.088 -14.196  1.00  0.00    -0.338 N 
ATOM     26  H6  UNL     1      50.806  25.347 -13.605  1.00  0.00     0.168 HD
BRANCH  24  27
HETATM   27  N5  UNL     1      49.400  26.044 -15.776  1.00  0.00    -0.380 N 
ATOM     28  H52 UNL     1      48.883  25.204 -15.517  1.00  0.00     0.158 HD
ATOM     29  H51 UNL     1      48.812  26.471 -16.493  1.00  0.00     0.158 HD
ENDBRANCH  24  27
ENDBRANCH  16  21
ENDBRANCH  14  16
ENDBRANCH  13  14
ENDBRANCH   4  13
BRANCH   2  30
HETATM   30  O2  UNL     1      50.222  29.080 -10.727  1.00  0.00    -0.384 OA
ATOM     31  H2  UNL     1      49.729  28.523 -10.137  1.00  0.00     0.210 HD
ENDBRANCH   2  30
BRANCH   5  32
HETATM   32  C18 UNL     1      54.936  29.076  -9.691  1.00  0.00     0.117 C 
HETATM   33  C19 UNL     1      56.359  29.556 -10.293  1.00  0.00     0.055 C 
BRANCH  32  34
HETATM   34  O6  UNL     1      55.145  27.714  -9.862  1.00  0.00    -0.382 OA
ATOM     35  H6  UNL     1      54.801  27.119  -9.205  1.00  0.00     0.211 HD
ENDBRANCH  32  34
BRANCH  32  36
HETATM   36  C20 UNL     1      55.138  29.400  -8.246  1.00  0.00     0.207 C 
BRANCH  36  37
HETATM   37  O7  UNL     1      55.711  30.629  -7.958  1.00  0.00    -0.398 OA
ATOM     38  H7  UNL     1      56.483  30.620  -7.404  1.00  0.00     0.209 HD
ENDBRANCH  36  37
ENDBRANCH  32  36
ENDBRANCH   5  32
BRANCH   1  39
HETATM   39  N3  UNL     1      50.276  31.629 -10.697  1.00  0.00    -0.203 N 
HETATM   40  C6  UNL     1      49.423  32.572 -10.535  1.00  0.00     0.684 A 
HETATM   41  N2  UNL     1      48.797  33.029 -11.635  1.00  0.00    -0.170 N 
HETATM   42  N8  UNL     1      49.094  33.154  -9.378  1.00  0.00    -0.155 N 
HETATM   43  C4  UNL     1      47.885  34.033 -11.561  1.00  0.00     0.162 A 
ATOM     44  H2  UNL     1      49.011  32.615 -12.542  1.00  0.00     0.186 HD
HETATM   45  N1  UNL     1      47.578  34.597 -10.385  1.00  0.00    -0.302 N 
HETATM   46  C3  UNL     1      48.188  34.152  -9.269  1.00  0.00     0.239 A 
ATOM     47  H1  UNL     1      46.894  35.351 -10.335  1.00  0.00     0.171 HD
ATOM     48  H8  UNL     1      49.553  32.826  -8.528  1.00  0.00     0.188 HD
ATOM     49  H3  UNL     1      50.400  31.306 -11.657  1.00  0.00     0.179 HD
BRANCH  43  50
HETATM   50  S1  UNL     1      47.129  34.621 -13.083  1.00  0.00    -0.098 SA
HETATM   51  C5  UNL     1      45.673  35.592 -12.682  1.00  0.00     0.099 C 
ENDBRANCH  43  50
BRANCH  46  52
HETATM   52  O1  UNL     1      47.925  34.674  -8.021  1.00  0.00    -0.322 OA
BRANCH  52  53
HETATM   53  C2  UNL     1      48.850  35.275  -7.183  1.00  0.00     0.174 C 
HETATM   54  C1  UNL     1      49.227  36.629  -7.790  1.00  0.00     0.034 C 
ENDBRANCH  52  53
ENDBRANCH  46  52
ENDBRANCH   1  39
TORSDOF 16
ENDMDL
MODEL 2
REMARK VINA RESULT: -6.136796939      9.512     14.502
REMARK  16 active torsions:
REMARK  status: ('A' for Active; 'I' for Inactive)
REMARK    1  A    between atoms: C2_2  and  O1_3 
REMARK    2  A    between atoms: O1_3  and  C3_4 
REMARK    3  A    between atoms: C4_7  and  S1_8 
REMARK    4  A    between atoms: N3_13  and  C7_15 
REMARK    5  A    between atoms: C8_16  and  O2_18 
REMARK    6  A    between atoms: C10_20  and  O3_21 
REMARK    7  A    between atoms: O3_21  and  C11_22 
REMARK    8  A    between atoms: C11_22  and  C12_24 
REMARK    9  A    between atoms: C12_24  and  N4_25 
REMARK   10  A    between atoms: C12_24  and  C14_29 
REMARK   11  A    between atoms: N4_25  and  O5_27 
REMARK   12  A    between atoms: C16_32  and  N5_33 
REMARK   13  A    between atoms: C17_38  and  C18_39 
REMARK   14  A    between atoms: C18_39  and  O6_41 
REMARK   15  A    between atoms: C18_39  and  C20_43 
REMARK   16  A    between atoms: C20_43  and  O7_44 
REMARK       I    between atoms: N7_46  and  C21_47 
ROOT
HETATM    1  C7  UNL     1      39.899  31.017 -15.969  1.00  0.00     0.280 C 
HETATM    2  C8  UNL     1      39.916  31.750 -14.707  1.00  0.00     0.122 C 
HETATM    3  C9  UNL     1      38.465  31.710 -14.165  1.00  0.00     0.052 C 
HETATM    4  C10 UNL     1      40.532  33.047 -14.549  1.00  0.00     0.219 C 
HETATM    5  C17 UNL     1      40.481  34.092 -15.615  1.00  0.00     0.080 C 
HETATM    6  N7  UNL     1      40.760  33.515 -16.933  1.00  0.00    -0.183 N 
HETATM    7  C21 UNL     1      41.735  33.835 -17.865  1.00  0.00     0.304 C 
HETATM    8  O8  UNL     1      42.662  34.653 -17.787  1.00  0.00    -0.629 OA
HETATM    9  O9  UNL     1      41.713  33.159 -19.117  1.00  0.00    -0.629 OA
HETATM   10  S3  UNL     1      39.781  32.109 -17.377  1.00  0.00     0.266 S 
HETATM   11  O10 UNL     1      40.440  31.321 -18.496  1.00  0.00    -0.203 OA
HETATM   12  O11 UNL     1      38.432  32.397 -17.805  1.00  0.00    -0.203 OA
ENDROOT
BRANCH   4  13
HETATM   13  O3  UNL     1      40.186  33.561 -13.287  1.00  0.00    -0.305 OA
BRANCH  13  14
HETATM   14  C11 UNL     1      40.990  33.685 -12.178  1.00  0.00     0.290 C 
HETATM   15  O4  UNL     1      41.331  32.553 -11.658  1.00  0.00    -0.262 OA
BRANCH  14  16
HETATM   16  C12 UNL     1      41.466  34.941 -11.578  1.00  0.00     0.255 C 
BRANCH  16  17
HETATM   17  N4  UNL     1      40.945  36.169 -12.026  1.00  0.00    -0.283 N 
ATOM     18  H4  UNL     1      41.504  36.828 -12.568  1.00  0.00     0.189 HD
BRANCH  17  19
HETATM   19  O5  UNL     1      39.656  36.424 -11.691  1.00  0.00    -0.289 OA
HETATM   20  C13 UNL     1      39.510  36.369 -10.292  1.00  0.00     0.237 C 
ENDBRANCH  17  19
ENDBRANCH  16  17
BRANCH  16  21
HETATM   21  C14 UNL     1      42.994  35.026 -11.953  1.00  0.00     0.052 A 
HETATM   22  C15 UNL     1      43.426  35.730 -13.053  1.00  0.00     0.081 A 
HETATM   23  S2  UNL     1      45.101  35.461 -13.028  1.00  0.00    -0.064 SA
HETATM   24  C16 UNL     1      45.172  34.478 -11.639  1.00  0.00     0.142 A 
HETATM   25  N6  UNL     1      43.892  34.400 -11.251  1.00  0.00    -0.338 N 
ATOM     26  H6  UNL     1      43.628  33.863 -10.425  1.00  0.00     0.168 HD
BRANCH  24  27
HETATM   27  N5  UNL     1      46.222  33.925 -11.097  1.00  0.00    -0.380 N 
ATOM     28  H52 UNL     1      47.095  33.646 -11.543  1.00  0.00     0.158 HD
ATOM     29  H51 UNL     1      46.368  33.679 -10.118  1.00  0.00     0.158 HD
ENDBRANCH  24  27
ENDBRANCH  16  21
ENDBRANCH  14  16
ENDBRANCH  13  14
ENDBRANCH   4  13
BRANCH   2  30
HETATM   30  O2  UNL     1      40.555  30.881 -13.762  1.00  0.00    -0.384 OA
ATOM     31  H2  UNL     1      40.490  31.320 -12.922  1.00  0.00     0.210 HD
ENDBRANCH   2  30
BRANCH   5  32
HETATM   32  C18 UNL     1      39.662  35.290 -15.510  1.00  0.00     0.117 C 
HETATM   33  C19 UNL     1      39.724  36.092 -16.914  1.00  0.00     0.055 C 
BRANCH  32  34
HETATM   34  O6  UNL     1      40.116  36.331 -14.714  1.00  0.00    -0.382 OA
ATOM     35  H6  UNL     1      40.276  37.174 -15.122  1.00  0.00     0.211 HD
ENDBRANCH  32  34
BRANCH  32  36
HETATM   36  C20 UNL     1      38.182  35.179 -15.334  1.00  0.00     0.207 C 
BRANCH  36  37
HETATM   37  O7  UNL     1      37.464  34.670 -16.406  1.00  0.00    -0.398 OA
ATOM     38  H7  UNL     1      37.155  33.775 -16.325  1.00  0.00     0.209 HD
ENDBRANCH  36  37
ENDBRANCH  32  36
ENDBRANCH   5  32
BRANCH   1  39
HETATM   39  N3  UNL     1      40.953  30.076 -16.148  1.00  0.00    -0.203 N 
HETATM   40  C6  UNL     1      40.926  28.951 -16.759  1.00  0.00     0.684 A 
HETATM   41  N2  UNL     1      42.069  28.241 -16.792  1.00  0.00    -0.170 N 
HETATM   42  N8  UNL     1      39.872  28.408 -17.377  1.00  0.00    -0.155 N 
HETATM   43  C4  UNL     1      42.138  27.042 -17.426  1.00  0.00     0.162 A 
ATOM     44  H2  UNL     1      42.901  28.612 -16.331  1.00  0.00     0.186 HD
HETATM   45  N1  UNL     1      41.063  26.526 -18.037  1.00  0.00    -0.302 N 
HETATM   46  C3  UNL     1      39.906  27.215 -18.013  1.00  0.00     0.239 A 
ATOM     47  H1  UNL     1      41.120  25.626 -18.513  1.00  0.00     0.171 HD
ATOM     48  H8  UNL     1      38.992  28.923 -17.368  1.00  0.00     0.188 HD
ATOM     49  H3  UNL     1      41.849  30.332 -15.734  1.00  0.00     0.179 HD
BRANCH  43  50
HETATM   50  S1  UNL     1      43.716  26.181 -17.466  1.00  0.00    -0.098 SA
HETATM   51  C5  UNL     1      44.715  26.841 -18.803  1.00  0.00     0.099 C 
ENDBRANCH  43  50
BRANCH  46  52
HETATM   52  O1  UNL     1      38.754  26.752 -18.613  1.00  0.00    -0.322 OA
BRANCH  52  53
HETATM   53  C2  UNL     1      38.028  27.412 -19.590  1.00  0.00     0.174 C 
HETATM   54  C1  UNL     1      36.686  27.827 -18.980  1.00  0.00     0.034 C 
ENDBRANCH  52  53
ENDBRANCH  46  52
ENDBRANCH   1  39
TORSDOF 16
ENDMDL
MODEL 3
REMARK VINA RESULT: -6.125422311     10.714     15.503
REMARK  16 active torsions:
REMARK  status: ('A' for Active; 'I' for Inactive)
REMARK    1  A    between atoms: C2_2  and  O1_3 
REMARK    2  A    between atoms: O1_3  and  C3_4 
REMARK    3  A    between atoms: C4_7  and  S1_8 
REMARK    4  A    between atoms: N3_13  and  C7_15 
REMARK    5  A    between atoms: C8_16  and  O2_18 
REMARK    6  A    between atoms: C10_20  and  O3_21 
REMARK    7  A    between atoms: O3_21  and  C11_22 
REMARK    8  A    between atoms: C11_22  and  C12_24 
REMARK    9  A    between atoms: C12_24  and  N4_25 
REMARK   10  A    between atoms: C12_24  and  C14_29 
REMARK   11  A    between atoms: N4_25  and  O5_27 
REMARK   12  A    between atoms: C16_32  and  N5_33 
REMARK   13  A    between atoms: C17_38  and  C18_39 
REMARK   14  A    between atoms: C18_39  and  O6_41 
REMARK   15  A    between atoms: C18_39  and  C20_43 
REMARK   16  A    between atoms: C20_43  and  O7_44 
REMARK       I    between atoms: N7_46  and  C21_47 
ROOT
HETATM    1  C7  UNL     1      36.971  32.291 -16.463  1.00  0.00     0.280 C 
HETATM    2  C8  UNL     1      37.665  33.106 -15.470  1.00  0.00     0.122 C 
HETATM    3  C9  UNL     1      36.612  33.462 -14.391  1.00  0.00     0.052 C 
HETATM    4  C10 UNL     1      38.510  34.226 -15.812  1.00  0.00     0.219 C 
HETATM    5  C17 UNL     1      38.191  35.155 -16.936  1.00  0.00     0.080 C 
HETATM    6  N7  UNL     1      37.762  34.416 -18.127  1.00  0.00    -0.183 N 
HETATM    7  C21 UNL     1      38.276  34.411 -19.414  1.00  0.00     0.304 C 
HETATM    8  O8  UNL     1      39.276  34.986 -19.866  1.00  0.00    -0.629 OA
HETATM    9  O9  UNL     1      37.592  33.653 -20.406  1.00  0.00    -0.629 OA
HETATM   10  S3  UNL     1      36.453  33.253 -17.875  1.00  0.00     0.266 S 
HETATM   11  O10 UNL     1      36.407  32.236 -19.002  1.00  0.00    -0.203 OA
HETATM   12  O11 UNL     1      35.128  33.817 -17.767  1.00  0.00    -0.203 OA
ENDROOT
BRANCH   4  13
HETATM   13  O3  UNL     1      38.845  34.916 -14.633  1.00  0.00    -0.305 OA
BRANCH  13  14
HETATM   14  C11 UNL     1      40.081  35.019 -14.038  1.00  0.00     0.290 C 
HETATM   15  O4  UNL     1      40.233  36.101 -13.350  1.00  0.00    -0.262 OA
BRANCH  14  16
HETATM   16  C12 UNL     1      41.176  34.041 -14.119  1.00  0.00     0.255 C 
BRANCH  16  17
HETATM   17  N4  UNL     1      41.138  32.883 -13.319  1.00  0.00    -0.283 N 
ATOM     18  H4  UNL     1      41.866  32.171 -13.365  1.00  0.00     0.189 HD
BRANCH  17  19
HETATM   19  O5  UNL     1      40.075  32.773 -12.484  1.00  0.00    -0.289 OA
HETATM   20  C13 UNL     1      40.521  32.768 -11.148  1.00  0.00     0.237 C 
ENDBRANCH  17  19
ENDBRANCH  16  17
BRANCH  16  21
HETATM   21  C14 UNL     1      42.455  34.805 -13.608  1.00  0.00     0.052 A 
HETATM   22  C15 UNL     1      43.080  35.757 -14.379  1.00  0.00     0.081 A 
HETATM   23  S2  UNL     1      44.394  36.215 -13.407  1.00  0.00    -0.064 SA
HETATM   24  C16 UNL     1      44.091  35.186 -12.085  1.00  0.00     0.142 A 
HETATM   25  N6  UNL     1      42.981  34.530 -12.450  1.00  0.00    -0.338 N 
ATOM     26  H6  UNL     1      42.560  33.832 -11.837  1.00  0.00     0.168 HD
BRANCH  24  27
HETATM   27  N5  UNL     1      44.785  35.060 -10.987  1.00  0.00    -0.380 N 
ATOM     28  H52 UNL     1      45.715  34.659 -10.865  1.00  0.00     0.158 HD
ATOM     29  H51 UNL     1      44.529  35.353 -10.044  1.00  0.00     0.158 HD
ENDBRANCH  24  27
ENDBRANCH  16  21
ENDBRANCH  14  16
ENDBRANCH  13  14
ENDBRANCH   4  13
BRANCH   2  30
HETATM   30  O2  UNL     1      38.483  32.194 -14.723  1.00  0.00    -0.384 OA
ATOM     31  H2  UNL     1      38.449  32.496 -13.824  1.00  0.00     0.210 HD
ENDBRANCH   2  30
BRANCH   5  32
HETATM   32  C18 UNL     1      37.729  36.519 -16.728  1.00  0.00     0.117 C 
HETATM   33  C19 UNL     1      38.351  37.467 -17.883  1.00  0.00     0.055 C 
BRANCH  32  34
HETATM   34  O6  UNL     1      38.237  37.230 -15.650  1.00  0.00    -0.382 OA
ATOM     35  H6  UNL     1      37.624  37.651 -15.058  1.00  0.00     0.211 HD
ENDBRANCH  32  34
BRANCH  32  36
HETATM   36  C20 UNL     1      36.278  36.853 -16.866  1.00  0.00     0.207 C 
BRANCH  36  37
HETATM   37  O7  UNL     1      35.409  36.225 -15.988  1.00  0.00    -0.398 OA
ATOM     38  H7  UNL     1      34.484  36.263 -16.203  1.00  0.00     0.209 HD
ENDBRANCH  36  37
ENDBRANCH  32  36
ENDBRANCH   5  32
BRANCH   1  39
HETATM   39  N3  UNL     1      37.654  31.113 -16.878  1.00  0.00    -0.203 N 
HETATM   40  C6  UNL     1      38.891  30.969 -17.179  1.00  0.00     0.684 A 
HETATM   41  N2  UNL     1      39.297  29.738 -17.541  1.00  0.00    -0.170 N 
HETATM   42  N8  UNL     1      39.827  31.924 -17.166  1.00  0.00    -0.155 N 
HETATM   43  C4  UNL     1      40.591  29.489 -17.867  1.00  0.00     0.162 A 
ATOM     44  H2  UNL     1      38.619  28.977 -17.570  1.00  0.00     0.186 HD
HETATM   45  N1  UNL     1      41.506  30.468 -17.843  1.00  0.00    -0.302 N 
HETATM   46  C3  UNL     1      41.123  31.710 -17.489  1.00  0.00     0.239 A 
ATOM     47  H1  UNL     1      42.477  30.276 -18.087  1.00  0.00     0.171 HD
ATOM     48  H8  UNL     1      39.548  32.867 -16.897  1.00  0.00     0.188 HD
ATOM     49  H3  UNL     1      37.083  30.271 -16.945  1.00  0.00     0.179 HD
BRANCH  43  50
HETATM   50  S1  UNL     1      41.062  27.807 -18.291  1.00  0.00    -0.098 SA
HETATM   51  C5  UNL     1      42.528  27.352 -17.360  1.00  0.00     0.099 C 
ENDBRANCH  43  50
BRANCH  46  52
HETATM   52  O1  UNL     1      42.000  32.772 -17.444  1.00  0.00    -0.322 OA
BRANCH  52  53
HETATM   53  C2  UNL     1      41.682  34.097 -17.692  1.00  0.00     0.174 C 
HETATM   54  C1  UNL     1      42.771  34.683 -18.596  1.00  0.00     0.034 C 
ENDBRANCH  52  53
ENDBRANCH  46  52
ENDBRANCH   1  39
TORSDOF 16
ENDMDL
MODEL 4
REMARK VINA RESULT: -6.101618620      1.149      2.372
REMARK  16 active torsions:
REMARK  status: ('A' for Active; 'I' for Inactive)
REMARK    1  A    between atoms: C2_2  and  O1_3 
REMARK    2  A    between atoms: O1_3  and  C3_4 
REMARK    3  A    between atoms: C4_7  and  S1_8 
REMARK    4  A    between atoms: N3_13  and  C7_15 
REMARK    5  A    between atoms: C8_16  and  O2_18 
REMARK    6  A    between atoms: C10_20  and  O3_21 
REMARK    7  A    between atoms: O3_21  and  C11_22 
REMARK    8  A    between atoms: C11_22  and  C12_24 
REMARK    9  A    between atoms: C12_24  and  N4_25 
REMARK   10  A    between atoms: C12_24  and  C14_29 
REMARK   11  A    between atoms: N4_25  and  O5_27 
REMARK   12  A    between atoms: C16_32  and  N5_33 
REMARK   13  A    between atoms: C17_38  and  C18_39 
REMARK   14  A    between atoms: C18_39  and  O6_41 
REMARK   15  A    between atoms: C18_39  and  C20_43 
REMARK   16  A    between atoms: C20_43  and  O7_44 
REMARK       I    between atoms: N7_46  and  C21_47 
ROOT
HETATM    1  C7  UNL     1      51.052  31.105  -9.824  1.00  0.00     0.280 C 
HETATM    2  C8  UNL     1      51.409  29.726 -10.142  1.00  0.00     0.122 C 
HETATM    3  C9  UNL     1      51.200  28.914  -8.839  1.00  0.00     0.052 C 
HETATM    4  C10 UNL     1      52.622  29.359 -10.836  1.00  0.00     0.219 C 
HETATM    5  C17 UNL     1      53.918  30.063 -10.608  1.00  0.00     0.080 C 
HETATM    6  N7  UNL     1      53.731  31.516 -10.574  1.00  0.00    -0.183 N 
HETATM    7  C21 UNL     1      54.309  32.515 -11.342  1.00  0.00     0.304 C 
HETATM    8  O8  UNL     1      55.088  32.420 -12.302  1.00  0.00    -0.629 OA
HETATM    9  O9  UNL     1      54.003  33.867 -11.024  1.00  0.00    -0.629 OA
HETATM   10  S3  UNL     1      52.487  32.102  -9.460  1.00  0.00     0.266 S 
HETATM   11  O10 UNL     1      52.047  33.508  -9.830  1.00  0.00    -0.203 OA
HETATM   12  O11 UNL     1      52.862  32.133  -8.065  1.00  0.00    -0.203 OA
ENDROOT
BRANCH   4  13
HETATM   13  O3  UNL     1      52.763  27.960 -10.790  1.00  0.00    -0.305 OA
BRANCH  13  14
HETATM   14  C11 UNL     1      52.689  27.070 -11.835  1.00  0.00     0.290 C 
HETATM   15  O4  UNL     1      52.805  25.837 -11.473  1.00  0.00    -0.262 OA
BRANCH  14  16
HETATM   16  C12 UNL     1      52.492  27.402 -13.255  1.00  0.00     0.255 C 
BRANCH  16  17
HETATM   17  N4  UNL     1      52.022  26.417 -14.143  1.00  0.00    -0.283 N 
ATOM     18  H4  UNL     1      52.613  25.651 -14.463  1.00  0.00     0.189 HD
BRANCH  17  19
HETATM   19  O5  UNL     1      50.734  26.549 -14.548  1.00  0.00    -0.289 OA
HETATM   20  C13 UNL     1      50.696  26.794 -15.934  1.00  0.00     0.237 C 
ENDBRANCH  17  19
ENDBRANCH  16  17
BRANCH  16  21
HETATM   21  C14 UNL     1      53.930  27.742 -13.805  1.00  0.00     0.052 A 
HETATM   22  C15 UNL     1      54.127  28.123 -15.111  1.00  0.00     0.081 A 
HETATM   23  S2  UNL     1      55.812  28.313 -15.189  1.00  0.00    -0.064 SA
HETATM   24  C16 UNL     1      56.179  27.902 -13.578  1.00  0.00     0.142 A 
HETATM   25  N6  UNL     1      54.980  27.636 -13.045  1.00  0.00    -0.338 N 
ATOM     26  H6  UNL     1      54.892  27.357 -12.068  1.00  0.00     0.168 HD
BRANCH  24  27
HETATM   27  N5  UNL     1      57.352  27.848 -13.009  1.00  0.00    -0.380 N 
ATOM     28  H52 UNL     1      58.110  27.185 -13.175  1.00  0.00     0.158 HD
ATOM     29  H51 UNL     1      57.735  28.468 -12.295  1.00  0.00     0.158 HD
ENDBRANCH  24  27
ENDBRANCH  16  21
ENDBRANCH  14  16
ENDBRANCH  13  14
ENDBRANCH   4  13
BRANCH   2  30
HETATM   30  O2  UNL     1      50.323  29.214 -10.927  1.00  0.00    -0.384 OA
ATOM     31  H2  UNL     1      49.932  28.523 -10.406  1.00  0.00     0.210 HD
ENDBRANCH   2  30
BRANCH   5  32
HETATM   32  C18 UNL     1      55.029  29.462  -9.885  1.00  0.00     0.117 C 
HETATM   33  C19 UNL     1      56.393  30.237 -10.280  1.00  0.00     0.055 C 
BRANCH  32  34
HETATM   34  O6  UNL     1      55.453  28.196 -10.263  1.00  0.00    -0.382 OA
ATOM     35  H6  UNL     1      56.332  27.925 -10.026  1.00  0.00     0.211 HD
ENDBRANCH  32  34
BRANCH  32  36
HETATM   36  C20 UNL     1      55.096  29.551  -8.395  1.00  0.00     0.207 C 
BRANCH  36  37
HETATM   37  O7  UNL     1      55.601  30.728  -7.864  1.00  0.00    -0.398 OA
ATOM     38  H7  UNL     1      55.158  31.075  -7.098  1.00  0.00     0.209 HD
ENDBRANCH  36  37
ENDBRANCH  32  36
ENDBRANCH   5  32
BRANCH   1  39
HETATM   39  N3  UNL     1      50.212  31.756 -10.771  1.00  0.00    -0.203 N 
HETATM   40  C6  UNL     1      49.341  32.674 -10.571  1.00  0.00     0.684 A 
HETATM   41  N2  UNL     1      48.673  33.133 -11.646  1.00  0.00    -0.170 N 
HETATM   42  N8  UNL     1      49.028  33.229  -9.396  1.00  0.00    -0.155 N 
HETATM   43  C4  UNL     1      47.739  34.111 -11.532  1.00  0.00     0.162 A 
ATOM     44  H2  UNL     1      48.873  32.738 -12.565  1.00  0.00     0.186 HD
HETATM   45  N1  UNL     1      47.450  34.649 -10.339  1.00  0.00    -0.302 N 
HETATM   46  C3  UNL     1      48.101  34.202  -9.247  1.00  0.00     0.239 A 
ATOM     47  H1  UNL     1      46.749  35.385 -10.258  1.00  0.00     0.171 HD
ATOM     48  H8  UNL     1      49.518  32.900  -8.564  1.00  0.00     0.188 HD
ATOM     49  H3  UNL     1      50.318  31.451 -11.739  1.00  0.00     0.179 HD
BRANCH  43  50
HETATM   50  S1  UNL     1      46.928  34.704 -13.023  1.00  0.00    -0.098 SA
HETATM   51  C5  UNL     1      45.585  35.805 -12.567  1.00  0.00     0.099 C 
ENDBRANCH  43  50
BRANCH  46  52
HETATM   52  O1  UNL     1      47.859  34.698  -7.985  1.00  0.00    -0.322 OA
BRANCH  52  53
HETATM   53  C2  UNL     1      48.797  35.280  -7.149  1.00  0.00     0.174 C 
HETATM   54  C1  UNL     1      49.277  36.577  -7.808  1.00  0.00     0.034 C 
ENDBRANCH  52  53
ENDBRANCH  46  52
ENDBRANCH   1  39
TORSDOF 16
ENDMDL
MODEL 5
REMARK VINA RESULT: -6.034683331     10.709     14.226
REMARK  16 active torsions:
REMARK  status: ('A' for Active; 'I' for Inactive)
REMARK    1  A    between atoms: C2_2  and  O1_3 
REMARK    2  A    between atoms: O1_3  and  C3_4 
REMARK    3  A    between atoms: C4_7  and  S1_8 
REMARK    4  A    between atoms: N3_13  and  C7_15 
REMARK    5  A    between atoms: C8_16  and  O2_18 
REMARK    6  A    between atoms: C10_20  and  O3_21 
REMARK    7  A    between atoms: O3_21  and  C11_22 
REMARK    8  A    between atoms: C11_22  and  C12_24 
REMARK    9  A    between atoms: C12_24  and  N4_25 
REMARK   10  A    between atoms: C12_24  and  C14_29 
REMARK   11  A    between atoms: N4_25  and  O5_27 
REMARK   12  A    between atoms: C16_32  and  N5_33 
REMARK   13  A    between atoms: C17_38  and  C18_39 
REMARK   14  A    between atoms: C18_39  and  O6_41 
REMARK   15  A    between atoms: C18_39  and  C20_43 
REMARK   16  A    between atoms: C20_43  and  O7_44 
REMARK       I    between atoms: N7_46  and  C21_47 
ROOT
HETATM    1  C7  UNL     1      40.856  34.457 -17.791  1.00  0.00     0.280 C 
HETATM    2  C8  UNL     1      40.849  32.998 -17.723  1.00  0.00     0.122 C 
HETATM    3  C9  UNL     1      41.043  32.498 -19.176  1.00  0.00     0.052 C 
HETATM    4  C10 UNL     1      39.851  32.242 -17.004  1.00  0.00     0.219 C 
HETATM    5  C17 UNL     1      38.415  32.649 -16.960  1.00  0.00     0.080 C 
HETATM    6  N7  UNL     1      38.282  34.089 -16.719  1.00  0.00    -0.183 N 
HETATM    7  C21 UNL     1      37.617  34.773 -15.715  1.00  0.00     0.304 C 
HETATM    8  O8  UNL     1      37.018  34.333 -14.723  1.00  0.00    -0.629 OA
HETATM    9  O9  UNL     1      37.580  36.194 -15.783  1.00  0.00    -0.629 OA
HETATM   10  S3  UNL     1      39.205  35.135 -17.807  1.00  0.00     0.266 S 
HETATM   11  O10 UNL     1      39.382  36.519 -17.207  1.00  0.00    -0.203 OA
HETATM   12  O11 UNL     1      38.642  35.319 -19.125  1.00  0.00    -0.203 OA
ENDROOT
BRANCH   4  13
HETATM   13  O3  UNL     1      40.006  30.879 -17.316  1.00  0.00    -0.305 OA
BRANCH  13  14
HETATM   14  C11 UNL     1      40.492  29.878 -16.507  1.00  0.00     0.290 C 
HETATM   15  O4  UNL     1      40.338  30.112 -15.247  1.00  0.00    -0.262 OA
BRANCH  14  16
HETATM   16  C12 UNL     1      41.133  28.630 -16.949  1.00  0.00     0.255 C 
BRANCH  16  17
HETATM   17  N4  UNL     1      42.201  28.680 -17.864  1.00  0.00    -0.283 N 
ATOM     18  H4  UNL     1      43.151  28.421 -17.599  1.00  0.00     0.189 HD
BRANCH  17  19
HETATM   19  O5  UNL     1      41.891  29.093 -19.117  1.00  0.00    -0.289 OA
HETATM   20  C13 UNL     1      43.071  29.400 -19.820  1.00  0.00     0.237 C 
ENDBRANCH  17  19
ENDBRANCH  16  17
BRANCH  16  21
HETATM   21  C14 UNL     1      40.013  27.841 -17.728  1.00  0.00     0.052 A 
HETATM   22  C15 UNL     1      40.189  26.532 -18.110  1.00  0.00     0.081 A 
HETATM   23  S2  UNL     1      38.747  26.192 -18.937  1.00  0.00    -0.064 SA
HETATM   24  C16 UNL     1      37.998  27.711 -18.760  1.00  0.00     0.142 A 
HETATM   25  N6  UNL     1      38.898  28.421 -18.066  1.00  0.00    -0.338 N 
ATOM     26  H6  UNL     1      38.714  29.390 -17.809  1.00  0.00     0.168 HD
BRANCH  24  27
HETATM   27  N5  UNL     1      36.834  28.092 -19.209  1.00  0.00    -0.380 N 
ATOM     28  H52 UNL     1      36.251  27.650 -19.919  1.00  0.00     0.158 HD
ATOM     29  H51 UNL     1      36.282  28.901 -18.921  1.00  0.00     0.158 HD
ENDBRANCH  24  27
ENDBRANCH  16  21
ENDBRANCH  14  16
ENDBRANCH  13  14
ENDBRANCH   4  13
BRANCH   2  30
HETATM   30  O2  UNL     1      42.118  32.629 -17.165  1.00  0.00    -0.384 OA
ATOM     31  H2  UNL     1      42.081  31.688 -17.042  1.00  0.00     0.210 HD
ENDBRANCH   2  30
BRANCH   5  32
HETATM   32  C18 UNL     1      37.368  31.938 -17.679  1.00  0.00     0.117 C 
HETATM   33  C19 UNL     1      35.945  32.641 -17.365  1.00  0.00     0.055 C 
BRANCH  32  34
HETATM   34  O6  UNL     1      37.015  30.669 -17.243  1.00  0.00    -0.382 OA
ATOM     35  H6  UNL     1      37.128  29.939 -17.841  1.00  0.00     0.211 HD
ENDBRANCH  32  34
BRANCH  32  36
HETATM   36  C20 UNL     1      37.342  31.943 -19.173  1.00  0.00     0.207 C 
BRANCH  36  37
HETATM   37  O7  UNL     1      38.042  30.930 -19.811  1.00  0.00    -0.398 OA
ATOM     38  H7  UNL     1      37.634  30.548 -20.579  1.00  0.00     0.209 HD
ENDBRANCH  36  37
ENDBRANCH  32  36
ENDBRANCH   5  32
BRANCH   1  39
HETATM   39  N3  UNL     1      41.662  35.113 -16.817  1.00  0.00    -0.203 N 
HETATM   40  C6  UNL     1      41.756  34.872 -15.562  1.00  0.00     0.684 A 
HETATM   41  N2  UNL     1      42.602  35.640 -14.850  1.00  0.00    -0.170 N 
HETATM   42  N8  UNL     1      41.098  33.926 -14.884  1.00  0.00    -0.155 N 
HETATM   43  C4  UNL     1      42.774  35.451 -13.517  1.00  0.00     0.162 A 
ATOM     44  H2  UNL     1      43.124  36.378 -15.322  1.00  0.00     0.186 HD
HETATM   45  N1  UNL     1      42.100  34.493 -12.866  1.00  0.00    -0.302 N 
HETATM   46  C3  UNL     1      41.244  33.715 -13.556  1.00  0.00     0.239 A 
ATOM     47  H1  UNL     1      42.234  34.354 -11.865  1.00  0.00     0.171 HD
ATOM     48  H8  UNL     1      40.449  33.330 -15.397  1.00  0.00     0.188 HD
ATOM     49  H3  UNL     1      42.242  35.876 -17.164  1.00  0.00     0.179 HD
BRANCH  43  50
HETATM   50  S1  UNL     1      43.960  36.486 -12.648  1.00  0.00    -0.098 SA
HETATM   51  C5  UNL     1      45.617  35.863 -12.945  1.00  0.00     0.099 C 
ENDBRANCH  43  50
BRANCH  46  52
HETATM   52  O1  UNL     1      40.509  32.712 -12.961  1.00  0.00    -0.322 OA
BRANCH  52  53
HETATM   53  C2  UNL     1      39.230  32.840 -12.447  1.00  0.00     0.174 C 
HETATM   54  C1  UNL     1      38.304  31.920 -13.249  1.00  0.00     0.034 C 
ENDBRANCH  52  53
ENDBRANCH  46  52
ENDBRANCH   1  39
TORSDOF 16
ENDMDL
