MODEL 1
REMARK VINA RESULT: -8.208525700      0.000      0.000
REMARK  13 active torsions:
REMARK  status: ('A' for Active; 'I' for Inactive)
REMARK    1  A    between atoms: S1_2  and  C2_3 
REMARK    2  A    between atoms: N1_7  and  O2_9 
REMARK    3  A    between atoms: C5_11  and  S2_12 
REMARK    4  A    between atoms: S2_12  and  C6_13 
REMARK    5  A    between atoms: C7_14  and  C8_15 
REMARK    6  A    between atoms: C10_23  and  C11_24 
REMARK       I    between atoms: N4_26  and  C13_28 
REMARK    7  A    between atoms: C13_28  and  C14_30 
REMARK    8  A    between atoms: C14_30  and  C15_31 
REMARK    9  A    between atoms: C14_30  and  O7_34 
REMARK   10  A    between atoms: C15_31  and  O6_32 
REMARK   11  A    between atoms: O7_34  and  C16_35 
REMARK   12  A    between atoms: C16_35  and  C17_36 
REMARK   13  A    between atoms: C21_52  and  O10_53 
ROOT
HETATM    1  C6  UNL     1      49.948  32.730 -10.299  1.00  0.00     0.104 C 
HETATM    2  C7  UNL     1      50.670  33.560  -9.489  1.00  0.00     0.154 C 
HETATM    3  N2  UNL     1      49.921  34.643  -9.007  1.00  0.00    -0.256 N 
HETATM    4  C9  UNL     1      50.666  35.236  -8.007  1.00  0.00     0.104 C 
HETATM    5  N3  UNL     1      51.598  35.789  -8.497  1.00  0.00    -0.387 N 
ATOM      6  H31 UNL     1      52.148  36.227  -7.758  1.00  0.00     0.157 HD
ATOM      7  H32 UNL     1      51.906  35.812  -9.470  1.00  0.00     0.157 HD
HETATM    8  C10 UNL     1      50.203  35.202  -6.542  1.00  0.00     0.191 C 
HETATM    9  C18 UNL     1      48.743  34.902  -6.490  1.00  0.00     0.239 C 
HETATM   10  O8  UNL     1      48.322  35.032  -5.295  1.00  0.00    -0.272 OA
HETATM   11  N9  UNL     1      47.658  34.515  -7.358  1.00  0.00    -0.321 N 
ATOM     12  H9  UNL     1      46.722  34.799  -7.068  1.00  0.00     0.169 HD
HETATM   13  C19 UNL     1      47.745  33.815  -8.515  1.00  0.00     0.130 C 
HETATM   14  C20 UNL     1      48.577  34.933  -9.305  1.00  0.00     0.281 C 
HETATM   15  O9  UNL     1      47.981  35.722  -9.934  1.00  0.00    -0.265 OA
HETATM   16  C21 UNL     1      47.368  33.148  -9.645  1.00  0.00     0.275 C 
HETATM   17  N10 UNL     1      48.501  32.877 -10.565  1.00  0.00    -0.351 N 
ATOM     18  H10 UNL     1      48.237  32.775 -11.545  1.00  0.00     0.163 HD
ENDROOT
BRANCH   8  19
HETATM   19  C11 UNL     1      50.467  36.505  -5.956  1.00  0.00     0.006 C 
HETATM   20  C12 UNL     1      51.805  36.747  -5.314  1.00  0.00     0.064 C 
HETATM   21  N4  UNL     1      49.603  37.453  -5.963  1.00  0.00    -0.331 N 
HETATM   22  C13 UNL     1      49.822  38.728  -5.405  1.00  0.00     0.253 C 
ATOM     23  H4  UNL     1      48.699  37.271  -6.401  1.00  0.00     0.168 HD
HETATM   24  O5  UNL     1      50.481  38.903  -4.361  1.00  0.00    -0.270 OA
BRANCH  22  25
HETATM   25  C14 UNL     1      49.246  39.917  -6.084  1.00  0.00     0.237 C 
BRANCH  25  26
HETATM   26  C15 UNL     1      49.993  40.284  -7.330  1.00  0.00     0.205 C 
BRANCH  26  27
HETATM   27  O6  UNL     1      51.138  39.503  -7.490  1.00  0.00    -0.398 OA
ATOM     28  H6  UNL     1      51.012  38.829  -8.148  1.00  0.00     0.209 HD
ENDBRANCH  26  27
ENDBRANCH  25  26
BRANCH  25  29
HETATM   29  O7  UNL     1      49.165  41.013  -5.256  1.00  0.00    -0.367 OA
BRANCH  29  30
HETATM   30  C16 UNL     1      47.995  41.114  -4.543  1.00  0.00     0.248 C 
BRANCH  30  31
HETATM   31  C17 UNL     1      48.376  41.200  -3.090  1.00  0.00     0.137 A 
HETATM   32  N5  UNL     1      49.595  41.482  -2.647  1.00  0.00    -0.270 N 
HETATM   33  N6  UNL     1      49.547  41.469  -1.322  1.00  0.00    -0.227 N 
ATOM     34  H5  UNL     1      50.418  41.672  -3.220  1.00  0.00     0.190 HD
HETATM   35  N7  UNL     1      48.335  41.187  -0.909  1.00  0.00    -0.227 N 
ATOM     36  H6  UNL     1      50.342  41.652  -0.710  1.00  0.00     0.210 HD
HETATM   37  N8  UNL     1      47.608  41.020  -2.014  1.00  0.00    -0.270 N 
ATOM     38  H7  UNL     1      48.014  41.111   0.056  1.00  0.00     0.210 HD
ATOM     39  H8  UNL     1      46.615  40.790  -2.033  1.00  0.00     0.190 HD
ENDBRANCH  30  31
ENDBRANCH  29  30
ENDBRANCH  25  29
ENDBRANCH  22  25
ENDBRANCH   8  19
BRANCH   2  40
HETATM   40  C8  UNL     1      51.973  33.180  -9.284  1.00  0.00     0.230 C 
HETATM   41  O3  UNL     1      52.841  33.465 -10.197  1.00  0.00    -0.643 OA
HETATM   42  O4  UNL     1      52.658  32.503  -8.268  1.00  0.00    -0.643 OA
ENDBRANCH   2  40
BRANCH   1  43
HETATM   43  S2  UNL     1      50.687  31.318 -11.006  1.00  0.00    -0.086 SA
BRANCH  43  44
HETATM   44  C5  UNL     1      50.453  29.881  -9.979  1.00  0.00     0.195 C 
HETATM   45  C4  UNL     1      51.786  29.216  -9.846  1.00  0.00     0.164 C 
HETATM   46  O1  UNL     1      52.137  28.515 -10.956  1.00  0.00    -0.303 OA
HETATM   47  N1  UNL     1      52.498  29.320  -8.777  1.00  0.00    -0.249 N 
HETATM   48  C2  UNL     1      51.148  27.716 -11.516  1.00  0.00     0.163 C 
HETATM   49  C3  UNL     1      51.160  27.923 -13.028  1.00  0.00     0.072 C 
HETATM   50  S3  UNL     1      49.615  28.526 -10.907  1.00  0.00    -0.096 SA
ATOM     51  H1  UNL     1      53.396  28.838  -8.762  1.00  0.00     0.196 HD
BRANCH  48  52
HETATM   52  S1  UNL     1      51.221  25.990 -11.068  1.00  0.00    -0.124 SA
HETATM   53  C1  UNL     1      52.735  25.717 -10.069  1.00  0.00     0.093 C 
ENDBRANCH  48  52
BRANCH  47  54
HETATM   54  O2  UNL     1      52.148  30.020  -7.668  1.00  0.00    -0.288 OA
ATOM     55  H2  UNL     1      52.454  30.893  -7.451  1.00  0.00     0.244 HD
ENDBRANCH  47  54
ENDBRANCH  43  44
ENDBRANCH   1  43
BRANCH  16  56
HETATM   56  O10 UNL     1      46.406  33.797 -10.451  1.00  0.00    -0.371 OA
ATOM     57  H10 UNL     1      46.194  33.366 -11.269  1.00  0.00     0.212 HD
ENDBRANCH  16  56
TORSDOF 13
ENDMDL
MODEL 2
REMARK VINA RESULT: -8.177135676      8.585     11.325
REMARK  13 active torsions:
REMARK  status: ('A' for Active; 'I' for Inactive)
REMARK    1  A    between atoms: S1_2  and  C2_3 
REMARK    2  A    between atoms: N1_7  and  O2_9 
REMARK    3  A    between atoms: C5_11  and  S2_12 
REMARK    4  A    between atoms: S2_12  and  C6_13 
REMARK    5  A    between atoms: C7_14  and  C8_15 
REMARK    6  A    between atoms: C10_23  and  C11_24 
REMARK       I    between atoms: N4_26  and  C13_28 
REMARK    7  A    between atoms: C13_28  and  C14_30 
REMARK    8  A    between atoms: C14_30  and  C15_31 
REMARK    9  A    between atoms: C14_30  and  O7_34 
REMARK   10  A    between atoms: C15_31  and  O6_32 
REMARK   11  A    between atoms: O7_34  and  C16_35 
REMARK   12  A    between atoms: C16_35  and  C17_36 
REMARK   13  A    between atoms: C21_52  and  O10_53 
ROOT
HETATM    1  C6  UNL     1      39.093  32.347 -16.596  1.00  0.00     0.104 C 
HETATM    2  C7  UNL     1      40.227  33.011 -16.218  1.00  0.00     0.154 C 
HETATM    3  N2  UNL     1      40.041  33.806 -15.079  1.00  0.00    -0.256 N 
HETATM    4  C9  UNL     1      41.295  34.194 -14.648  1.00  0.00     0.104 C 
HETATM    5  N3  UNL     1      41.739  34.982 -15.420  1.00  0.00    -0.387 N 
ATOM      6  H31 UNL     1      42.665  35.269 -15.102  1.00  0.00     0.157 HD
ATOM      7  H32 UNL     1      41.358  35.315 -16.306  1.00  0.00     0.157 HD
HETATM    8  C10 UNL     1      41.869  33.694 -13.314  1.00  0.00     0.191 C 
HETATM    9  C18 UNL     1      40.759  33.196 -12.451  1.00  0.00     0.239 C 
HETATM   10  O8  UNL     1      41.207  32.932 -11.288  1.00  0.00    -0.272 OA
HETATM   11  N9  UNL     1      39.344  32.921 -12.511  1.00  0.00    -0.321 N 
ATOM     12  H9  UNL     1      38.832  32.984 -11.631  1.00  0.00     0.169 HD
HETATM   13  C19 UNL     1      38.621  32.587 -13.608  1.00  0.00     0.130 C 
HETATM   14  C20 UNL     1      38.842  33.982 -14.364  1.00  0.00     0.281 C 
HETATM   15  O9  UNL     1      38.044  34.826 -14.207  1.00  0.00    -0.265 OA
HETATM   16  C21 UNL     1      37.562  32.214 -14.384  1.00  0.00     0.275 C 
HETATM   17  N10 UNL     1      37.825  32.365 -15.836  1.00  0.00    -0.351 N 
ATOM     18  H10 UNL     1      36.990  32.504 -16.407  1.00  0.00     0.163 HD
ENDROOT
BRANCH   8  19
HETATM   19  C11 UNL     1      42.544  34.807 -12.668  1.00  0.00     0.006 C 
HETATM   20  C12 UNL     1      41.716  35.817 -11.925  1.00  0.00     0.064 C 
HETATM   21  N4  UNL     1      43.817  34.960 -12.712  1.00  0.00    -0.331 N 
HETATM   22  C13 UNL     1      44.507  36.025 -12.099  1.00  0.00     0.253 C 
ATOM     23  H4  UNL     1      44.364  34.267 -13.222  1.00  0.00     0.168 HD
HETATM   24  O5  UNL     1      44.046  37.182 -12.041  1.00  0.00    -0.270 OA
BRANCH  22  25
HETATM   25  C14 UNL     1      45.840  35.765 -11.497  1.00  0.00     0.237 C 
BRANCH  25  26
HETATM   26  C15 UNL     1      46.881  35.446 -12.525  1.00  0.00     0.205 C 
BRANCH  26  27
HETATM   27  O6  UNL     1      46.499  35.881 -13.795  1.00  0.00    -0.398 OA
ATOM     28  H6  UNL     1      47.252  36.094 -14.333  1.00  0.00     0.209 HD
ENDBRANCH  26  27
ENDBRANCH  25  26
BRANCH  25  29
HETATM   29  O7  UNL     1      45.807  34.767 -10.550  1.00  0.00    -0.367 OA
BRANCH  29  30
HETATM   30  C16 UNL     1      47.022  34.188 -10.278  1.00  0.00     0.248 C 
BRANCH  30  31
HETATM   31  C17 UNL     1      47.666  35.014  -9.198  1.00  0.00     0.137 A 
HETATM   32  N5  UNL     1      48.731  35.786  -9.374  1.00  0.00    -0.270 N 
HETATM   33  N6  UNL     1      49.006  36.353  -8.208  1.00  0.00    -0.227 N 
ATOM     34  H5  UNL     1      49.244  35.918 -10.246  1.00  0.00     0.190 HD
HETATM   35  N7  UNL     1      48.148  35.966  -7.295  1.00  0.00    -0.227 N 
ATOM     36  H6  UNL     1      49.776  37.001  -8.044  1.00  0.00     0.210 HD
HETATM   37  N8  UNL     1      47.314  35.131  -7.916  1.00  0.00    -0.270 N 
ATOM     38  H7  UNL     1      48.123  36.245  -6.315  1.00  0.00     0.210 HD
ATOM     39  H8  UNL     1      46.527  34.655  -7.477  1.00  0.00     0.190 HD
ENDBRANCH  30  31
ENDBRANCH  29  30
ENDBRANCH  25  29
ENDBRANCH  22  25
ENDBRANCH   8  19
BRANCH   2  40
HETATM   40  C8  UNL     1      41.328  32.769 -17.001  1.00  0.00     0.230 C 
HETATM   41  O3  UNL     1      41.673  33.668 -17.861  1.00  0.00    -0.643 OA
HETATM   42  O4  UNL     1      42.241  31.715 -17.125  1.00  0.00    -0.643 OA
ENDBRANCH   2  40
BRANCH   1  43
HETATM   43  S2  UNL     1      39.103  31.300 -17.990  1.00  0.00    -0.086 SA
BRANCH  43  44
HETATM   44  C5  UNL     1      39.035  29.585 -17.513  1.00  0.00     0.195 C 
HETATM   45  C4  UNL     1      40.440  29.152 -17.235  1.00  0.00     0.164 C 
HETATM   46  O1  UNL     1      41.155  28.932 -18.370  1.00  0.00    -0.303 OA
HETATM   47  N1  UNL     1      40.888  29.012 -16.036  1.00  0.00    -0.249 N 
HETATM   48  C2  UNL     1      40.516  28.211 -19.370  1.00  0.00     0.163 C 
HETATM   49  C3  UNL     1      40.764  28.910 -20.704  1.00  0.00     0.072 C 
HETATM   50  S3  UNL     1      38.745  28.496 -18.972  1.00  0.00    -0.096 SA
ATOM     51  H1  UNL     1      41.857  28.714 -15.928  1.00  0.00     0.196 HD
BRANCH  48  52
HETATM   52  S1  UNL     1      40.921  26.473 -19.430  1.00  0.00    -0.124 SA
HETATM   53  C1  UNL     1      42.181  26.129 -18.143  1.00  0.00     0.093 C 
ENDBRANCH  48  52
BRANCH  47  54
HETATM   54  O2  UNL     1      40.173  29.230 -14.903  1.00  0.00    -0.288 OA
ATOM     55  H2  UNL     1      40.383  28.877 -14.046  1.00  0.00     0.244 HD
ENDBRANCH  47  54
ENDBRANCH  43  44
ENDBRANCH   1  43
BRANCH  16  56
HETATM   56  O10 UNL     1      36.360  32.925 -14.167  1.00  0.00    -0.371 OA
ATOM     57  H10 UNL     1      36.387  33.852 -14.369  1.00  0.00     0.212 HD
ENDBRANCH  16  56
TORSDOF 13
ENDMDL
MODEL 3
REMARK VINA RESULT: -7.576902366      9.440     12.407
REMARK  13 active torsions:
REMARK  status: ('A' for Active; 'I' for Inactive)
REMARK    1  A    between atoms: S1_2  and  C2_3 
REMARK    2  A    between atoms: N1_7  and  O2_9 
REMARK    3  A    between atoms: C5_11  and  S2_12 
REMARK    4  A    between atoms: S2_12  and  C6_13 
REMARK    5  A    between atoms: C7_14  and  C8_15 
REMARK    6  A    between atoms: C10_23  and  C11_24 
REMARK       I    between atoms: N4_26  and  C13_28 
REMARK    7  A    between atoms: C13_28  and  C14_30 
REMARK    8  A    between atoms: C14_30  and  C15_31 
REMARK    9  A    between atoms: C14_30  and  O7_34 
REMARK   10  A    between atoms: C15_31  and  O6_32 
REMARK   11  A    between atoms: O7_34  and  C16_35 
REMARK   12  A    between atoms: C16_35  and  C17_36 
REMARK   13  A    between atoms: C21_52  and  O10_53 
ROOT
HETATM    1  C6  UNL     1      38.797  32.569 -17.002  1.00  0.00     0.104 C 
HETATM    2  C7  UNL     1      39.931  33.206 -16.583  1.00  0.00     0.154 C 
HETATM    3  N2  UNL     1      39.761  33.883 -15.367  1.00  0.00    -0.256 N 
HETATM    4  C9  UNL     1      41.020  34.242 -14.926  1.00  0.00     0.104 C 
HETATM    5  N3  UNL     1      41.440  35.108 -15.625  1.00  0.00    -0.387 N 
ATOM      6  H31 UNL     1      42.369  35.373 -15.299  1.00  0.00     0.157 HD
ATOM      7  H32 UNL     1      41.036  35.521 -16.466  1.00  0.00     0.157 HD
HETATM    8  C10 UNL     1      41.628  33.619 -13.660  1.00  0.00     0.191 C 
HETATM    9  C18 UNL     1      40.541  33.026 -12.828  1.00  0.00     0.239 C 
HETATM   10  O8  UNL     1      41.017  32.653 -11.706  1.00  0.00    -0.272 OA
HETATM   11  N9  UNL     1      39.128  32.740 -12.886  1.00  0.00    -0.321 N 
ATOM     12  H9  UNL     1      38.635  32.710 -11.994  1.00  0.00     0.169 HD
HETATM   13  C19 UNL     1      38.386  32.507 -13.996  1.00  0.00     0.130 C 
HETATM   14  C20 UNL     1      38.576  33.972 -14.615  1.00  0.00     0.281 C 
HETATM   15  O9  UNL     1      37.773  34.787 -14.360  1.00  0.00    -0.265 OA
HETATM   16  C21 UNL     1      37.314  32.200 -14.784  1.00  0.00     0.275 C 
HETATM   17  N10 UNL     1      37.545  32.496 -16.219  1.00  0.00    -0.351 N 
ATOM     18  H10 UNL     1      36.697  32.680 -16.756  1.00  0.00     0.163 HD
ENDROOT
BRANCH   8  19
HETATM   19  C11 UNL     1      42.305  34.672 -12.921  1.00  0.00     0.006 C 
HETATM   20  C12 UNL     1      41.495  35.535 -11.994  1.00  0.00     0.064 C 
HETATM   21  N4  UNL     1      43.564  34.892 -13.032  1.00  0.00    -0.331 N 
HETATM   22  C13 UNL     1      44.255  35.903 -12.334  1.00  0.00     0.253 C 
ATOM     23  H4  UNL     1      44.098  34.299 -13.667  1.00  0.00     0.168 HD
HETATM   24  O5  UNL     1      43.753  37.018 -12.090  1.00  0.00    -0.270 OA
BRANCH  22  25
HETATM   25  C14 UNL     1      45.639  35.632 -11.866  1.00  0.00     0.237 C 
BRANCH  25  26
HETATM   26  C15 UNL     1      46.572  35.311 -12.992  1.00  0.00     0.205 C 
BRANCH  26  27
HETATM   27  O6  UNL     1      46.771  33.935 -13.117  1.00  0.00    -0.398 OA
ATOM     28  H6  UNL     1      46.981  33.692 -14.011  1.00  0.00     0.209 HD
ENDBRANCH  26  27
ENDBRANCH  25  26
BRANCH  25  29
HETATM   29  O7  UNL     1      45.693  34.632 -10.923  1.00  0.00    -0.367 OA
BRANCH  29  30
HETATM   30  C16 UNL     1      46.432  34.931  -9.805  1.00  0.00     0.248 C 
BRANCH  30  31
HETATM   31  C17 UNL     1      47.774  34.274  -9.982  1.00  0.00     0.137 A 
HETATM   32  N5  UNL     1      47.954  33.036 -10.426  1.00  0.00    -0.270 N 
HETATM   33  N6  UNL     1      49.260  32.810 -10.448  1.00  0.00    -0.227 N 
ATOM     34  H5  UNL     1      47.222  32.380 -10.701  1.00  0.00     0.190 HD
HETATM   35  N7  UNL     1      49.916  33.865 -10.030  1.00  0.00    -0.227 N 
ATOM     36  H6  UNL     1      49.694  31.937 -10.748  1.00  0.00     0.210 HD
HETATM   37  N8  UNL     1      48.987  34.776  -9.741  1.00  0.00    -0.270 N 
ATOM     38  H7  UNL     1      50.928  33.968  -9.945  1.00  0.00     0.210 HD
ATOM     39  H8  UNL     1      49.175  35.714  -9.388  1.00  0.00     0.190 HD
ENDBRANCH  30  31
ENDBRANCH  29  30
ENDBRANCH  25  29
ENDBRANCH  22  25
ENDBRANCH   8  19
BRANCH   2  40
HETATM   40  C8  UNL     1      41.018  33.056 -17.408  1.00  0.00     0.230 C 
HETATM   41  O3  UNL     1      41.234  33.963 -18.302  1.00  0.00    -0.643 OA
HETATM   42  O4  UNL     1      42.028  32.096 -17.550  1.00  0.00    -0.643 OA
ENDBRANCH   2  40
BRANCH   1  43
HETATM   43  S2  UNL     1      38.788  31.664 -18.493  1.00  0.00    -0.086 SA
BRANCH  43  44
HETATM   44  C5  UNL     1      39.182  29.950 -18.212  1.00  0.00     0.195 C 
HETATM   45  C4  UNL     1      39.815  29.435 -19.466  1.00  0.00     0.164 C 
HETATM   46  O1  UNL     1      38.910  29.191 -20.450  1.00  0.00    -0.303 OA
HETATM   47  N1  UNL     1      41.087  29.255 -19.566  1.00  0.00    -0.249 N 
HETATM   48  C2  UNL     1      37.755  28.519 -20.070  1.00  0.00     0.163 C 
HETATM   49  C3  UNL     1      36.557  29.221 -20.704  1.00  0.00     0.072 C 
HETATM   50  S3  UNL     1      37.669  28.897 -18.273  1.00  0.00    -0.096 SA
ATOM     51  H1  UNL     1      41.443  28.902 -20.453  1.00  0.00     0.196 HD
BRANCH  48  52
HETATM   52  S1  UNL     1      37.758  26.762 -20.388  1.00  0.00    -0.124 SA
HETATM   53  C1  UNL     1      38.675  25.933 -19.034  1.00  0.00     0.093 C 
ENDBRANCH  48  52
BRANCH  47  54
HETATM   54  O2  UNL     1      41.991  29.498 -18.584  1.00  0.00    -0.288 OA
ATOM     55  H2  UNL     1      41.780  29.652 -17.670  1.00  0.00     0.244 HD
ENDBRANCH  47  54
ENDBRANCH  43  44
ENDBRANCH   1  43
BRANCH  16  56
HETATM   56  O10 UNL     1      36.110  32.870 -14.473  1.00  0.00    -0.371 OA
ATOM     57  H10 UNL     1      35.330  32.330 -14.454  1.00  0.00     0.212 HD
ENDBRANCH  16  56
TORSDOF 13
ENDMDL
MODEL 4
REMARK VINA RESULT: -7.505473742      1.851      2.685
REMARK  13 active torsions:
REMARK  status: ('A' for Active; 'I' for Inactive)
REMARK    1  A    between atoms: S1_2  and  C2_3 
REMARK    2  A    between atoms: N1_7  and  O2_9 
REMARK    3  A    between atoms: C5_11  and  S2_12 
REMARK    4  A    between atoms: S2_12  and  C6_13 
REMARK    5  A    between atoms: C7_14  and  C8_15 
REMARK    6  A    between atoms: C10_23  and  C11_24 
REMARK       I    between atoms: N4_26  and  C13_28 
REMARK    7  A    between atoms: C13_28  and  C14_30 
REMARK    8  A    between atoms: C14_30  and  C15_31 
REMARK    9  A    between atoms: C14_30  and  O7_34 
REMARK   10  A    between atoms: C15_31  and  O6_32 
REMARK   11  A    between atoms: O7_34  and  C16_35 
REMARK   12  A    between atoms: C16_35  and  C17_36 
REMARK   13  A    between atoms: C21_52  and  O10_53 
ROOT
HETATM    1  C6  UNL     1      49.976  32.787 -10.207  1.00  0.00     0.104 C 
HETATM    2  C7  UNL     1      50.724  33.557  -9.361  1.00  0.00     0.154 C 
HETATM    3  N2  UNL     1      50.007  34.635  -8.824  1.00  0.00    -0.256 N 
HETATM    4  C9  UNL     1      50.772  35.158  -7.800  1.00  0.00     0.104 C 
HETATM    5  N3  UNL     1      51.717  35.709  -8.268  1.00  0.00    -0.387 N 
ATOM      6  H31 UNL     1      52.281  36.096  -7.511  1.00  0.00     0.157 HD
ATOM      7  H32 UNL     1      52.022  35.770  -9.239  1.00  0.00     0.157 HD
HETATM    8  C10 UNL     1      50.313  35.067  -6.336  1.00  0.00     0.191 C 
HETATM    9  C18 UNL     1      48.845  34.805  -6.292  1.00  0.00     0.239 C 
HETATM   10  O8  UNL     1      48.432  34.889  -5.090  1.00  0.00    -0.272 OA
HETATM   11  N9  UNL     1      47.746  34.490  -7.172  1.00  0.00    -0.321 N 
ATOM     12  H9  UNL     1      46.820  34.785  -6.865  1.00  0.00     0.169 HD
HETATM   13  C19 UNL     1      47.811  33.845  -8.362  1.00  0.00     0.130 C 
HETATM   14  C20 UNL     1      48.671  34.976  -9.102  1.00  0.00     0.281 C 
HETATM   15  O9  UNL     1      48.095  35.810  -9.689  1.00  0.00    -0.265 OA
HETATM   16  C21 UNL     1      47.412  33.243  -9.522  1.00  0.00     0.275 C 
HETATM   17  N10 UNL     1      48.533  32.986 -10.458  1.00  0.00    -0.351 N 
ATOM     18  H10 UNL     1      48.263  32.939 -11.441  1.00  0.00     0.163 HD
ENDROOT
BRANCH   8  19
HETATM   19  C11 UNL     1      50.615  36.332  -5.689  1.00  0.00     0.006 C 
HETATM   20  C12 UNL     1      52.055  36.737  -5.540  1.00  0.00     0.064 C 
HETATM   21  N4  UNL     1      49.701  37.112  -5.240  1.00  0.00    -0.331 N 
HETATM   22  C13 UNL     1      49.955  38.346  -4.607  1.00  0.00     0.253 C 
ATOM     23  H4  UNL     1      48.729  36.821  -5.347  1.00  0.00     0.168 HD
HETATM   24  O5  UNL     1      50.932  38.529  -3.854  1.00  0.00    -0.270 OA
BRANCH  22  25
HETATM   25  C14 UNL     1      49.022  39.478  -4.841  1.00  0.00     0.237 C 
BRANCH  25  26
HETATM   26  C15 UNL     1      47.790  39.391  -3.993  1.00  0.00     0.205 C 
BRANCH  26  27
HETATM   27  O6  UNL     1      46.909  38.418  -4.465  1.00  0.00    -0.398 OA
ATOM     28  H6  UNL     1      47.229  37.541  -4.287  1.00  0.00     0.209 HD
ENDBRANCH  26  27
ENDBRANCH  25  26
BRANCH  25  29
HETATM   29  O7  UNL     1      48.662  39.602  -6.164  1.00  0.00    -0.367 OA
BRANCH  29  30
HETATM   30  C16 UNL     1      49.253  40.649  -6.828  1.00  0.00     0.248 C 
BRANCH  30  31
HETATM   31  C17 UNL     1      50.331  40.060  -7.697  1.00  0.00     0.137 A 
HETATM   32  N5  UNL     1      51.491  40.649  -7.960  1.00  0.00    -0.270 N 
HETATM   33  N6  UNL     1      52.176  39.836  -8.753  1.00  0.00    -0.227 N 
ATOM     34  H5  UNL     1      51.799  41.558  -7.616  1.00  0.00     0.190 HD
HETATM   35  N7  UNL     1      51.486  38.749  -9.002  1.00  0.00    -0.227 N 
ATOM     36  H6  UNL     1      53.108  40.030  -9.118  1.00  0.00     0.210 HD
HETATM   37  N8  UNL     1      50.337  38.892  -8.342  1.00  0.00    -0.270 N 
ATOM     38  H7  UNL     1      51.770  37.958  -9.581  1.00  0.00     0.210 HD
ATOM     39  H8  UNL     1      49.577  38.211  -8.333  1.00  0.00     0.190 HD
ENDBRANCH  30  31
ENDBRANCH  29  30
ENDBRANCH  25  29
ENDBRANCH  22  25
ENDBRANCH   8  19
BRANCH   2  40
HETATM   40  C8  UNL     1      52.017  33.131  -9.180  1.00  0.00     0.230 C 
HETATM   41  O3  UNL     1      52.869  33.357 -10.124  1.00  0.00    -0.643 OA
HETATM   42  O4  UNL     1      52.704  32.455  -8.165  1.00  0.00    -0.643 OA
ENDBRANCH   2  40
BRANCH   1  43
HETATM   43  S2  UNL     1      50.674  31.391 -10.984  1.00  0.00    -0.086 SA
BRANCH  43  44
HETATM   44  C5  UNL     1      50.433  29.919 -10.010  1.00  0.00     0.195 C 
HETATM   45  C4  UNL     1      51.758  29.231  -9.921  1.00  0.00     0.164 C 
HETATM   46  O1  UNL     1      52.084  28.568 -11.063  1.00  0.00    -0.303 OA
HETATM   47  N1  UNL     1      52.486  29.283  -8.860  1.00  0.00    -0.249 N 
HETATM   48  C2  UNL     1      51.076  27.805 -11.639  1.00  0.00     0.163 C 
HETATM   49  C3  UNL     1      51.070  28.071 -13.142  1.00  0.00     0.072 C 
HETATM   50  S3  UNL     1      49.563  28.612 -10.978  1.00  0.00    -0.096 SA
ATOM     51  H1  UNL     1      53.377  28.788  -8.876  1.00  0.00     0.196 HD
BRANCH  48  52
HETATM   52  S1  UNL     1      51.130  26.062 -11.259  1.00  0.00    -0.124 SA
HETATM   53  C1  UNL     1      52.570  25.754 -10.166  1.00  0.00     0.093 C 
ENDBRANCH  48  52
BRANCH  47  54
HETATM   54  O2  UNL     1      52.161  29.944  -7.720  1.00  0.00    -0.288 OA
ATOM     55  H2  UNL     1      52.778  30.224  -7.054  1.00  0.00     0.244 HD
ENDBRANCH  47  54
ENDBRANCH  43  44
ENDBRANCH   1  43
BRANCH  16  56
HETATM   56  O10 UNL     1      46.465  33.957 -10.290  1.00  0.00    -0.371 OA
ATOM     57  H10 UNL     1      46.573  34.901 -10.306  1.00  0.00     0.212 HD
ENDBRANCH  16  56
TORSDOF 13
ENDMDL
MODEL 5
REMARK VINA RESULT: -7.140728894      4.438     10.425
REMARK  13 active torsions:
REMARK  status: ('A' for Active; 'I' for Inactive)
REMARK    1  A    between atoms: S1_2  and  C2_3 
REMARK    2  A    between atoms: N1_7  and  O2_9 
REMARK    3  A    between atoms: C5_11  and  S2_12 
REMARK    4  A    between atoms: S2_12  and  C6_13 
REMARK    5  A    between atoms: C7_14  and  C8_15 
REMARK    6  A    between atoms: C10_23  and  C11_24 
REMARK       I    between atoms: N4_26  and  C13_28 
REMARK    7  A    between atoms: C13_28  and  C14_30 
REMARK    8  A    between atoms: C14_30  and  C15_31 
REMARK    9  A    between atoms: C14_30  and  O7_34 
REMARK   10  A    between atoms: C15_31  and  O6_32 
REMARK   11  A    between atoms: O7_34  and  C16_35 
REMARK   12  A    between atoms: C16_35  and  C17_36 
REMARK   13  A    between atoms: C21_52  and  O10_53 
ROOT
HETATM    1  C6  UNL     1      50.096  38.362  -5.840  1.00  0.00     0.104 C 
HETATM    2  C7  UNL     1      49.442  37.267  -6.333  1.00  0.00     0.154 C 
HETATM    3  N2  UNL     1      49.611  37.106  -7.715  1.00  0.00    -0.256 N 
HETATM    4  C9  UNL     1      49.145  35.845  -8.033  1.00  0.00     0.104 C 
HETATM    5  N3  UNL     1      47.960  35.837  -7.935  1.00  0.00    -0.387 N 
ATOM      6  H31 UNL     1      47.615  34.906  -8.171  1.00  0.00     0.157 HD
ATOM      7  H32 UNL     1      47.326  36.568  -7.610  1.00  0.00     0.157 HD
HETATM    8  C10 UNL     1      50.098  34.744  -8.523  1.00  0.00     0.191 C 
HETATM    9  C18 UNL     1      51.362  35.365  -9.016  1.00  0.00     0.239 C 
HETATM   10  O8  UNL     1      52.087  34.475  -9.570  1.00  0.00    -0.272 OA
HETATM   11  N9  UNL     1      52.023  36.645  -9.068  1.00  0.00    -0.321 N 
ATOM     12  H9  UNL     1      52.681  36.786  -9.834  1.00  0.00     0.169 HD
HETATM   13  C19 UNL     1      51.866  37.682  -8.209  1.00  0.00     0.130 C 
HETATM   14  C20 UNL     1      50.331  37.952  -8.577  1.00  0.00     0.281 C 
HETATM   15  O9  UNL     1      50.095  38.733  -9.419  1.00  0.00    -0.265 OA
HETATM   16  C21 UNL     1      52.047  38.900  -7.617  1.00  0.00     0.275 C 
HETATM   17  N10 UNL     1      50.982  39.234  -6.641  1.00  0.00    -0.351 N 
ATOM     18  H10 UNL     1      50.836  40.233  -6.497  1.00  0.00     0.163 HD
ENDROOT
BRANCH   8  19
HETATM   19  C11 UNL     1      49.440  34.025  -9.601  1.00  0.00     0.006 C 
HETATM   20  C12 UNL     1      49.647  32.540  -9.706  1.00  0.00     0.064 C 
HETATM   21  N4  UNL     1      48.694  34.610 -10.466  1.00  0.00    -0.331 N 
HETATM   22  C13 UNL     1      48.040  33.948 -11.524  1.00  0.00     0.253 C 
ATOM     23  H4  UNL     1      48.566  35.619 -10.381  1.00  0.00     0.168 HD
HETATM   24  O5  UNL     1      48.550  32.989 -12.136  1.00  0.00    -0.270 OA
BRANCH  22  25
HETATM   25  C14 UNL     1      46.688  34.408 -11.931  1.00  0.00     0.237 C 
BRANCH  25  26
HETATM   26  C15 UNL     1      46.652  35.870 -12.253  1.00  0.00     0.205 C 
BRANCH  26  27
HETATM   27  O6  UNL     1      46.124  36.104 -13.523  1.00  0.00    -0.398 OA
ATOM     28  H6  UNL     1      46.599  36.789 -13.978  1.00  0.00     0.209 HD
ENDBRANCH  26  27
ENDBRANCH  25  26
BRANCH  25  29
HETATM   29  O7  UNL     1      45.725  34.119 -10.991  1.00  0.00    -0.367 OA
BRANCH  29  30
HETATM   30  C16 UNL     1      44.760  35.084 -10.838  1.00  0.00     0.248 C 
BRANCH  30  31
HETATM   31  C17 UNL     1      43.519  34.570 -11.516  1.00  0.00     0.137 A 
HETATM   32  N5  UNL     1      43.175  34.845 -12.768  1.00  0.00    -0.270 N 
HETATM   33  N6  UNL     1      42.031  34.221 -13.010  1.00  0.00    -0.227 N 
ATOM     34  H5  UNL     1      43.695  35.430 -13.422  1.00  0.00     0.190 HD
HETATM   35  N7  UNL     1      41.637  33.557 -11.951  1.00  0.00    -0.227 N 
ATOM     36  H6  UNL     1      41.529  34.252 -13.897  1.00  0.00     0.210 HD
HETATM   37  N8  UNL     1      42.566  33.777 -11.021  1.00  0.00    -0.270 N 
ATOM     38  H7  UNL     1      40.794  32.990 -11.857  1.00  0.00     0.210 HD
ATOM     39  H8  UNL     1      42.551  33.396 -10.075  1.00  0.00     0.190 HD
ENDBRANCH  30  31
ENDBRANCH  29  30
ENDBRANCH  25  29
ENDBRANCH  22  25
ENDBRANCH   8  19
BRANCH   2  40
HETATM   40  C8  UNL     1      48.764  36.528  -5.396  1.00  0.00     0.230 C 
HETATM   41  O3  UNL     1      47.701  37.039  -4.870  1.00  0.00    -0.643 OA
HETATM   42  O4  UNL     1      48.943  35.269  -4.810  1.00  0.00    -0.643 OA
ENDBRANCH   2  40
BRANCH   1  43
HETATM   43  S2  UNL     1      50.020  38.749  -4.141  1.00  0.00    -0.086 SA
BRANCH  43  44
HETATM   44  C5  UNL     1      48.633  39.806  -3.778  1.00  0.00     0.195 C 
HETATM   45  C4  UNL     1      49.125  41.216  -3.855  1.00  0.00     0.164 C 
HETATM   46  O1  UNL     1      49.845  41.582  -2.762  1.00  0.00    -0.303 OA
HETATM   47  N1  UNL     1      48.874  41.973  -4.867  1.00  0.00    -0.249 N 
HETATM   48  C2  UNL     1      49.315  41.223  -1.529  1.00  0.00     0.163 C 
HETATM   49  C3  UNL     1      50.437  40.649  -0.670  1.00  0.00     0.072 C 
HETATM   50  S3  UNL     1      48.242  39.800  -1.977  1.00  0.00    -0.096 SA
ATOM     51  H1  UNL     1      49.245  42.923  -4.846  1.00  0.00     0.196 HD
BRANCH  48  52
HETATM   52  S1  UNL     1      48.408  42.511  -0.688  1.00  0.00    -0.124 SA
HETATM   53  C1  UNL     1      48.323  42.087   1.094  1.00  0.00     0.093 C 
ENDBRANCH  48  52
BRANCH  47  54
HETATM   54  O2  UNL     1      48.155  41.609  -5.958  1.00  0.00    -0.288 OA
ATOM     55  H2  UNL     1      48.513  41.465  -6.827  1.00  0.00     0.244 HD
ENDBRANCH  47  54
ENDBRANCH  43  44
ENDBRANCH   1  43
BRANCH  16  56
HETATM   56  O10 UNL     1      52.086  40.009  -8.492  1.00  0.00    -0.371 OA
ATOM     57  H10 UNL     1      52.178  40.858  -8.077  1.00  0.00     0.212 HD
ENDBRANCH  16  56
TORSDOF 13
ENDMDL
