MODEL 1
REMARK VINA RESULT: -6.037529631      0.000      0.000
REMARK  6 active torsions:
REMARK  status: ('A' for Active; 'I' for Inactive)
REMARK    1  A    between atoms: C4_5  and  O1_6 
REMARK    2  A    between atoms: O1_6  and  C5_7 
REMARK    3  A    between atoms: C5_7  and  C6_8 
REMARK    4  A    between atoms: C6_8  and  O2_9 
REMARK    5  A    between atoms: C6_8  and  C7_11 
REMARK    6  A    between atoms: C7_11  and  N2_12 
ROOT
HETATM    1  C6  UNL     1     -18.073   2.352 -15.333  1.00  0.00     0.170 C 
ENDROOT
BRANCH   1   2
HETATM    2  C5  UNL     1     -17.259   1.638 -16.342  1.00  0.00     0.201 C 
BRANCH   2   3
HETATM    3  O1  UNL     1     -17.724   0.396 -16.725  1.00  0.00    -0.383 OA
BRANCH   3   4
HETATM    4  C4  UNL     1     -17.938   0.224 -18.028  1.00  0.00     0.124 C 
HETATM    5  C3  UNL     1     -16.833  -0.659 -18.679  1.00  0.00     0.062 C 
HETATM    6  C2  UNL     1     -17.403  -1.065 -20.020  1.00  0.00     0.274 C 
HETATM    7  N1  UNL     1     -17.585   0.093 -20.849  1.00  0.00     0.084 N 
HETATM    8  C1  UNL     1     -16.376   0.490 -21.532  1.00  0.00     0.309 C 
HETATM    9  C14 UNL     1     -18.300   1.171 -20.247  1.00  0.00     0.274 C 
HETATM   10  C13 UNL     1     -17.871   1.498 -18.857  1.00  0.00     0.062 C 
ENDBRANCH   3   4
ENDBRANCH   2   3
ENDBRANCH   1   2
BRANCH   1  11
HETATM   11  O2  UNL     1     -17.256   3.160 -14.501  1.00  0.00    -0.392 OA
ATOM     12  H2  UNL     1     -17.780   3.788 -14.016  1.00  0.00     0.210 HD
ENDBRANCH   1  11
BRANCH   1  13
HETATM   13  C7  UNL     1     -19.168   3.191 -15.892  1.00  0.00     0.306 C 
BRANCH  13  14
HETATM   14  N2  UNL     1     -20.490   2.716 -15.662  1.00  0.00     0.091 N 
HETATM   15  C8  UNL     1     -20.995   2.159 -16.955  1.00  0.00     0.272 C 
HETATM   16  C9  UNL     1     -22.419   1.789 -16.747  1.00  0.00     0.030 C 
HETATM   17  C10 UNL     1     -22.563   0.652 -15.744  1.00  0.00     0.003 C 
HETATM   18  C11 UNL     1     -21.143   0.370 -15.264  1.00  0.00     0.030 C 
HETATM   19  C12 UNL     1     -20.581   1.631 -14.687  1.00  0.00     0.272 C 
ENDBRANCH  13  14
ENDBRANCH   1  13
TORSDOF 6
ENDMDL
MODEL 2
REMARK VINA RESULT: -6.004934214      0.669      1.344
REMARK  6 active torsions:
REMARK  status: ('A' for Active; 'I' for Inactive)
REMARK    1  A    between atoms: C4_5  and  O1_6 
REMARK    2  A    between atoms: O1_6  and  C5_7 
REMARK    3  A    between atoms: C5_7  and  C6_8 
REMARK    4  A    between atoms: C6_8  and  O2_9 
REMARK    5  A    between atoms: C6_8  and  C7_11 
REMARK    6  A    between atoms: C7_11  and  N2_12 
ROOT
HETATM    1  C6  UNL     1     -17.961   2.198 -15.392  1.00  0.00     0.170 C 
ENDROOT
BRANCH   1   2
HETATM    2  C5  UNL     1     -17.046   1.355 -16.196  1.00  0.00     0.201 C 
BRANCH   2   3
HETATM    3  O1  UNL     1     -17.641   0.348 -16.930  1.00  0.00    -0.383 OA
BRANCH   3   4
HETATM    4  C4  UNL     1     -17.212   0.202 -18.183  1.00  0.00     0.124 C 
HETATM    5  C3  UNL     1     -18.126   0.957 -19.193  1.00  0.00     0.062 C 
HETATM    6  C2  UNL     1     -17.323   1.013 -20.472  1.00  0.00     0.274 C 
HETATM    7  N1  UNL     1     -17.110  -0.314 -20.980  1.00  0.00     0.084 N 
HETATM    8  C1  UNL     1     -18.227  -0.805 -21.752  1.00  0.00     0.309 C 
HETATM    9  C14 UNL     1     -16.589  -1.253 -20.039  1.00  0.00     0.274 C 
HETATM   10  C13 UNL     1     -17.255  -1.226 -18.705  1.00  0.00     0.062 C 
ENDBRANCH   3   4
ENDBRANCH   2   3
ENDBRANCH   1   2
BRANCH   1  11
HETATM   11  O2  UNL     1     -17.234   3.141 -14.621  1.00  0.00    -0.392 OA
ATOM     12  H2  UNL     1     -17.532   4.026 -14.798  1.00  0.00     0.210 HD
ENDBRANCH   1  11
BRANCH   1  13
HETATM   13  C7  UNL     1     -18.999   2.918 -16.179  1.00  0.00     0.306 C 
BRANCH  13  14
HETATM   14  N2  UNL     1     -20.349   2.582 -15.875  1.00  0.00     0.091 N 
HETATM   15  C8  UNL     1     -20.931   1.931 -17.089  1.00  0.00     0.272 C 
HETATM   16  C9  UNL     1     -22.374   1.704 -16.817  1.00  0.00     0.030 C 
HETATM   17  C10 UNL     1     -22.582   0.699 -15.692  1.00  0.00     0.003 C 
HETATM   18  C11 UNL     1     -21.177   0.354 -15.208  1.00  0.00     0.030 C 
HETATM   19  C12 UNL     1     -20.501   1.620 -14.784  1.00  0.00     0.272 C 
ENDBRANCH  13  14
ENDBRANCH   1  13
TORSDOF 6
ENDMDL
MODEL 3
REMARK VINA RESULT: -5.816289465      1.408      5.582
REMARK  6 active torsions:
REMARK  status: ('A' for Active; 'I' for Inactive)
REMARK    1  A    between atoms: C4_5  and  O1_6 
REMARK    2  A    between atoms: O1_6  and  C5_7 
REMARK    3  A    between atoms: C5_7  and  C6_8 
REMARK    4  A    between atoms: C6_8  and  O2_9 
REMARK    5  A    between atoms: C6_8  and  C7_11 
REMARK    6  A    between atoms: C7_11  and  N2_12 
ROOT
HETATM    1  C6  UNL     1     -17.177   1.175 -16.841  1.00  0.00     0.170 C 
ENDROOT
BRANCH   1   2
HETATM    2  C5  UNL     1     -17.917   2.110 -15.963  1.00  0.00     0.201 C 
BRANCH   2   3
HETATM    3  O1  UNL     1     -18.866   2.898 -16.582  1.00  0.00    -0.383 OA
BRANCH   3   4
HETATM    4  C4  UNL     1     -20.125   2.726 -16.182  1.00  0.00     0.124 C 
HETATM    5  C3  UNL     1     -20.197   1.963 -14.826  1.00  0.00     0.062 C 
HETATM    6  C2  UNL     1     -21.611   2.180 -14.336  1.00  0.00     0.274 C 
HETATM    7  N1  UNL     1     -22.544   1.563 -15.237  1.00  0.00     0.084 N 
HETATM    8  C1  UNL     1     -22.718   0.151 -14.985  1.00  0.00     0.309 C 
HETATM    9  C14 UNL     1     -22.378   1.897 -16.614  1.00  0.00     0.274 C 
HETATM   10  C13 UNL     1     -20.968   1.850 -17.097  1.00  0.00     0.062 C 
ENDBRANCH   3   4
ENDBRANCH   2   3
ENDBRANCH   1   2
BRANCH   1  11
HETATM   11  O2  UNL     1     -15.886   0.904 -16.320  1.00  0.00    -0.392 OA
ATOM     12  H2  UNL     1     -15.874   0.074 -15.856  1.00  0.00     0.210 HD
ENDBRANCH   1  11
BRANCH   1  13
HETATM   13  C7  UNL     1     -17.870  -0.115 -17.105  1.00  0.00     0.306 C 
BRANCH  13  14
HETATM   14  N2  UNL     1     -18.031  -0.462 -18.476  1.00  0.00     0.091 N 
HETATM   15  C8  UNL     1     -17.661   0.738 -19.287  1.00  0.00     0.272 C 
HETATM   16  C9  UNL     1     -17.958   0.418 -20.707  1.00  0.00     0.030 C 
HETATM   17  C10 UNL     1     -17.067  -0.701 -21.229  1.00  0.00     0.003 C 
HETATM   18  C11 UNL     1     -16.232  -1.130 -20.027  1.00  0.00     0.030 C 
HETATM   19  C12 UNL     1     -17.161  -1.546 -18.931  1.00  0.00     0.272 C 
ENDBRANCH  13  14
ENDBRANCH   1  13
TORSDOF 6
ENDMDL
MODEL 4
REMARK VINA RESULT: -5.761721063      1.000      1.916
REMARK  6 active torsions:
REMARK  status: ('A' for Active; 'I' for Inactive)
REMARK    1  A    between atoms: C4_5  and  O1_6 
REMARK    2  A    between atoms: O1_6  and  C5_7 
REMARK    3  A    between atoms: C5_7  and  C6_8 
REMARK    4  A    between atoms: C6_8  and  O2_9 
REMARK    5  A    between atoms: C6_8  and  C7_11 
REMARK    6  A    between atoms: C7_11  and  N2_12 
ROOT
HETATM    1  C6  UNL     1     -17.960   1.906 -15.604  1.00  0.00     0.170 C 
ENDROOT
BRANCH   1   2
HETATM    2  C5  UNL     1     -16.911   1.370 -16.502  1.00  0.00     0.201 C 
BRANCH   2   3
HETATM    3  O1  UNL     1     -17.193   0.160 -17.104  1.00  0.00    -0.383 OA
BRANCH   3   4
HETATM    4  C4  UNL     1     -16.930   0.076 -18.408  1.00  0.00     0.124 C 
HETATM    5  C3  UNL     1     -17.971   0.866 -19.254  1.00  0.00     0.062 C 
HETATM    6  C2  UNL     1     -17.340   0.990 -20.623  1.00  0.00     0.274 C 
HETATM    7  N1  UNL     1     -17.189  -0.310 -21.215  1.00  0.00     0.084 N 
HETATM    8  C1  UNL     1     -18.394  -0.777 -21.860  1.00  0.00     0.309 C 
HETATM    9  C14 UNL     1     -16.547  -1.285 -20.396  1.00  0.00     0.274 C 
HETATM   10  C13 UNL     1     -17.034  -1.328 -18.987  1.00  0.00     0.062 C 
ENDBRANCH   3   4
ENDBRANCH   2   3
ENDBRANCH   1   2
BRANCH   1  11
HETATM   11  O2  UNL     1     -17.528   3.106 -14.983  1.00  0.00    -0.392 OA
ATOM     12  H2  UNL     1     -16.584   3.113 -14.876  1.00  0.00     0.210 HD
ENDBRANCH   1  11
BRANCH   1  13
HETATM   13  C7  UNL     1     -19.276   2.148 -16.255  1.00  0.00     0.306 C 
BRANCH  13  14
HETATM   14  N2  UNL     1     -20.244   1.116 -16.095  1.00  0.00     0.091 N 
HETATM   15  C8  UNL     1     -20.474   0.943 -14.628  1.00  0.00     0.272 C 
HETATM   16  C9  UNL     1     -21.380  -0.222 -14.460  1.00  0.00     0.030 C 
HETATM   17  C10 UNL     1     -22.759   0.050 -15.046  1.00  0.00     0.003 C 
HETATM   18  C11 UNL     1     -22.653   1.438 -15.670  1.00  0.00     0.030 C 
HETATM   19  C12 UNL     1     -21.550   1.418 -16.680  1.00  0.00     0.272 C 
ENDBRANCH  13  14
ENDBRANCH   1  13
TORSDOF 6
ENDMDL
MODEL 5
REMARK VINA RESULT: -5.685716268      1.680      5.955
REMARK  6 active torsions:
REMARK  status: ('A' for Active; 'I' for Inactive)
REMARK    1  A    between atoms: C4_5  and  O1_6 
REMARK    2  A    between atoms: O1_6  and  C5_7 
REMARK    3  A    between atoms: C5_7  and  C6_8 
REMARK    4  A    between atoms: C6_8  and  O2_9 
REMARK    5  A    between atoms: C6_8  and  C7_11 
REMARK    6  A    between atoms: C7_11  and  N2_12 
ROOT
HETATM    1  C6  UNL     1     -18.471   2.746 -17.984  1.00  0.00     0.170 C 
ENDROOT
BRANCH   1   2
HETATM    2  C5  UNL     1     -18.468   2.504 -16.523  1.00  0.00     0.201 C 
BRANCH   2   3
HETATM    3  O1  UNL     1     -18.932   1.270 -16.113  1.00  0.00    -0.383 OA
BRANCH   3   4
HETATM    4  C4  UNL     1     -19.987   1.279 -15.300  1.00  0.00     0.124 C 
HETATM    5  C3  UNL     1     -20.258  -0.131 -14.697  1.00  0.00     0.062 C 
HETATM    6  C2  UNL     1     -21.207   0.117 -13.546  1.00  0.00     0.274 C 
HETATM    7  N1  UNL     1     -22.455   0.631 -14.039  1.00  0.00     0.084 N 
HETATM    8  C1  UNL     1     -23.348  -0.408 -14.495  1.00  0.00     0.309 C 
HETATM    9  C14 UNL     1     -22.352   1.746 -14.922  1.00  0.00     0.274 C 
HETATM   10  C13 UNL     1     -21.309   1.604 -15.979  1.00  0.00     0.062 C 
ENDBRANCH   3   4
ENDBRANCH   2   3
ENDBRANCH   1   2
BRANCH   1  11
HETATM   11  O2  UNL     1     -17.234   3.291 -18.411  1.00  0.00    -0.392 OA
ATOM     12  H2  UNL     1     -17.134   3.211 -19.352  1.00  0.00     0.210 HD
ENDBRANCH   1  11
BRANCH   1  13
HETATM   13  C7  UNL     1     -18.782   1.550 -18.813  1.00  0.00     0.306 C 
BRANCH  13  14
HETATM   14  N2  UNL     1     -17.671   0.944 -19.465  1.00  0.00     0.091 N 
HETATM   15  C8  UNL     1     -17.530  -0.439 -18.913  1.00  0.00     0.272 C 
HETATM   16  C9  UNL     1     -16.293  -1.020 -19.495  1.00  0.00     0.030 C 
HETATM   17  C10 UNL     1     -16.415  -1.207 -21.001  1.00  0.00     0.003 C 
HETATM   18  C11 UNL     1     -17.783  -0.636 -21.358  1.00  0.00     0.030 C 
HETATM   19  C12 UNL     1     -17.830   0.791 -20.911  1.00  0.00     0.272 C 
ENDBRANCH  13  14
ENDBRANCH   1  13
TORSDOF 6
ENDMDL
