MODEL 1
REMARK VINA RESULT: -9.462562289      0.000      0.000
REMARK  4 active torsions:
REMARK  status: ('A' for Active; 'I' for Inactive)
REMARK    1  A    between atoms: C1_2  and  C2_4 
REMARK    2  A    between atoms: C4_6  and  C5_7 
REMARK    3  A    between atoms: C12_14  and  C13_15 
REMARK    4  A    between atoms: C16_20  and  N2_21 
ROOT
HETATM    1  C2  UNL     1      46.373  14.418 -27.110  1.00  0.00     0.099 A 
HETATM    2  C3  UNL     1      46.077  13.562 -28.177  1.00  0.00     0.040 A 
HETATM    3  C4  UNL     1      46.269  12.199 -28.073  1.00  0.00    -0.050 A 
HETATM    4  C9  UNL     1      46.763  11.723 -26.876  1.00  0.00     0.039 A 
HETATM    5  C10 UNL     1      47.053  12.592 -25.821  1.00  0.00     0.059 A 
HETATM    6  C11 UNL     1      47.542  12.414 -24.544  1.00  0.00     0.063 A 
HETATM    7  C12 UNL     1      47.635  13.621 -23.922  1.00  0.00     0.062 A 
HETATM    8  N4  UNL     1      47.195  14.526 -24.840  1.00  0.00    -0.293 N 
ATOM      9  H4  UNL     1      47.139  15.532 -24.684  1.00  0.00     0.187 HD
HETATM   10  N5  UNL     1      46.853  13.915 -25.961  1.00  0.00    -0.255 N 
ENDROOT
BRANCH   7  11
HETATM   11  C13 UNL     1      48.088  13.961 -22.584  1.00  0.00     0.010 A 
HETATM   12  C14 UNL     1      48.053  15.264 -22.143  1.00  0.00     0.101 A 
HETATM   13  N1  UNL     1      48.477  15.578 -20.891  1.00  0.00    -0.372 N 
HETATM   14  C15 UNL     1      48.941  14.671 -20.034  1.00  0.00     0.116 A 
ATOM     15  H1  UNL     1      48.437  16.553 -20.594  1.00  0.00     0.164 HD
HETATM   16  C16 UNL     1      49.002  13.329 -20.420  1.00  0.00     0.046 A 
HETATM   17  C21 UNL     1      48.568  13.021 -21.699  1.00  0.00     0.046 A 
BRANCH  16  18
HETATM   18  N2  UNL     1      49.479  12.354 -19.525  1.00  0.00    -0.377 N 
HETATM   19  C17 UNL     1      48.599  11.620 -18.649  1.00  0.00     0.150 C 
HETATM   20  C18 UNL     1      48.988  12.000 -17.236  1.00  0.00     0.252 C 
HETATM   21  N3  UNL     1      50.381  11.594 -17.088  1.00  0.00    -0.072 N 
HETATM   22  C19 UNL     1      51.257  12.307 -17.963  1.00  0.00     0.252 C 
ATOM     23  H32 UNL     1      50.685  11.675 -16.119  1.00  0.00     0.277 HD
ATOM     24  H31 UNL     1      50.483  10.586 -17.209  1.00  0.00     0.277 HD
HETATM   25  C20 UNL     1      50.877  12.053 -19.436  1.00  0.00     0.150 C 
ENDBRANCH  16  18
ENDBRANCH   7  11
BRANCH   1  26
HETATM   26  C1  UNL     1      46.156  15.877 -27.250  1.00  0.00     0.405 C 
HETATM   27  F1  UNL     1      47.308  16.532 -27.641  1.00  0.00    -0.207 F 
HETATM   28  F2  UNL     1      45.112  16.098 -28.120  1.00  0.00    -0.207 F 
ENDBRANCH   1  26
BRANCH   3  29
HETATM   29  C5  UNL     1      45.954  11.292 -29.208  1.00  0.00     0.019 C 
HETATM   30  C6  UNL     1      46.781  10.006 -29.100  1.00  0.00     0.009 C 
HETATM   31  C7  UNL     1      46.900  10.068 -30.626  1.00  0.00     0.001 C 
HETATM   32  C8  UNL     1      46.714  11.585 -30.484  1.00  0.00     0.009 C 
ENDBRANCH   3  29
TORSDOF 4
ENDMDL
MODEL 2
REMARK VINA RESULT: -9.163573112      5.408      7.040
REMARK  4 active torsions:
REMARK  status: ('A' for Active; 'I' for Inactive)
REMARK    1  A    between atoms: C1_2  and  C2_4 
REMARK    2  A    between atoms: C4_6  and  C5_7 
REMARK    3  A    between atoms: C12_14  and  C13_15 
REMARK    4  A    between atoms: C16_20  and  N2_21 
ROOT
HETATM    1  C2  UNL     1      50.526   8.264 -28.529  1.00  0.00     0.099 A 
HETATM    2  C3  UNL     1      51.046   7.780 -29.735  1.00  0.00     0.040 A 
HETATM    3  C4  UNL     1      52.251   8.238 -30.229  1.00  0.00    -0.050 A 
HETATM    4  C9  UNL     1      52.914   9.190 -29.483  1.00  0.00     0.039 A 
HETATM    5  C10 UNL     1      52.381   9.663 -28.281  1.00  0.00     0.059 A 
HETATM    6  C11 UNL     1      52.804  10.583 -27.346  1.00  0.00     0.063 A 
HETATM    7  C12 UNL     1      51.886  10.665 -26.344  1.00  0.00     0.062 A 
HETATM    8  N4  UNL     1      50.909   9.781 -26.688  1.00  0.00    -0.293 N 
ATOM      9  H4  UNL     1      50.068   9.601 -26.139  1.00  0.00     0.187 HD
HETATM   10  N5  UNL     1      51.204   9.191 -27.833  1.00  0.00    -0.255 N 
ENDROOT
BRANCH   7  11
HETATM   11  C13 UNL     1      51.871  11.480 -25.141  1.00  0.00     0.010 A 
HETATM   12  C14 UNL     1      52.719  11.200 -24.094  1.00  0.00     0.101 A 
HETATM   13  N1  UNL     1      52.702  11.965 -22.973  1.00  0.00    -0.372 N 
HETATM   14  C15 UNL     1      51.885  13.006 -22.816  1.00  0.00     0.116 A 
ATOM     15  H1  UNL     1      53.344  11.733 -22.215  1.00  0.00     0.164 HD
HETATM   16  C16 UNL     1      50.999  13.343 -23.842  1.00  0.00     0.046 A 
HETATM   17  C21 UNL     1      51.025  12.556 -24.982  1.00  0.00     0.046 A 
BRANCH  16  18
HETATM   18  N2  UNL     1      50.137  14.445 -23.702  1.00  0.00    -0.377 N 
HETATM   19  C17 UNL     1      48.754  14.295 -23.318  1.00  0.00     0.150 C 
HETATM   20  C18 UNL     1      47.929  14.779 -24.491  1.00  0.00     0.252 C 
HETATM   21  N3  UNL     1      48.301  16.175 -24.685  1.00  0.00    -0.072 N 
HETATM   22  C19 UNL     1      49.672  16.333 -25.053  1.00  0.00     0.252 C 
ATOM     23  H32 UNL     1      47.686  16.627 -25.362  1.00  0.00     0.277 HD
ATOM     24  H31 UNL     1      48.076  16.732 -23.861  1.00  0.00     0.277 HD
HETATM   25  C20 UNL     1      50.596  15.780 -23.950  1.00  0.00     0.150 C 
ENDBRANCH  16  18
ENDBRANCH   7  11
BRANCH   1  26
HETATM   26  C1  UNL     1      49.231   7.753 -28.025  1.00  0.00     0.405 C 
HETATM   27  F1  UNL     1      48.220   7.912 -28.951  1.00  0.00    -0.207 F 
HETATM   28  F2  UNL     1      49.381   6.439 -27.639  1.00  0.00    -0.207 F 
ENDBRANCH   1  26
BRANCH   3  29
HETATM   29  C5  UNL     1      52.800   7.722 -31.510  1.00  0.00     0.019 C 
HETATM   30  C6  UNL     1      51.797   6.766 -32.167  1.00  0.00     0.009 C 
HETATM   31  C7  UNL     1      53.012   5.934 -32.589  1.00  0.00     0.001 C 
HETATM   32  C8  UNL     1      53.727   6.533 -31.370  1.00  0.00     0.009 C 
ENDBRANCH   3  29
TORSDOF 4
ENDMDL
MODEL 3
REMARK VINA RESULT: -9.087039937      3.206      4.423
REMARK  4 active torsions:
REMARK  status: ('A' for Active; 'I' for Inactive)
REMARK    1  A    between atoms: C1_2  and  C2_4 
REMARK    2  A    between atoms: C4_6  and  C5_7 
REMARK    3  A    between atoms: C12_14  and  C13_15 
REMARK    4  A    between atoms: C16_20  and  N2_21 
ROOT
HETATM    1  C2  UNL     1      50.518  16.603 -25.164  1.00  0.00     0.099 A 
HETATM    2  C3  UNL     1      49.518  16.753 -26.133  1.00  0.00     0.040 A 
HETATM    3  C4  UNL     1      48.405  15.937 -26.142  1.00  0.00    -0.050 A 
HETATM    4  C9  UNL     1      48.323  14.974 -25.157  1.00  0.00     0.039 A 
HETATM    5  C10 UNL     1      49.330  14.839 -24.198  1.00  0.00     0.059 A 
HETATM    6  C11 UNL     1      49.517  13.996 -23.123  1.00  0.00     0.063 A 
HETATM    7  C12 UNL     1      50.693  14.301 -22.508  1.00  0.00     0.062 A 
HETATM    8  N4  UNL     1      51.208  15.338 -23.225  1.00  0.00    -0.293 N 
ATOM      9  H4  UNL     1      52.091  15.804 -23.021  1.00  0.00     0.187 HD
HETATM   10  N5  UNL     1      50.400  15.653 -24.223  1.00  0.00    -0.255 N 
ENDROOT
BRANCH   7  11
HETATM   11  C13 UNL     1      51.332  13.709 -21.345  1.00  0.00     0.010 A 
HETATM   12  C14 UNL     1      52.701  13.738 -21.206  1.00  0.00     0.101 A 
HETATM   13  N1  UNL     1      53.293  13.184 -20.117  1.00  0.00    -0.372 N 
HETATM   14  C15 UNL     1      52.608  12.593 -19.140  1.00  0.00     0.116 A 
ATOM     15  H1  UNL     1      54.310  13.222 -20.044  1.00  0.00     0.164 HD
HETATM   16  C16 UNL     1      51.214  12.530 -19.220  1.00  0.00     0.046 A 
HETATM   17  C21 UNL     1      50.621  13.098 -20.335  1.00  0.00     0.046 A 
BRANCH  16  18
HETATM   18  N2  UNL     1      50.471  11.921 -18.193  1.00  0.00    -0.377 N 
HETATM   19  C17 UNL     1      49.230  11.231 -18.448  1.00  0.00     0.150 C 
HETATM   20  C18 UNL     1      48.153  12.003 -17.718  1.00  0.00     0.252 C 
HETATM   21  N3  UNL     1      48.527  11.966 -16.309  1.00  0.00    -0.072 N 
HETATM   22  C19 UNL     1      49.761  12.637 -16.050  1.00  0.00     0.252 C 
ATOM     23  H32 UNL     1      47.780  12.336 -15.722  1.00  0.00     0.277 HD
ATOM     24  H31 UNL     1      48.551  11.008 -15.962  1.00  0.00     0.277 HD
HETATM   25  C20 UNL     1      50.913  11.972 -16.831  1.00  0.00     0.150 C 
ENDBRANCH  16  18
ENDBRANCH   7  11
BRANCH   1  26
HETATM   26  C1  UNL     1      51.702  17.494 -25.180  1.00  0.00     0.405 C 
HETATM   27  F1  UNL     1      52.250  17.596 -26.444  1.00  0.00    -0.207 F 
HETATM   28  F2  UNL     1      51.353  18.721 -24.664  1.00  0.00    -0.207 F 
ENDBRANCH   1  26
BRANCH   3  29
HETATM   29  C5  UNL     1      47.345  16.097 -27.172  1.00  0.00     0.019 C 
HETATM   30  C6  UNL     1      46.066  16.650 -26.531  1.00  0.00     0.009 C 
HETATM   31  C7  UNL     1      45.304  15.721 -27.482  1.00  0.00     0.001 C 
HETATM   32  C8  UNL     1      46.560  14.839 -27.476  1.00  0.00     0.009 C 
ENDBRANCH   3  29
TORSDOF 4
ENDMDL
MODEL 4
REMARK VINA RESULT: -9.083321055      1.799      2.606
REMARK  4 active torsions:
REMARK  status: ('A' for Active; 'I' for Inactive)
REMARK    1  A    between atoms: C1_2  and  C2_4 
REMARK    2  A    between atoms: C4_6  and  C5_7 
REMARK    3  A    between atoms: C12_14  and  C13_15 
REMARK    4  A    between atoms: C16_20  and  N2_21 
ROOT
HETATM    1  C2  UNL     1      46.066  14.385 -27.398  1.00  0.00     0.099 A 
HETATM    2  C3  UNL     1      45.719  14.028 -28.707  1.00  0.00     0.040 A 
HETATM    3  C4  UNL     1      45.899  12.739 -29.167  1.00  0.00    -0.050 A 
HETATM    4  C9  UNL     1      46.433  11.825 -28.282  1.00  0.00     0.039 A 
HETATM    5  C10 UNL     1      46.774  12.198 -26.980  1.00  0.00     0.059 A 
HETATM    6  C11 UNL     1      47.309  11.524 -25.903  1.00  0.00     0.063 A 
HETATM    7  C12 UNL     1      47.440  12.380 -24.853  1.00  0.00     0.062 A 
HETATM    8  N4  UNL     1      46.976  13.575 -25.311  1.00  0.00    -0.293 N 
ATOM      9  H4  UNL     1      46.937  14.434 -24.762  1.00  0.00     0.187 HD
HETATM   10  N5  UNL     1      46.583  13.465 -26.569  1.00  0.00    -0.255 N 
ENDROOT
BRANCH   7  11
HETATM   11  C13 UNL     1      47.948  12.157 -23.510  1.00  0.00     0.010 A 
HETATM   12  C14 UNL     1      47.392  11.192 -22.701  1.00  0.00     0.101 A 
HETATM   13  N1  UNL     1      47.870  10.987 -21.447  1.00  0.00    -0.372 N 
HETATM   14  C15 UNL     1      48.880  11.685 -20.932  1.00  0.00     0.116 A 
ATOM     15  H1  UNL     1      47.437  10.264 -20.873  1.00  0.00     0.164 HD
HETATM   16  C16 UNL     1      49.490  12.679 -21.702  1.00  0.00     0.046 A 
HETATM   17  C21 UNL     1      48.994  12.881 -22.979  1.00  0.00     0.046 A 
BRANCH  16  18
HETATM   18  N2  UNL     1      50.566  13.420 -21.181  1.00  0.00    -0.377 N 
HETATM   19  C17 UNL     1      51.577  14.006 -22.027  1.00  0.00     0.150 C 
HETATM   20  C18 UNL     1      52.880  13.322 -21.674  1.00  0.00     0.252 C 
HETATM   21  N3  UNL     1      53.106  13.610 -20.262  1.00  0.00    -0.072 N 
HETATM   22  C19 UNL     1      52.102  13.044 -19.418  1.00  0.00     0.252 C 
ATOM     23  H32 UNL     1      54.037  13.313 -19.972  1.00  0.00     0.277 HD
ATOM     24  H31 UNL     1      53.196  14.613 -20.103  1.00  0.00     0.277 HD
HETATM   25  C20 UNL     1      50.713  13.617 -19.769  1.00  0.00     0.150 C 
ENDBRANCH  16  18
ENDBRANCH   7  11
BRANCH   1  26
HETATM   26  C1  UNL     1      45.861  15.776 -26.932  1.00  0.00     0.405 C 
HETATM   27  F1  UNL     1      46.987  16.553 -27.122  1.00  0.00    -0.207 F 
HETATM   28  F2  UNL     1      44.753  16.305 -27.557  1.00  0.00    -0.207 F 
ENDBRANCH   1  26
BRANCH   3  29
HETATM   29  C5  UNL     1      45.530  12.363 -30.557  1.00  0.00     0.019 C 
HETATM   30  C6  UNL     1      46.641  11.515 -31.186  1.00  0.00     0.009 C 
HETATM   31  C7  UNL     1      46.344  12.265 -32.488  1.00  0.00     0.001 C 
HETATM   32  C8  UNL     1      45.842  13.413 -31.602  1.00  0.00     0.009 C 
ENDBRANCH   3  29
TORSDOF 4
ENDMDL
MODEL 5
REMARK VINA RESULT: -9.073971479      4.354      5.671
REMARK  4 active torsions:
REMARK  status: ('A' for Active; 'I' for Inactive)
REMARK    1  A    between atoms: C1_2  and  C2_4 
REMARK    2  A    between atoms: C4_6  and  C5_7 
REMARK    3  A    between atoms: C12_14  and  C13_15 
REMARK    4  A    between atoms: C16_20  and  N2_21 
ROOT
HETATM    1  C2  UNL     1      51.006  13.396 -24.752  1.00  0.00     0.099 A 
HETATM    2  C3  UNL     1      50.710  14.382 -25.701  1.00  0.00     0.040 A 
HETATM    3  C4  UNL     1      50.304  15.644 -25.318  1.00  0.00    -0.050 A 
HETATM    4  C9  UNL     1      50.204  15.888 -23.964  1.00  0.00     0.039 A 
HETATM    5  C10 UNL     1      50.503  14.893 -23.030  1.00  0.00     0.059 A 
HETATM    6  C11 UNL     1      50.497  14.844 -21.651  1.00  0.00     0.063 A 
HETATM    7  C12 UNL     1      50.881  13.605 -21.241  1.00  0.00     0.062 A 
HETATM    8  N4  UNL     1      51.120  12.910 -22.387  1.00  0.00    -0.293 N 
ATOM      9  H4  UNL     1      51.428  11.939 -22.426  1.00  0.00     0.187 HD
HETATM   10  N5  UNL     1      50.896  13.674 -23.443  1.00  0.00    -0.255 N 
ENDROOT
BRANCH   7  11
HETATM   11  C13 UNL     1      51.032  13.058 -19.903  1.00  0.00     0.010 A 
HETATM   12  C14 UNL     1      52.237  12.534 -19.492  1.00  0.00     0.101 A 
HETATM   13  N1  UNL     1      52.373  12.025 -18.240  1.00  0.00    -0.372 N 
HETATM   14  C15 UNL     1      51.379  11.999 -17.355  1.00  0.00     0.116 A 
ATOM     15  H1  UNL     1      53.279  11.645 -17.965  1.00  0.00     0.164 HD
HETATM   16  C16 UNL     1      50.130  12.516 -17.709  1.00  0.00     0.046 A 
HETATM   17  C21 UNL     1      50.002  13.032 -18.988  1.00  0.00     0.046 A 
BRANCH  16  18
HETATM   18  N2  UNL     1      49.071  12.508 -16.785  1.00  0.00    -0.377 N 
HETATM   19  C17 UNL     1      48.058  13.535 -16.768  1.00  0.00     0.150 C 
HETATM   20  C18 UNL     1      48.193  14.249 -15.440  1.00  0.00     0.252 C 
HETATM   21  N3  UNL     1      47.965  13.231 -14.421  1.00  0.00    -0.072 N 
HETATM   22  C19 UNL     1      48.957  12.203 -14.439  1.00  0.00     0.252 C 
ATOM     23  H32 UNL     1      47.890  13.650 -13.495  1.00  0.00     0.277 HD
ATOM     24  H31 UNL     1      47.028  12.837 -14.500  1.00  0.00     0.277 HD
HETATM   25  C20 UNL     1      48.957  11.474 -15.799  1.00  0.00     0.150 C 
ENDBRANCH  16  18
ENDBRANCH   7  11
BRANCH   1  26
HETATM   26  C1  UNL     1      51.439  12.050 -25.193  1.00  0.00     0.405 C 
HETATM   27  F1  UNL     1      50.400  11.333 -25.752  1.00  0.00    -0.207 F 
HETATM   28  F2  UNL     1      52.505  12.178 -26.056  1.00  0.00    -0.207 F 
ENDBRANCH   1  26
BRANCH   3  29
HETATM   29  C5  UNL     1      49.991  16.688 -26.328  1.00  0.00     0.019 C 
HETATM   30  C6  UNL     1      50.769  17.973 -26.017  1.00  0.00     0.009 C 
HETATM   31  C7  UNL     1      49.514  18.727 -26.470  1.00  0.00     0.001 C 
HETATM   32  C8  UNL     1      48.727  17.476 -26.055  1.00  0.00     0.009 C 
ENDBRANCH   3  29
TORSDOF 4
ENDMDL
