MODEL 1
REMARK VINA RESULT: -7.790170561      0.000      0.000
REMARK  5 active torsions:
REMARK  status: ('A' for Active; 'I' for Inactive)
REMARK    1  A    between atoms: C2_2  and  C3_3 
REMARK    2  A    between atoms: C2_2  and  C9_10 
REMARK    3  A    between atoms: C9_10  and  O1_12 
REMARK    4  A    between atoms: C9_10  and  C11_14 
REMARK    5  A    between atoms: N3_20  and  C13_21 
ROOT
HETATM    1  C11 UNL     1      47.954  17.621 -25.439  1.00  0.00     0.141 A 
HETATM    2  N1  UNL     1      47.763  18.603 -24.542  1.00  0.00    -0.285 N 
ATOM      3  H1  UNL     1      48.278  19.482 -24.499  1.00  0.00     0.188 HD
HETATM    4  N2  UNL     1      46.804  18.240 -23.737  1.00  0.00    -0.294 N 
ATOM      5  H2  UNL     1      46.449  18.791 -22.956  1.00  0.00     0.187 HD
HETATM    6  C12 UNL     1      46.358  17.034 -24.096  1.00  0.00     0.208 A 
HETATM    7  N3  UNL     1      47.098  16.657 -25.179  1.00  0.00    -0.272 N 
ENDROOT
BRANCH   1   8
HETATM    8  C9  UNL     1      48.989  17.549 -26.517  1.00  0.00     0.121 C 
HETATM    9  C10 UNL     1      49.215  19.022 -26.930  1.00  0.00     0.055 C 
BRANCH   8  10
HETATM   10  C2  UNL     1      50.312  17.039 -26.058  1.00  0.00     0.056 C 
HETATM   11  C1  UNL     1      51.232  18.138 -25.526  1.00  0.00     0.018 C 
BRANCH  10  12
HETATM   12  C3  UNL     1      50.337  15.834 -25.208  1.00  0.00    -0.051 A 
HETATM   13  C4  UNL     1      50.301  15.769 -23.852  1.00  0.00     0.009 A 
HETATM   14  C5  UNL     1      50.390  14.558 -23.161  1.00  0.00     0.019 A 
HETATM   15  C6  UNL     1      50.517  13.367 -23.804  1.00  0.00     0.011 A 
HETATM   16 BR1  UNL     1      50.639  11.735 -22.798  1.00  0.00    -0.051 Br
HETATM   17  C7  UNL     1      50.552  13.396 -25.176  1.00  0.00     0.019 A 
HETATM   18  C8  UNL     1      50.466  14.595 -25.838  1.00  0.00     0.009 A 
ENDBRANCH  10  12
ENDBRANCH   8  10
BRANCH   8  19
HETATM   19  O1  UNL     1      48.528  16.843 -27.580  1.00  0.00    -0.382 OA
ATOM     20  H1  UNL     1      47.830  17.307 -28.028  1.00  0.00     0.211 HD
ENDBRANCH   8  19
ENDBRANCH   1   8
BRANCH   7  21
HETATM   21  C13 UNL     1      46.825  15.406 -25.847  1.00  0.00     0.159 A 
HETATM   22  C14 UNL     1      46.897  14.208 -25.126  1.00  0.00     0.062 A 
HETATM   23  C15 UNL     1      46.597  13.197 -25.988  1.00  0.00     0.073 A 
HETATM   24  C16 UNL     1      46.348  13.800 -27.222  1.00  0.00     0.231 A 
HETATM   25  F1  UNL     1      46.022  13.092 -28.322  1.00  0.00    -0.178 F 
HETATM   26  O2  UNL     1      46.507  15.104 -27.047  1.00  0.00    -0.266 OA
ENDBRANCH   7  21
TORSDOF 5
ENDMDL
MODEL 2
REMARK VINA RESULT: -7.525028549      1.438      2.146
REMARK  5 active torsions:
REMARK  status: ('A' for Active; 'I' for Inactive)
REMARK    1  A    between atoms: C2_2  and  C3_3 
REMARK    2  A    between atoms: C2_2  and  C9_10 
REMARK    3  A    between atoms: C9_10  and  O1_12 
REMARK    4  A    between atoms: C9_10  and  C11_14 
REMARK    5  A    between atoms: N3_20  and  C13_21 
ROOT
HETATM    1  C11 UNL     1      48.946  17.278 -25.568  1.00  0.00     0.141 A 
HETATM    2  N1  UNL     1      49.018  18.555 -25.155  1.00  0.00    -0.285 N 
ATOM      3  H1  UNL     1      49.874  19.081 -24.984  1.00  0.00     0.188 HD
HETATM    4  N2  UNL     1      47.803  19.006 -25.014  1.00  0.00    -0.294 N 
ATOM      5  H2  UNL     1      47.555  19.947 -24.708  1.00  0.00     0.187 HD
HETATM    6  C12 UNL     1      46.934  18.044 -25.332  1.00  0.00     0.208 A 
HETATM    7  N3  UNL     1      47.677  16.955 -25.683  1.00  0.00    -0.272 N 
ENDROOT
BRANCH   1   8
HETATM    8  C9  UNL     1      50.075  16.322 -25.799  1.00  0.00     0.121 C 
HETATM    9  C10 UNL     1      51.336  17.218 -25.824  1.00  0.00     0.055 C 
BRANCH   8  10
HETATM   10  C2  UNL     1      50.282  15.345 -24.694  1.00  0.00     0.056 C 
HETATM   11  C1  UNL     1      49.455  15.657 -23.447  1.00  0.00     0.018 C 
BRANCH  10  12
HETATM   12  C3  UNL     1      50.265  13.907 -25.024  1.00  0.00    -0.051 A 
HETATM   13  C4  UNL     1      49.209  13.054 -24.991  1.00  0.00     0.009 A 
HETATM   14  C5  UNL     1      49.339  11.692 -25.274  1.00  0.00     0.019 A 
HETATM   15  C6  UNL     1      50.535  11.135 -25.602  1.00  0.00     0.011 A 
HETATM   16 BR1  UNL     1      50.651   9.254 -25.976  1.00  0.00    -0.051 Br
HETATM   17  C7  UNL     1      51.623  11.969 -25.650  1.00  0.00     0.019 A 
HETATM   18  C8  UNL     1      51.477  13.304 -25.366  1.00  0.00     0.009 A 
ENDBRANCH  10  12
ENDBRANCH   8  10
BRANCH   8  19
HETATM   19  O1  UNL     1      49.937  15.696 -26.995  1.00  0.00    -0.382 OA
ATOM     20  H1  UNL     1      49.182  16.021 -27.472  1.00  0.00     0.211 HD
ENDBRANCH   8  19
ENDBRANCH   1   8
BRANCH   7  21
HETATM   21  C13 UNL     1      47.028  15.747 -26.137  1.00  0.00     0.159 A 
HETATM   22  C14 UNL     1      46.114  15.098 -25.298  1.00  0.00     0.062 A 
HETATM   23  C15 UNL     1      45.659  14.001 -25.966  1.00  0.00     0.073 A 
HETATM   24  C16 UNL     1      46.307  14.002 -27.202  1.00  0.00     0.231 A 
HETATM   25  F1  UNL     1      46.100  13.048 -28.131  1.00  0.00    -0.178 F 
HETATM   26  O2  UNL     1      47.097  15.066 -27.216  1.00  0.00    -0.266 OA
ENDBRANCH   7  21
TORSDOF 5
ENDMDL
MODEL 3
REMARK VINA RESULT: -7.420089449      4.861      7.001
REMARK  5 active torsions:
REMARK  status: ('A' for Active; 'I' for Inactive)
REMARK    1  A    between atoms: C2_2  and  C3_3 
REMARK    2  A    between atoms: C2_2  and  C9_10 
REMARK    3  A    between atoms: C9_10  and  O1_12 
REMARK    4  A    between atoms: C9_10  and  C11_14 
REMARK    5  A    between atoms: N3_20  and  C13_21 
ROOT
HETATM    1  C11 UNL     1      49.884  10.860 -20.887  1.00  0.00     0.141 A 
HETATM    2  N1  UNL     1      50.127  10.160 -19.766  1.00  0.00    -0.285 N 
ATOM      3  H1  UNL     1      50.247   9.149 -19.707  1.00  0.00     0.188 HD
HETATM    4  N2  UNL     1      50.183  10.995 -18.767  1.00  0.00    -0.294 N 
ATOM      5  H2  UNL     1      50.352  10.741 -17.795  1.00  0.00     0.187 HD
HETATM    6  C12 UNL     1      49.985  12.236 -19.217  1.00  0.00     0.208 A 
HETATM    7  N3  UNL     1      49.799  12.132 -20.565  1.00  0.00    -0.272 N 
ENDROOT
BRANCH   1   8
HETATM    8  C9  UNL     1      49.666  10.334 -22.271  1.00  0.00     0.121 C 
HETATM    9  C10 UNL     1      50.021   8.832 -22.170  1.00  0.00     0.055 C 
BRANCH   8  10
HETATM   10  C2  UNL     1      48.250  10.395 -22.731  1.00  0.00     0.056 C 
HETATM   11  C1  UNL     1      47.238  10.252 -21.594  1.00  0.00     0.018 C 
BRANCH  10  12
HETATM   12  C3  UNL     1      47.872  11.460 -23.679  1.00  0.00    -0.051 A 
HETATM   13  C4  UNL     1      48.545  11.870 -24.785  1.00  0.00     0.009 A 
HETATM   14  C5  UNL     1      48.105  12.937 -25.573  1.00  0.00     0.019 A 
HETATM   15  C6  UNL     1      46.973  13.631 -25.282  1.00  0.00     0.011 A 
HETATM   16 BR1  UNL     1      46.423  15.092 -26.402  1.00  0.00    -0.051 Br
HETATM   17  C7  UNL     1      46.266  13.240 -24.173  1.00  0.00     0.019 A 
HETATM   18  C8  UNL     1      46.714  12.191 -23.409  1.00  0.00     0.009 A 
ENDBRANCH  10  12
ENDBRANCH   8  10
BRANCH   8  19
HETATM   19  O1  UNL     1      50.500  10.940 -23.153  1.00  0.00    -0.382 OA
ATOM     20  H1  UNL     1      50.511  11.882 -23.029  1.00  0.00     0.211 HD
ENDBRANCH   8  19
ENDBRANCH   1   8
BRANCH   7  21
HETATM   21  C13 UNL     1      49.610  13.318 -21.368  1.00  0.00     0.159 A 
HETATM   22  C14 UNL     1      48.568  14.201 -21.059  1.00  0.00     0.062 A 
HETATM   23  C15 UNL     1      48.619  15.220 -21.962  1.00  0.00     0.073 A 
HETATM   24  C16 UNL     1      49.693  14.936 -22.808  1.00  0.00     0.231 A 
HETATM   25  F1  UNL     1      50.039  15.737 -23.835  1.00  0.00    -0.178 F 
HETATM   26  O2  UNL     1      50.219  13.795 -22.384  1.00  0.00    -0.266 OA
ENDBRANCH   7  21
TORSDOF 5
ENDMDL
MODEL 4
REMARK VINA RESULT: -7.402260167      2.939      4.634
REMARK  5 active torsions:
REMARK  status: ('A' for Active; 'I' for Inactive)
REMARK    1  A    between atoms: C2_2  and  C3_3 
REMARK    2  A    between atoms: C2_2  and  C9_10 
REMARK    3  A    between atoms: C9_10  and  O1_12 
REMARK    4  A    between atoms: C9_10  and  C11_14 
REMARK    5  A    between atoms: N3_20  and  C13_21 
ROOT
HETATM    1  C11 UNL     1      47.909  15.505 -26.077  1.00  0.00     0.141 A 
HETATM    2  N1  UNL     1      48.740  15.551 -27.132  1.00  0.00    -0.285 N 
ATOM      3  H1  UNL     1      48.493  15.334 -28.097  1.00  0.00     0.188 HD
HETATM    4  N2  UNL     1      49.916  15.921 -26.708  1.00  0.00    -0.294 N 
ATOM      5  H2  UNL     1      50.743  16.037 -27.293  1.00  0.00     0.187 HD
HETATM    6  C12 UNL     1      49.868  16.123 -25.390  1.00  0.00     0.208 A 
HETATM    7  N3  UNL     1      48.586  15.857 -25.006  1.00  0.00    -0.272 N 
ENDROOT
BRANCH   1   8
HETATM    8  C9  UNL     1      46.477  15.068 -26.053  1.00  0.00     0.121 C 
HETATM    9  C10 UNL     1      45.888  15.614 -27.375  1.00  0.00     0.055 C 
BRANCH   8  10
HETATM   10  C2  UNL     1      46.290  13.591 -26.094  1.00  0.00     0.056 C 
HETATM   11  C1  UNL     1      46.370  13.010 -27.506  1.00  0.00     0.018 C 
BRANCH  10  12
HETATM   12  C3  UNL     1      47.025  12.769 -25.113  1.00  0.00    -0.051 A 
HETATM   13  C4  UNL     1      48.251  12.201 -25.252  1.00  0.00     0.009 A 
HETATM   14  C5  UNL     1      48.814  11.391 -24.262  1.00  0.00     0.019 A 
HETATM   15  C6  UNL     1      48.168  11.122 -23.096  1.00  0.00     0.011 A 
HETATM   16 BR1  UNL     1      48.994   9.997 -21.775  1.00  0.00    -0.051 Br
HETATM   17  C7  UNL     1      46.929  11.684 -22.921  1.00  0.00     0.019 A 
HETATM   18  C8  UNL     1      46.390  12.475 -23.905  1.00  0.00     0.009 A 
ENDBRANCH  10  12
ENDBRANCH   8  10
BRANCH   8  19
HETATM   19  O1  UNL     1      45.823  15.621 -25.000  1.00  0.00    -0.382 OA
ATOM     20  H1  UNL     1      44.891  15.694 -25.170  1.00  0.00     0.211 HD
ENDBRANCH   8  19
ENDBRANCH   1   8
BRANCH   7  21
HETATM   21  C13 UNL     1      48.186  16.035 -23.630  1.00  0.00     0.159 A 
HETATM   22  C14 UNL     1      48.613  15.116 -22.663  1.00  0.00     0.062 A 
HETATM   23  C15 UNL     1      48.099  15.518 -21.467  1.00  0.00     0.073 A 
HETATM   24  C16 UNL     1      47.365  16.677 -21.729  1.00  0.00     0.231 A 
HETATM   25  F1  UNL     1      46.706  17.350 -20.766  1.00  0.00    -0.178 F 
HETATM   26  O2  UNL     1      47.470  16.907 -23.030  1.00  0.00    -0.266 OA
ENDBRANCH   7  21
TORSDOF 5
ENDMDL
MODEL 5
REMARK VINA RESULT: -7.377541598      2.994      5.234
REMARK  5 active torsions:
REMARK  status: ('A' for Active; 'I' for Inactive)
REMARK    1  A    between atoms: C2_2  and  C3_3 
REMARK    2  A    between atoms: C2_2  and  C9_10 
REMARK    3  A    between atoms: C9_10  and  O1_12 
REMARK    4  A    between atoms: C9_10  and  C11_14 
REMARK    5  A    between atoms: N3_20  and  C13_21 
ROOT
HETATM    1  C11 UNL     1      47.082  16.376 -25.448  1.00  0.00     0.141 A 
HETATM    2  N1  UNL     1      45.920  16.658 -24.834  1.00  0.00    -0.285 N 
ATOM      3  H1  UNL     1      45.014  16.243 -25.049  1.00  0.00     0.188 HD
HETATM    4  N2  UNL     1      46.151  17.555 -23.917  1.00  0.00    -0.294 N 
ATOM      5  H2  UNL     1      45.449  17.959 -23.297  1.00  0.00     0.187 HD
HETATM    6  C12 UNL     1      47.450  17.862 -23.915  1.00  0.00     0.208 A 
HETATM    7  N3  UNL     1      48.026  17.102 -24.892  1.00  0.00    -0.272 N 
ENDROOT
BRANCH   1   8
HETATM    8  C9  UNL     1      47.309  15.460 -26.610  1.00  0.00     0.121 C 
HETATM    9  C10 UNL     1      48.184  14.322 -26.036  1.00  0.00     0.055 C 
BRANCH   8  10
HETATM   10  C2  UNL     1      46.070  14.812 -27.126  1.00  0.00     0.056 C 
HETATM   11  C1  UNL     1      45.191  15.754 -27.948  1.00  0.00     0.018 C 
BRANCH  10  12
HETATM   12  C3  UNL     1      46.190  13.480 -27.748  1.00  0.00    -0.051 A 
HETATM   13  C4  UNL     1      46.378  12.284 -27.132  1.00  0.00     0.009 A 
HETATM   14  C5  UNL     1      46.535  11.093 -27.846  1.00  0.00     0.019 A 
HETATM   15  C6  UNL     1      46.507  11.057 -29.205  1.00  0.00     0.011 A 
HETATM   16 BR1  UNL     1      46.732   9.388 -30.130  1.00  0.00    -0.051 Br
HETATM   17  C7  UNL     1      46.313  12.247 -29.860  1.00  0.00     0.019 A 
HETATM   18  C8  UNL     1      46.164  13.408 -29.142  1.00  0.00     0.009 A 
ENDBRANCH  10  12
ENDBRANCH   8  10
BRANCH   8  19
HETATM   19  O1  UNL     1      47.983  16.098 -27.600  1.00  0.00    -0.382 OA
ATOM     20  H1  UNL     1      48.800  15.658 -27.803  1.00  0.00     0.211 HD
ENDBRANCH   8  19
ENDBRANCH   1   8
BRANCH   7  21
HETATM   21  C13 UNL     1      49.452  17.160 -25.113  1.00  0.00     0.159 A 
HETATM   22  C14 UNL     1      50.323  16.649 -24.143  1.00  0.00     0.062 A 
HETATM   23  C15 UNL     1      51.593  16.830 -24.601  1.00  0.00     0.073 A 
HETATM   24  C16 UNL     1      51.471  17.452 -25.846  1.00  0.00     0.231 A 
HETATM   25  F1  UNL     1      52.539  17.790 -26.594  1.00  0.00    -0.178 F 
HETATM   26  O2  UNL     1      50.174  17.610 -26.067  1.00  0.00    -0.266 OA
ENDBRANCH   7  21
TORSDOF 5
ENDMDL
