MODEL 1
REMARK VINA RESULT: -9.405681955      0.000      0.000
REMARK  4 active torsions:
REMARK  status: ('A' for Active; 'I' for Inactive)
REMARK    1  A    between atoms: C2_2  and  C4_4 
REMARK    2  A    between atoms: C6_6  and  C7_7 
REMARK    3  A    between atoms: N1_10  and  C10_11 
REMARK    4  A    between atoms: N2_21  and  C18_22 
ROOT
HETATM    1  C4  UNL     1      51.022  10.452 -25.731  1.00  0.00     0.032 A 
HETATM    2  C5  UNL     1      49.953  11.308 -25.758  1.00  0.00     0.054 A 
HETATM    3  C6  UNL     1      49.962  12.059 -24.595  1.00  0.00     0.042 A 
HETATM    4  N2  UNL     1      51.027  11.657 -23.882  1.00  0.00    -0.241 N 
HETATM    5  N6  UNL     1      51.645  10.693 -24.581  1.00  0.00    -0.296 N 
ATOM      6  H6  UNL     1      52.486  10.207 -24.270  1.00  0.00     0.187 HD
ENDROOT
BRANCH   3   7
HETATM    7  C7  UNL     1      48.947  13.097 -24.246  1.00  0.00     0.041 C 
HETATM    8  C8  UNL     1      49.598  14.452 -24.213  1.00  0.00     0.030 C 
HETATM    9  C9  UNL     1      49.696  14.955 -25.646  1.00  0.00     0.118 C 
HETATM   10  N1  UNL     1      48.426  15.449 -26.040  1.00  0.00    -0.408 N 
HETATM   11  C16 UNL     1      47.385  14.623 -25.478  1.00  0.00     0.118 C 
HETATM   12  C17 UNL     1      47.867  13.196 -25.317  1.00  0.00     0.030 C 
BRANCH  10  13
HETATM   13  C10 UNL     1      48.195  16.823 -26.081  1.00  0.00     0.079 C 
HETATM   14  C11 UNL     1      47.354  17.328 -24.924  1.00  0.00     0.030 C 
HETATM   15  C12 UNL     1      46.840  18.733 -25.250  1.00  0.00     0.081 C 
HETATM   16  C13 UNL     1      47.954  19.675 -25.594  1.00  0.00     0.243 C 
HETATM   17  F1  UNL     1      48.629  20.071 -24.464  1.00  0.00    -0.206 F 
HETATM   18  F2  UNL     1      47.360  20.774 -26.227  1.00  0.00    -0.206 F 
HETATM   19  C14 UNL     1      48.926  19.081 -26.576  1.00  0.00     0.081 C 
HETATM   20  C15 UNL     1      49.408  17.710 -26.131  1.00  0.00     0.030 C 
ENDBRANCH  10  13
ENDBRANCH   3   7
BRANCH   4  21
HETATM   21  C18 UNL     1      51.451  12.143 -22.611  1.00  0.00     0.157 A 
HETATM   22  C19 UNL     1      52.569  12.904 -22.406  1.00  0.00     0.156 A 
HETATM   23  N3  UNL     1      52.650  13.163 -21.063  1.00  0.00    -0.292 N 
HETATM   24  N4  UNL     1      51.610  12.574 -20.473  1.00  0.00    -0.021 NA
ATOM     25  H3  UNL     1      53.376  13.708 -20.599  1.00  0.00     0.183 HD
HETATM   26  N5  UNL     1      50.890  11.960 -21.418  1.00  0.00    -0.267 N 
ATOM     27  H5  UNL     1      50.035  11.430 -21.249  1.00  0.00     0.186 HD
ENDBRANCH   4  21
BRANCH   1  28
HETATM   28  C2  UNL     1      51.478   9.461 -26.760  1.00  0.00     0.029 C 
HETATM   29  C1  UNL     1      50.338   8.919 -27.544  1.00  0.00     0.016 C 
HETATM   30  C3  UNL     1      52.526  10.046 -27.689  1.00  0.00     0.016 C 
ENDBRANCH   1  28
TORSDOF 4
ENDMDL
MODEL 2
REMARK VINA RESULT: -9.284960681      0.832      1.131
REMARK  4 active torsions:
REMARK  status: ('A' for Active; 'I' for Inactive)
REMARK    1  A    between atoms: C2_2  and  C4_4 
REMARK    2  A    between atoms: C6_6  and  C7_7 
REMARK    3  A    between atoms: N1_10  and  C10_11 
REMARK    4  A    between atoms: N2_21  and  C18_22 
ROOT
HETATM    1  C4  UNL     1      50.612  10.211 -25.685  1.00  0.00     0.032 A 
HETATM    2  C5  UNL     1      49.661  11.188 -25.816  1.00  0.00     0.054 A 
HETATM    3  C6  UNL     1      49.421  11.738 -24.568  1.00  0.00     0.042 A 
HETATM    4  N2  UNL     1      50.222  11.097 -23.702  1.00  0.00    -0.241 N 
HETATM    5  N6  UNL     1      50.924  10.187 -24.392  1.00  0.00    -0.296 N 
ATOM      6  H6  UNL     1      51.611   9.556 -23.979  1.00  0.00     0.187 HD
ENDROOT
BRANCH   3   7
HETATM    7  C7  UNL     1      48.436  12.826 -24.296  1.00  0.00     0.041 C 
HETATM    8  C8  UNL     1      49.156  14.139 -24.161  1.00  0.00     0.030 C 
HETATM    9  C9  UNL     1      49.427  14.666 -25.563  1.00  0.00     0.118 C 
HETATM   10  N1  UNL     1      48.233  15.242 -26.069  1.00  0.00    -0.408 N 
HETATM   11  C16 UNL     1      47.096  14.467 -25.637  1.00  0.00     0.118 C 
HETATM   12  C17 UNL     1      47.478  13.012 -25.466  1.00  0.00     0.030 C 
BRANCH  10  13
HETATM   13  C10 UNL     1      48.086  16.628 -26.097  1.00  0.00     0.079 C 
HETATM   14  C11 UNL     1      47.424  17.189 -24.853  1.00  0.00     0.030 C 
HETATM   15  C12 UNL     1      46.964  18.622 -25.130  1.00  0.00     0.081 C 
HETATM   16  C13 UNL     1      48.086  19.491 -25.614  1.00  0.00     0.243 C 
HETATM   17  F1  UNL     1      48.915  19.845 -24.577  1.00  0.00    -0.206 F 
HETATM   18  F2  UNL     1      47.489  20.624 -26.183  1.00  0.00    -0.206 F 
HETATM   19  C14 UNL     1      48.893  18.834 -26.699  1.00  0.00     0.081 C 
HETATM   20  C15 UNL     1      49.338  17.436 -26.301  1.00  0.00     0.030 C 
ENDBRANCH  10  13
ENDBRANCH   3   7
BRANCH   4  21
HETATM   21  C18 UNL     1      50.330  11.318 -22.298  1.00  0.00     0.157 A 
HETATM   22  C19 UNL     1      49.612  10.643 -21.349  1.00  0.00     0.156 A 
HETATM   23  N3  UNL     1      49.978  11.138 -20.126  1.00  0.00    -0.292 N 
HETATM   24  N4  UNL     1      50.893  12.086 -20.329  1.00  0.00    -0.021 NA
ATOM     25  H3  UNL     1      49.617  10.834 -19.222  1.00  0.00     0.183 HD
HETATM   26  N5  UNL     1      51.099  12.188 -21.646  1.00  0.00    -0.267 N 
ATOM     27  H5  UNL     1      51.751  12.836 -22.087  1.00  0.00     0.186 HD
ENDBRANCH   4  21
BRANCH   1  28
HETATM   28  C2  UNL     1      51.245   9.347 -26.734  1.00  0.00     0.029 C 
HETATM   29  C1  UNL     1      50.230   8.764 -27.651  1.00  0.00     0.016 C 
HETATM   30  C3  UNL     1      52.303  10.094 -27.526  1.00  0.00     0.016 C 
ENDBRANCH   1  28
TORSDOF 4
ENDMDL
MODEL 3
REMARK VINA RESULT: -9.084506585      1.455      1.811
REMARK  4 active torsions:
REMARK  status: ('A' for Active; 'I' for Inactive)
REMARK    1  A    between atoms: C2_2  and  C4_4 
REMARK    2  A    between atoms: C6_6  and  C7_7 
REMARK    3  A    between atoms: N1_10  and  C10_11 
REMARK    4  A    between atoms: N2_21  and  C18_22 
ROOT
HETATM    1  C4  UNL     1      50.255  10.254 -24.024  1.00  0.00     0.032 A 
HETATM    2  C5  UNL     1      49.343  11.234 -24.314  1.00  0.00     0.054 A 
HETATM    3  C6  UNL     1      49.142  11.998 -23.177  1.00  0.00     0.042 A 
HETATM    4  N2  UNL     1      49.927  11.480 -22.219  1.00  0.00    -0.241 N 
HETATM    5  N6  UNL     1      50.583  10.437 -22.748  1.00  0.00    -0.296 N 
ATOM      6  H6  UNL     1      51.248   9.856 -22.237  1.00  0.00     0.187 HD
ENDROOT
BRANCH   3   7
HETATM    7  C7  UNL     1      48.206  13.158 -23.088  1.00  0.00     0.041 C 
HETATM    8  C8  UNL     1      48.983  14.443 -23.164  1.00  0.00     0.030 C 
HETATM    9  C9  UNL     1      49.273  14.724 -24.631  1.00  0.00     0.118 C 
HETATM   10  N1  UNL     1      48.104  15.262 -25.230  1.00  0.00    -0.408 N 
HETATM   11  C16 UNL     1      46.935  14.617 -24.683  1.00  0.00     0.118 C 
HETATM   12  C17 UNL     1      47.254  13.193 -24.277  1.00  0.00     0.030 C 
BRANCH  10  13
HETATM   13  C10 UNL     1      48.018  16.630 -25.481  1.00  0.00     0.079 C 
HETATM   14  C11 UNL     1      47.036  17.349 -24.574  1.00  0.00     0.030 C 
HETATM   15  C12 UNL     1      46.726  18.728 -25.161  1.00  0.00     0.081 C 
HETATM   16  C13 UNL     1      47.969  19.532 -25.400  1.00  0.00     0.243 C 
HETATM   17  F1  UNL     1      48.466  20.030 -24.220  1.00  0.00    -0.206 F 
HETATM   18  F2  UNL     1      47.605  20.573 -26.264  1.00  0.00    -0.206 F 
HETATM   19  C14 UNL     1      49.039  18.740 -26.101  1.00  0.00     0.081 C 
HETATM   20  C15 UNL     1      49.300  17.413 -25.408  1.00  0.00     0.030 C 
ENDBRANCH  10  13
ENDBRANCH   3   7
BRANCH   4  21
HETATM   21  C18 UNL     1      50.062  11.932 -20.874  1.00  0.00     0.157 A 
HETATM   22  C19 UNL     1      49.064  11.893 -19.939  1.00  0.00     0.156 A 
HETATM   23  N3  UNL     1      49.565  12.421 -18.778  1.00  0.00    -0.292 N 
HETATM   24  N4  UNL     1      50.831  12.769 -19.006  1.00  0.00    -0.021 NA
ATOM     25  H3  UNL     1      49.060  12.527 -17.899  1.00  0.00     0.183 HD
HETATM   26  N5  UNL     1      51.123  12.469 -20.275  1.00  0.00    -0.267 N 
ATOM     27  H5  UNL     1      52.026  12.629 -20.721  1.00  0.00     0.186 HD
ENDBRANCH   4  21
BRANCH   1  28
HETATM   28  C2  UNL     1      50.838   9.198 -24.914  1.00  0.00     0.029 C 
HETATM   29  C1  UNL     1      50.784   9.595 -26.345  1.00  0.00     0.016 C 
HETATM   30  C3  UNL     1      52.260   8.841 -24.519  1.00  0.00     0.016 C 
ENDBRANCH   1  28
TORSDOF 4
ENDMDL
MODEL 4
REMARK VINA RESULT: -8.956503265      1.424      2.038
REMARK  4 active torsions:
REMARK  status: ('A' for Active; 'I' for Inactive)
REMARK    1  A    between atoms: C2_2  and  C4_4 
REMARK    2  A    between atoms: C6_6  and  C7_7 
REMARK    3  A    between atoms: N1_10  and  C10_11 
REMARK    4  A    between atoms: N2_21  and  C18_22 
ROOT
HETATM    1  C4  UNL     1      50.869   9.782 -26.104  1.00  0.00     0.032 A 
HETATM    2  C5  UNL     1      50.010  10.848 -26.110  1.00  0.00     0.054 A 
HETATM    3  C6  UNL     1      49.617  11.102 -24.806  1.00  0.00     0.042 A 
HETATM    4  N2  UNL     1      50.237  10.198 -24.031  1.00  0.00    -0.241 N 
HETATM    5  N6  UNL     1      50.980   9.417 -24.830  1.00  0.00    -0.296 N 
ATOM      6  H6  UNL     1      51.556   8.642 -24.502  1.00  0.00     0.187 HD
ENDROOT
BRANCH   3   7
HETATM    7  C7  UNL     1      48.670  12.183 -24.401  1.00  0.00     0.041 C 
HETATM    8  C8  UNL     1      49.442  13.401 -23.976  1.00  0.00     0.030 C 
HETATM    9  C9  UNL     1      49.846  14.157 -25.234  1.00  0.00     0.118 C 
HETATM   10  N1  UNL     1      48.725  14.890 -25.701  1.00  0.00    -0.408 N 
HETATM   11  C16 UNL     1      47.520  14.122 -25.498  1.00  0.00     0.118 C 
HETATM   12  C17 UNL     1      47.814  12.639 -25.576  1.00  0.00     0.030 C 
BRANCH  10  13
HETATM   13  C10 UNL     1      48.649  16.264 -25.479  1.00  0.00     0.079 C 
HETATM   14  C11 UNL     1      49.847  17.027 -26.012  1.00  0.00     0.030 C 
HETATM   15  C12 UNL     1      49.864  18.429 -25.399  1.00  0.00     0.081 C 
HETATM   16  C13 UNL     1      48.576  19.163 -25.630  1.00  0.00     0.243 C 
HETATM   17  F1  UNL     1      48.496  19.616 -26.925  1.00  0.00    -0.206 F 
HETATM   18  F2  UNL     1      48.565  20.234 -24.728  1.00  0.00    -0.206 F 
HETATM   19  C14 UNL     1      47.371  18.318 -25.319  1.00  0.00     0.081 C 
HETATM   20  C15 UNL     1      47.435  16.969 -26.016  1.00  0.00     0.030 C 
ENDBRANCH  10  13
ENDBRANCH   3   7
BRANCH   4  21
HETATM   21  C18 UNL     1      50.144  10.064 -22.616  1.00  0.00     0.157 A 
HETATM   22  C19 UNL     1      49.689   8.946 -21.971  1.00  0.00     0.156 A 
HETATM   23  N3  UNL     1      49.736   9.198 -20.626  1.00  0.00    -0.292 N 
HETATM   24  N4  UNL     1      50.207  10.435 -20.461  1.00  0.00    -0.021 NA
ATOM     25  H3  UNL     1      49.460   8.555 -19.884  1.00  0.00     0.183 HD
HETATM   26  N5  UNL     1      50.451  10.949 -21.671  1.00  0.00    -0.267 N 
ATOM     27  H5  UNL     1      50.820  11.884 -21.844  1.00  0.00     0.186 HD
ENDBRANCH   4  21
BRANCH   1  28
HETATM   28  C2  UNL     1      51.600   9.138 -27.245  1.00  0.00     0.029 C 
HETATM   29  C1  UNL     1      50.662   8.584 -28.255  1.00  0.00     0.016 C 
HETATM   30  C3  UNL     1      52.581  10.091 -27.903  1.00  0.00     0.016 C 
ENDBRANCH   1  28
TORSDOF 4
ENDMDL
MODEL 5
REMARK VINA RESULT: -8.800037410      5.044      8.004
REMARK  4 active torsions:
REMARK  status: ('A' for Active; 'I' for Inactive)
REMARK    1  A    between atoms: C2_2  and  C4_4 
REMARK    2  A    between atoms: C6_6  and  C7_7 
REMARK    3  A    between atoms: N1_10  and  C10_11 
REMARK    4  A    between atoms: N2_21  and  C18_22 
ROOT
HETATM    1  C4  UNL     1      47.628  12.122 -24.206  1.00  0.00     0.032 A 
HETATM    2  C5  UNL     1      48.739  11.824 -24.948  1.00  0.00     0.054 A 
HETATM    3  C6  UNL     1      49.613  11.096 -24.158  1.00  0.00     0.042 A 
HETATM    4  N2  UNL     1      49.028  10.959 -22.958  1.00  0.00    -0.241 N 
HETATM    5  N6  UNL     1      47.841  11.582 -23.009  1.00  0.00    -0.296 N 
ATOM      6  H6  UNL     1      47.186  11.636 -22.229  1.00  0.00     0.187 HD
ENDROOT
BRANCH   3   7
HETATM    7  C7  UNL     1      50.947  10.596 -24.606  1.00  0.00     0.041 C 
HETATM    8  C8  UNL     1      50.782   9.279 -25.314  1.00  0.00     0.030 C 
HETATM    9  C9  UNL     1      50.354   9.570 -26.744  1.00  0.00     0.118 C 
HETATM   10  N1  UNL     1      51.497   9.958 -27.490  1.00  0.00    -0.408 N 
HETATM   11  C16 UNL     1      52.370  10.757 -26.664  1.00  0.00     0.118 C 
HETATM   12  C17 UNL     1      51.571  11.529 -25.636  1.00  0.00     0.030 C 
BRANCH  10  13
HETATM   13  C10 UNL     1      52.099   9.053 -28.363  1.00  0.00     0.079 C 
HETATM   14  C11 UNL     1      51.103   8.255 -29.184  1.00  0.00     0.030 C 
HETATM   15  C12 UNL     1      51.815   7.053 -29.810  1.00  0.00     0.081 C 
HETATM   16  C13 UNL     1      53.013   7.462 -30.613  1.00  0.00     0.243 C 
HETATM   17  F1  UNL     1      52.634   7.999 -31.820  1.00  0.00    -0.206 F 
HETATM   18  F2  UNL     1      53.775   6.303 -30.803  1.00  0.00    -0.206 F 
HETATM   19  C14 UNL     1      53.888   8.443 -29.882  1.00  0.00     0.081 C 
HETATM   20  C15 UNL     1      53.088   9.618 -29.345  1.00  0.00     0.030 C 
ENDBRANCH  10  13
ENDBRANCH   3   7
BRANCH   4  21
HETATM   21  C18 UNL     1      49.546  10.282 -21.815  1.00  0.00     0.157 A 
HETATM   22  C19 UNL     1      49.683  10.846 -20.577  1.00  0.00     0.156 A 
HETATM   23  N3  UNL     1      50.222   9.897 -19.749  1.00  0.00    -0.292 N 
HETATM   24  N4  UNL     1      50.405   8.789 -20.468  1.00  0.00    -0.021 NA
ATOM     25  H3  UNL     1      50.442  10.016 -18.761  1.00  0.00     0.183 HD
HETATM   26  N5  UNL     1      49.992   9.032 -21.716  1.00  0.00    -0.267 N 
ATOM     27  H5  UNL     1      50.016   8.358 -22.481  1.00  0.00     0.186 HD
ENDBRANCH   4  21
BRANCH   1  28
HETATM   28  C2  UNL     1      46.382  12.855 -24.604  1.00  0.00     0.029 C 
HETATM   29  C1  UNL     1      46.656  14.285 -24.897  1.00  0.00     0.016 C 
HETATM   30  C3  UNL     1      45.687  12.198 -25.783  1.00  0.00     0.016 C 
ENDBRANCH   1  28
TORSDOF 4
ENDMDL
