MODEL 1
REMARK VINA RESULT: -7.895983598      0.000      0.000
REMARK  10 active torsions:
REMARK  status: ('A' for Active; 'I' for Inactive)
REMARK    1  A    between atoms: N1_1  and  C1_4 
REMARK    2  A    between atoms: C2_8  and  N4_9 
REMARK    3  A    between atoms: C4_18  and  N8_19 
REMARK    4  A    between atoms: N8_19  and  N9_20 
REMARK    5  A    between atoms: C5_25  and  C6_26 
REMARK    6  A    between atoms: C6_26  and  C7_27 
REMARK    7  A    between atoms: C7_27  and  S1_28 
REMARK    8  A    between atoms: S1_28  and  C8_29 
REMARK    9  A    between atoms: C8_29  and  C9_30 
REMARK   10  A    between atoms: C9_30  and  O1_31 
ROOT
HETATM    1  C1  UNL     1      12.780  -9.612 -14.009  1.00  0.00     0.145 A 
HETATM    2  N2  UNL     1      12.158  -8.545 -13.494  1.00  0.00    -0.246 N 
ATOM      3  H2  UNL     1      12.261  -7.635 -13.943  1.00  0.00     0.191 HD
HETATM    4  N3  UNL     1      11.412  -8.661 -12.412  1.00  0.00     0.006 N 
HETATM    5  C2  UNL     1      10.691  -7.740 -11.712  1.00  0.00     0.730 A 
HETATM    6  N5  UNL     1      10.118  -8.399 -10.692  1.00  0.00    -0.113 N 
ATOM      7  H5  UNL     1       9.513  -7.984  -9.984  1.00  0.00     0.207 HD
HETATM    8  N6  UNL     1      10.463  -9.659 -10.755  1.00  0.00    -0.204 N 
ATOM      9  H6  UNL     1      10.169 -10.388 -10.104  1.00  0.00     0.211 HD
HETATM   10  N7  UNL     1      11.249  -9.833 -11.796  1.00  0.00    -0.138 N 
HETATM   11  C3  UNL     1      11.846 -10.943 -12.261  1.00  0.00     0.169 A 
HETATM   12  C4  UNL     1      11.643 -12.160 -11.574  1.00  0.00     0.237 A 
HETATM   13  N10 UNL     1      12.315 -13.222 -12.162  1.00  0.00    -0.317 N 
ATOM     14  H10 UNL     1      12.222 -14.141 -11.729  1.00  0.00     0.170 HD
HETATM   15  C5  UNL     1      13.066 -13.126 -13.243  1.00  0.00     0.084 A 
HETATM   16  N11 UNL     1      13.219 -11.948 -13.849  1.00  0.00    -0.341 N 
ATOM     17  H11 UNL     1      13.801 -11.888 -14.684  1.00  0.00     0.167 HD
HETATM   18  C10 UNL     1      12.623 -10.838 -13.383  1.00  0.00     0.115 A 
ENDROOT
BRANCH  15  19
HETATM   19  C6  UNL     1      13.722 -14.374 -13.742  1.00  0.00     0.087 C 
BRANCH  19  20
HETATM   20  C7  UNL     1      15.207 -14.359 -13.484  1.00  0.00     0.081 C 
BRANCH  20  21
HETATM   21  S1  UNL     1      16.011 -14.780 -15.080  1.00  0.00    -0.167 SA
BRANCH  21  22
HETATM   22  C8  UNL     1      14.760 -15.476 -16.203  1.00  0.00     0.099 C 
BRANCH  22  23
HETATM   23  C9  UNL     1      15.350 -16.569 -17.059  1.00  0.00     0.174 C 
BRANCH  23  24
HETATM   24  O1  UNL     1      16.734 -16.409 -17.128  1.00  0.00    -0.400 OA
ATOM     25  H1  UNL     1      17.158 -17.241 -16.955  1.00  0.00     0.209 HD
ENDBRANCH  23  24
ENDBRANCH  22  23
ENDBRANCH  21  22
ENDBRANCH  20  21
ENDBRANCH  19  20
ENDBRANCH  15  19
BRANCH  12  26
HETATM   26  N8  UNL     1      10.978 -12.305 -10.596  1.00  0.00    -0.312 NA
BRANCH  26  27
HETATM   27  N9  UNL     1      10.274 -12.459  -9.563  1.00  0.00    -0.278 N 
ATOM     28  H92 UNL     1      10.882 -12.352 -10.374  1.00  0.00     0.191 HD
ATOM     29  H91 UNL     1       9.703 -12.585  -8.726  1.00  0.00     0.191 HD
ENDBRANCH  26  27
ENDBRANCH  12  26
BRANCH   1  30
HETATM   30  N1  UNL     1      13.503  -9.508 -15.056  1.00  0.00    -0.382 N 
ATOM     31  H12 UNL     1      14.257  -8.822 -15.098  1.00  0.00     0.157 HD
ATOM     32  H11 UNL     1      13.343 -10.107 -15.865  1.00  0.00     0.157 HD
ENDBRANCH   1  30
BRANCH   5  33
HETATM   33  N4  UNL     1      10.553  -6.492 -11.936  1.00  0.00    -0.230 N 
ATOM     34  H42 UNL     1      11.298  -5.878 -12.266  1.00  0.00     0.174 HD
ATOM     35  H41 UNL     1       9.723  -5.911 -11.831  1.00  0.00     0.174 HD
ENDBRANCH   5  33
TORSDOF 10
ENDMDL
MODEL 2
REMARK VINA RESULT: -7.535541775      1.912      2.709
REMARK  10 active torsions:
REMARK  status: ('A' for Active; 'I' for Inactive)
REMARK    1  A    between atoms: N1_1  and  C1_4 
REMARK    2  A    between atoms: C2_8  and  N4_9 
REMARK    3  A    between atoms: C4_18  and  N8_19 
REMARK    4  A    between atoms: N8_19  and  N9_20 
REMARK    5  A    between atoms: C5_25  and  C6_26 
REMARK    6  A    between atoms: C6_26  and  C7_27 
REMARK    7  A    between atoms: C7_27  and  S1_28 
REMARK    8  A    between atoms: S1_28  and  C8_29 
REMARK    9  A    between atoms: C8_29  and  C9_30 
REMARK   10  A    between atoms: C9_30  and  O1_31 
ROOT
HETATM    1  C1  UNL     1      13.538  -8.933 -15.287  1.00  0.00     0.145 A 
HETATM    2  N2  UNL     1      13.550  -7.596 -15.273  1.00  0.00    -0.246 N 
ATOM      3  H2  UNL     1      13.790  -7.083 -16.122  1.00  0.00     0.191 HD
HETATM    4  N3  UNL     1      13.254  -6.934 -14.170  1.00  0.00     0.006 N 
HETATM    5  C2  UNL     1      13.198  -5.597 -13.910  1.00  0.00     0.730 A 
HETATM    6  N5  UNL     1      12.844  -5.475 -12.621  1.00  0.00    -0.113 N 
ATOM      7  H5  UNL     1      12.718  -4.594 -12.122  1.00  0.00     0.207 HD
HETATM    8  N6  UNL     1      12.688  -6.668 -12.108  1.00  0.00    -0.204 N 
ATOM      9  H6  UNL     1      12.419  -6.870 -11.145  1.00  0.00     0.211 HD
HETATM   10  N7  UNL     1      12.934  -7.565 -13.039  1.00  0.00    -0.138 N 
HETATM   11  C3  UNL     1      12.904  -8.907 -12.986  1.00  0.00     0.169 A 
HETATM   12  C4  UNL     1      12.559  -9.528 -11.766  1.00  0.00     0.237 A 
HETATM   13  N10 UNL     1      12.564 -10.914 -11.853  1.00  0.00    -0.317 N 
ATOM     14  H10 UNL     1      12.325 -11.444 -11.015  1.00  0.00     0.170 HD
HETATM   15  C5  UNL     1      12.858 -11.593 -12.945  1.00  0.00     0.084 A 
HETATM   16  N11 UNL     1      13.176 -10.948 -14.070  1.00  0.00    -0.341 N 
ATOM     17  H11 UNL     1      13.400 -11.486 -14.908  1.00  0.00     0.167 HD
HETATM   18  C10 UNL     1      13.208  -9.607 -14.122  1.00  0.00     0.115 A 
ENDROOT
BRANCH  15  19
HETATM   19  C6  UNL     1      12.819 -13.086 -12.863  1.00  0.00     0.087 C 
BRANCH  19  20
HETATM   20  C7  UNL     1      14.159 -13.693 -13.193  1.00  0.00     0.081 C 
BRANCH  20  21
HETATM   21  S1  UNL     1      13.966 -14.507 -14.827  1.00  0.00    -0.167 SA
BRANCH  21  22
HETATM   22  C8  UNL     1      15.602 -15.053 -15.409  1.00  0.00     0.099 C 
BRANCH  22  23
HETATM   23  C9  UNL     1      15.470 -16.108 -16.479  1.00  0.00     0.174 C 
BRANCH  23  24
HETATM   24  O1  UNL     1      16.726 -16.376 -17.024  1.00  0.00    -0.400 OA
ATOM     25  H1  UNL     1      16.644 -16.501 -17.962  1.00  0.00     0.209 HD
ENDBRANCH  23  24
ENDBRANCH  22  23
ENDBRANCH  21  22
ENDBRANCH  20  21
ENDBRANCH  19  20
ENDBRANCH  15  19
BRANCH  12  26
HETATM   26  N8  UNL     1      12.285  -8.967 -10.751  1.00  0.00    -0.312 NA
BRANCH  26  27
HETATM   27  N9  UNL     1      11.996  -8.373  -9.679  1.00  0.00    -0.278 N 
ATOM     28  H92 UNL     1      12.277  -8.854 -10.533  1.00  0.00     0.191 HD
ATOM     29  H91 UNL     1      11.761  -7.892  -8.810  1.00  0.00     0.191 HD
ENDBRANCH  26  27
ENDBRANCH  12  26
BRANCH   1  30
HETATM   30  N1  UNL     1      13.823  -9.581 -16.350  1.00  0.00    -0.382 N 
ATOM     31  H12 UNL     1      13.337  -9.378 -17.225  1.00  0.00     0.157 HD
ATOM     32  H11 UNL     1      14.537 -10.309 -16.346  1.00  0.00     0.157 HD
ENDBRANCH   1  30
BRANCH   5  33
HETATM   33  N4  UNL     1      13.426  -4.618 -14.694  1.00  0.00    -0.230 N 
ATOM     34  H42 UNL     1      13.396  -4.673 -15.712  1.00  0.00     0.174 HD
ATOM     35  H41 UNL     1      13.667  -3.655 -14.462  1.00  0.00     0.174 HD
ENDBRANCH   5  33
TORSDOF 10
ENDMDL
MODEL 3
REMARK VINA RESULT: -7.502353523      2.282      3.457
REMARK  10 active torsions:
REMARK  status: ('A' for Active; 'I' for Inactive)
REMARK    1  A    between atoms: N1_1  and  C1_4 
REMARK    2  A    between atoms: C2_8  and  N4_9 
REMARK    3  A    between atoms: C4_18  and  N8_19 
REMARK    4  A    between atoms: N8_19  and  N9_20 
REMARK    5  A    between atoms: C5_25  and  C6_26 
REMARK    6  A    between atoms: C6_26  and  C7_27 
REMARK    7  A    between atoms: C7_27  and  S1_28 
REMARK    8  A    between atoms: S1_28  and  C8_29 
REMARK    9  A    between atoms: C8_29  and  C9_30 
REMARK   10  A    between atoms: C9_30  and  O1_31 
ROOT
HETATM    1  C1  UNL     1      13.278  -8.664 -15.277  1.00  0.00     0.145 A 
HETATM    2  N2  UNL     1      13.307  -7.343 -15.483  1.00  0.00    -0.246 N 
ATOM      3  H2  UNL     1      13.751  -6.972 -16.324  1.00  0.00     0.191 HD
HETATM    4  N3  UNL     1      12.767  -6.516 -14.609  1.00  0.00     0.006 N 
HETATM    5  C2  UNL     1      12.671  -5.156 -14.595  1.00  0.00     0.730 A 
HETATM    6  N5  UNL     1      12.022  -4.831 -13.466  1.00  0.00    -0.113 N 
ATOM      7  H5  UNL     1      11.793  -3.883 -13.166  1.00  0.00     0.207 HD
HETATM    8  N6  UNL     1      11.729  -5.926 -12.815  1.00  0.00    -0.204 N 
ATOM      9  H6  UNL     1      11.235  -5.973 -11.923  1.00  0.00     0.211 HD
HETATM   10  N7  UNL     1      12.177  -6.958 -13.497  1.00  0.00    -0.138 N 
HETATM   11  C3  UNL     1      12.113  -8.274 -13.230  1.00  0.00     0.169 A 
HETATM   12  C4  UNL     1      11.477  -8.693 -12.041  1.00  0.00     0.237 A 
HETATM   13  N10 UNL     1      11.482 -10.073 -11.892  1.00  0.00    -0.317 N 
ATOM     14  H10 UNL     1      11.042 -10.463 -11.059  1.00  0.00     0.170 HD
HETATM   15  C5  UNL     1      12.017 -10.916 -12.755  1.00  0.00     0.084 A 
HETATM   16  N11 UNL     1      12.605 -10.459 -13.862  1.00  0.00    -0.341 N 
ATOM     17  H11 UNL     1      13.014 -11.122 -14.521  1.00  0.00     0.167 HD
HETATM   18  C10 UNL     1      12.669  -9.144 -14.128  1.00  0.00     0.115 A 
ENDROOT
BRANCH  15  19
HETATM   19  C6  UNL     1      11.937 -12.376 -12.437  1.00  0.00     0.087 C 
BRANCH  19  20
HETATM   20  C7  UNL     1      13.299 -13.021 -12.452  1.00  0.00     0.081 C 
BRANCH  20  21
HETATM   21  S1  UNL     1      13.255 -14.285 -13.782  1.00  0.00    -0.167 SA
BRANCH  21  22
HETATM   22  C8  UNL     1      14.879 -14.334 -14.602  1.00  0.00     0.099 C 
BRANCH  22  23
HETATM   23  C9  UNL     1      14.846 -13.584 -15.910  1.00  0.00     0.174 C 
BRANCH  23  24
HETATM   24  O1  UNL     1      14.194 -12.364 -15.731  1.00  0.00    -0.400 OA
ATOM     25  H1  UNL     1      14.728 -11.795 -15.189  1.00  0.00     0.209 HD
ENDBRANCH  23  24
ENDBRANCH  22  23
ENDBRANCH  21  22
ENDBRANCH  20  21
ENDBRANCH  19  20
ENDBRANCH  15  19
BRANCH  12  26
HETATM   26  N8  UNL     1      10.978  -7.979 -11.229  1.00  0.00    -0.312 NA
BRANCH  26  27
HETATM   27  N9  UNL     1      10.450  -7.224 -10.369  1.00  0.00    -0.278 N 
ATOM     28  H92 UNL     1      10.853  -7.873 -11.045  1.00  0.00     0.191 HD
ATOM     29  H91 UNL     1      10.022  -6.612  -9.674  1.00  0.00     0.191 HD
ENDBRANCH  26  27
ENDBRANCH  12  26
BRANCH   1  30
HETATM   30  N1  UNL     1      13.798  -9.472 -16.118  1.00  0.00    -0.382 N 
ATOM     31  H12 UNL     1      14.612 -10.032 -15.863  1.00  0.00     0.157 HD
ATOM     32  H11 UNL     1      13.412  -9.572 -17.057  1.00  0.00     0.157 HD
ENDBRANCH   1  30
BRANCH   5  33
HETATM   33  N4  UNL     1      13.094  -4.315 -15.454  1.00  0.00    -0.230 N 
ATOM     34  H42 UNL     1      14.017  -3.881 -15.434  1.00  0.00     0.174 HD
ATOM     35  H41 UNL     1      12.616  -3.940 -16.273  1.00  0.00     0.174 HD
ENDBRANCH   5  33
TORSDOF 10
ENDMDL
MODEL 4
REMARK VINA RESULT: -7.489837036      4.230      6.100
REMARK  10 active torsions:
REMARK  status: ('A' for Active; 'I' for Inactive)
REMARK    1  A    between atoms: N1_1  and  C1_4 
REMARK    2  A    between atoms: C2_8  and  N4_9 
REMARK    3  A    between atoms: C4_18  and  N8_19 
REMARK    4  A    between atoms: N8_19  and  N9_20 
REMARK    5  A    between atoms: C5_25  and  C6_26 
REMARK    6  A    between atoms: C6_26  and  C7_27 
REMARK    7  A    between atoms: C7_27  and  S1_28 
REMARK    8  A    between atoms: S1_28  and  C8_29 
REMARK    9  A    between atoms: C8_29  and  C9_30 
REMARK   10  A    between atoms: C9_30  and  O1_31 
ROOT
HETATM    1  C1  UNL     1      10.637  -8.511 -11.096  1.00  0.00     0.145 A 
HETATM    2  N2  UNL     1      10.037  -9.181 -10.106  1.00  0.00    -0.246 N 
ATOM      3  H2  UNL     1       9.479  -8.674  -9.418  1.00  0.00     0.191 HD
HETATM    4  N3  UNL     1      10.160 -10.491 -10.011  1.00  0.00     0.006 N 
HETATM    5  C2  UNL     1       9.654 -11.380  -9.110  1.00  0.00     0.730 A 
HETATM    6  N5  UNL     1      10.093 -12.593  -9.484  1.00  0.00    -0.113 N 
ATOM      7  H5  UNL     1       9.886 -13.471  -9.009  1.00  0.00     0.207 HD
HETATM    8  N6  UNL     1      10.830 -12.465 -10.558  1.00  0.00    -0.204 N 
ATOM      9  H6  UNL     1      11.290 -13.227 -11.056  1.00  0.00     0.211 HD
HETATM   10  N7  UNL     1      10.879 -11.192 -10.889  1.00  0.00    -0.138 N 
HETATM   11  C3  UNL     1      11.508 -10.581 -11.907  1.00  0.00     0.169 A 
HETATM   12  C4  UNL     1      12.256 -11.366 -12.810  1.00  0.00     0.237 A 
HETATM   13  N10 UNL     1      12.849 -10.609 -13.811  1.00  0.00    -0.317 N 
ATOM     14  H10 UNL     1      13.409 -11.098 -14.509  1.00  0.00     0.170 HD
HETATM   15  C5  UNL     1      12.738  -9.299 -13.922  1.00  0.00     0.084 A 
HETATM   16  N11 UNL     1      12.015  -8.610 -13.037  1.00  0.00    -0.341 N 
ATOM     17  H11 UNL     1      11.937  -7.598 -13.135  1.00  0.00     0.167 HD
HETATM   18  C10 UNL     1      11.389  -9.222 -12.019  1.00  0.00     0.115 A 
ENDROOT
BRANCH  15  19
HETATM   19  C6  UNL     1      13.447  -8.639 -15.061  1.00  0.00     0.087 C 
BRANCH  19  20
HETATM   20  C7  UNL     1      13.904  -7.249 -14.698  1.00  0.00     0.081 C 
BRANCH  20  21
HETATM   21  S1  UNL     1      12.930  -6.098 -15.745  1.00  0.00    -0.167 SA
BRANCH  21  22
HETATM   22  C8  UNL     1      11.198  -6.114 -15.184  1.00  0.00     0.099 C 
BRANCH  22  23
HETATM   23  C9  UNL     1      10.870  -4.864 -14.407  1.00  0.00     0.174 C 
BRANCH  23  24
HETATM   24  O1  UNL     1      10.016  -5.183 -13.352  1.00  0.00    -0.400 OA
ATOM     25  H1  UNL     1      10.041  -4.490 -12.702  1.00  0.00     0.209 HD
ENDBRANCH  23  24
ENDBRANCH  22  23
ENDBRANCH  21  22
ENDBRANCH  20  21
ENDBRANCH  19  20
ENDBRANCH  15  19
BRANCH  12  26
HETATM   26  N8  UNL     1      12.391 -12.549 -12.759  1.00  0.00    -0.312 NA
BRANCH  26  27
HETATM   27  N9  UNL     1      12.535 -13.800 -12.704  1.00  0.00    -0.278 N 
ATOM     28  H92 UNL     1      12.465 -12.784 -12.764  1.00  0.00     0.191 HD
ATOM     29  H91 UNL     1      12.650 -14.812 -12.660  1.00  0.00     0.191 HD
ENDBRANCH  26  27
ENDBRANCH  12  26
BRANCH   1  30
HETATM   30  N1  UNL     1      10.522  -7.243 -11.195  1.00  0.00    -0.382 N 
ATOM     31  H12 UNL     1      11.330  -6.638 -11.047  1.00  0.00     0.157 HD
ATOM     32  H11 UNL     1       9.626  -6.814 -11.425  1.00  0.00     0.157 HD
ENDBRANCH   1  30
BRANCH   5  33
HETATM   33  N4  UNL     1       8.910 -11.160  -8.099  1.00  0.00    -0.230 N 
ATOM     34  H42 UNL     1       8.147 -11.767  -7.800  1.00  0.00     0.174 HD
ATOM     35  H41 UNL     1       8.936 -10.382  -7.441  1.00  0.00     0.174 HD
ENDBRANCH   5  33
TORSDOF 10
ENDMDL
MODEL 5
REMARK VINA RESULT: -7.481324653      0.630      2.957
REMARK  10 active torsions:
REMARK  status: ('A' for Active; 'I' for Inactive)
REMARK    1  A    between atoms: N1_1  and  C1_4 
REMARK    2  A    between atoms: C2_8  and  N4_9 
REMARK    3  A    between atoms: C4_18  and  N8_19 
REMARK    4  A    between atoms: N8_19  and  N9_20 
REMARK    5  A    between atoms: C5_25  and  C6_26 
REMARK    6  A    between atoms: C6_26  and  C7_27 
REMARK    7  A    between atoms: C7_27  and  S1_28 
REMARK    8  A    between atoms: S1_28  and  C8_29 
REMARK    9  A    between atoms: C8_29  and  C9_30 
REMARK   10  A    between atoms: C9_30  and  O1_31 
ROOT
HETATM    1  C1  UNL     1      11.075 -11.562 -10.797  1.00  0.00     0.145 A 
HETATM    2  N2  UNL     1      10.613 -10.339 -10.516  1.00  0.00    -0.246 N 
ATOM      3  H2  UNL     1      10.020 -10.198  -9.697  1.00  0.00     0.191 HD
HETATM    4  N3  UNL     1      10.917  -9.313 -11.288  1.00  0.00     0.006 N 
HETATM    5  C2  UNL     1      10.575  -7.996 -11.212  1.00  0.00     0.730 A 
HETATM    6  N5  UNL     1      11.159  -7.390 -12.258  1.00  0.00    -0.113 N 
ATOM      7  H5  UNL     1      11.092  -6.396 -12.480  1.00  0.00     0.207 HD
HETATM    8  N6  UNL     1      11.827  -8.279 -12.945  1.00  0.00    -0.204 N 
ATOM      9  H6  UNL     1      12.367  -8.094 -13.791  1.00  0.00     0.211 HD
HETATM   10  N7  UNL     1      11.688  -9.453 -12.367  1.00  0.00    -0.138 N 
HETATM   11  C3  UNL     1      12.185 -10.655 -12.705  1.00  0.00     0.169 A 
HETATM   12  C4  UNL     1      12.997 -10.753 -13.856  1.00  0.00     0.237 A 
HETATM   13  N10 UNL     1      13.443 -12.047 -14.087  1.00  0.00    -0.317 N 
ATOM     14  H10 UNL     1      14.038 -12.207 -14.900  1.00  0.00     0.170 HD
HETATM   15  C5  UNL     1      13.149 -13.085 -13.327  1.00  0.00     0.084 A 
HETATM   16  N11 UNL     1      12.376 -12.930 -12.250  1.00  0.00    -0.341 N 
ATOM     17  H11 UNL     1      12.158 -13.740 -11.671  1.00  0.00     0.167 HD
HETATM   18  C10 UNL     1      11.879 -11.728 -11.913  1.00  0.00     0.115 A 
ENDROOT
BRANCH  15  19
HETATM   19  C6  UNL     1      13.711 -14.413 -13.723  1.00  0.00     0.087 C 
BRANCH  19  20
HETATM   20  C7  UNL     1      15.206 -14.459 -13.537  1.00  0.00     0.081 C 
BRANCH  20  21
HETATM   21  S1  UNL     1      15.925 -14.680 -15.212  1.00  0.00    -0.167 SA
BRANCH  21  22
HETATM   22  C8  UNL     1      14.713 -15.535 -16.266  1.00  0.00     0.099 C 
BRANCH  22  23
HETATM   23  C9  UNL     1      15.380 -16.595 -17.106  1.00  0.00     0.174 C 
BRANCH  23  24
HETATM   24  O1  UNL     1      16.758 -16.385 -17.112  1.00  0.00    -0.400 OA
ATOM     25  H1  UNL     1      16.939 -15.462 -16.978  1.00  0.00     0.209 HD
ENDBRANCH  23  24
ENDBRANCH  22  23
ENDBRANCH  21  22
ENDBRANCH  20  21
ENDBRANCH  19  20
ENDBRANCH  15  19
BRANCH  12  26
HETATM   26  N8  UNL     1      13.294  -9.852 -14.578  1.00  0.00    -0.312 NA
BRANCH  26  27
HETATM   27  N9  UNL     1      13.609  -8.900 -15.340  1.00  0.00    -0.278 N 
ATOM     28  H92 UNL     1      13.402  -9.682 -14.720  1.00  0.00     0.191 HD
ATOM     29  H91 UNL     1      13.864  -8.129 -15.958  1.00  0.00     0.191 HD
ENDBRANCH  26  27
ENDBRANCH  12  26
BRANCH   1  30
HETATM   30  N1  UNL     1      10.786 -12.560 -10.054  1.00  0.00    -0.382 N 
ATOM     31  H12 UNL     1      11.369 -12.791  -9.249  1.00  0.00     0.157 HD
ATOM     32  H11 UNL     1       9.972 -13.141 -10.249  1.00  0.00     0.157 HD
ENDBRANCH   1  30
BRANCH   5  33
HETATM   33  N4  UNL     1       9.851  -7.405 -10.345  1.00  0.00    -0.230 N 
ATOM     34  H42 UNL     1       9.261  -7.881  -9.663  1.00  0.00     0.174 HD
ATOM     35  H41 UNL     1       9.732  -6.406 -10.183  1.00  0.00     0.174 HD
ENDBRANCH   5  33
TORSDOF 10
ENDMDL
