MODEL 1
REMARK VINA RESULT: -7.708945725      0.000      0.000
REMARK  13 active torsions:
REMARK  status: ('A' for Active; 'I' for Inactive)
REMARK    1  A    between atoms: C2_2  and  O1_3 
REMARK    2  A    between atoms: C2_2  and  C3_5 
REMARK    3  A    between atoms: C2_2  and  C4_8 
REMARK    4  A    between atoms: C3_5  and  O2_6 
REMARK    5  A    between atoms: C4_8  and  O4_10 
REMARK    6  A    between atoms: O4_10  and  C5_11 
REMARK    7  A    between atoms: C9_15  and  O5_16 
REMARK    8  A    between atoms: O5_16  and  C10_17 
REMARK    9  A    between atoms: C10_17  and  C11_18 
REMARK   10  A    between atoms: C27_36  and  O7_37 
REMARK   11  A    between atoms: C29_40  and  C30_41 
REMARK   12  A    between atoms: C30_41  and  O8_42 
REMARK   13  A    between atoms: O8_42  and  C31_43 
ROOT
HETATM    1  C5  UNL     1      45.954   9.589  -0.975  1.00  0.00     0.143 C 
HETATM    2  C6  UNL     1      44.971  10.106   0.052  1.00  0.00     0.039 C 
HETATM    3  C7  UNL     1      45.544  11.422   0.528  1.00  0.00    -0.001 C 
HETATM    4  C8  UNL     1      44.560  12.237   1.349  1.00  0.00     0.037 C 
HETATM    5  C9  UNL     1      45.147  13.655   1.303  1.00  0.00     0.121 C 
HETATM    6  C12 UNL     1      46.402  13.599   2.130  1.00  0.00     0.033 C 
HETATM    7  C13 UNL     1      47.409  12.660   1.551  1.00  0.00     0.012 C 
HETATM    8  C14 UNL     1      46.870  11.299   1.208  1.00  0.00    -0.035 C 
HETATM    9  C15 UNL     1      46.603  10.665   2.582  1.00  0.00     0.016 C 
HETATM   10  C16 UNL     1      47.823  10.476   0.450  1.00  0.00     0.014 C 
HETATM   11  C17 UNL     1      48.783  11.194  -0.443  1.00  0.00     0.030 C 
HETATM   12  C18 UNL     1      48.341  11.832  -1.671  1.00  0.00     0.035 C 
HETATM   13  C19 UNL     1      49.547  12.429  -2.329  1.00  0.00    -0.022 C 
HETATM   14  C20 UNL     1      50.606  11.638  -2.461  1.00  0.00    -0.065 C 
HETATM   15  C21 UNL     1      51.854  12.159  -3.111  1.00  0.00     0.113 C 
HETATM   16  C22 UNL     1      52.861  11.135  -3.380  1.00  0.00     0.130 C 
HETATM   17  O6  UNL     1      53.576  11.225  -4.341  1.00  0.00    -0.298 OA
HETATM   18  C23 UNL     1      53.031   9.957  -2.482  1.00  0.00     0.080 C 
HETATM   19  C24 UNL     1      51.936   9.916  -1.438  1.00  0.00     0.024 C 
HETATM   20  C25 UNL     1      50.559  10.261  -1.971  1.00  0.00     0.011 C 
HETATM   21  C26 UNL     1      50.305   9.269  -3.123  1.00  0.00     0.023 C 
HETATM   22  C27 UNL     1      49.567   9.948  -0.918  1.00  0.00     0.074 C 
HETATM   23  C28 UNL     1      48.423   9.050  -1.277  1.00  0.00     0.054 C 
HETATM   24  C29 UNL     1      47.284   9.328  -0.310  1.00  0.00     0.016 C 
ENDROOT
BRANCH   1  25
HETATM   25  O4  UNL     1      45.520   8.435  -1.651  1.00  0.00    -0.313 OA
BRANCH  25  26
HETATM   26  C4  UNL     1      44.675   8.442  -2.730  1.00  0.00     0.295 C 
HETATM   27  O3  UNL     1      45.232   8.713  -3.821  1.00  0.00    -0.262 OA
BRANCH  26  28
HETATM   28  C2  UNL     1      43.235   8.174  -2.729  1.00  0.00     0.162 C 
HETATM   29  C1  UNL     1      42.926   7.052  -3.700  1.00  0.00     0.059 C 
BRANCH  28  30
HETATM   30  O1  UNL     1      42.811   7.723  -1.461  1.00  0.00    -0.378 OA
ATOM     31  H1  UNL     1      42.511   8.494  -0.993  1.00  0.00     0.211 HD
ENDBRANCH  28  30
BRANCH  28  32
HETATM   32  C3  UNL     1      42.404   9.414  -3.003  1.00  0.00     0.212 C 
BRANCH  32  33
HETATM   33  O2  UNL     1      43.166  10.561  -3.001  1.00  0.00    -0.397 OA
ATOM     34  H2  UNL     1      43.056  11.064  -2.203  1.00  0.00     0.209 HD
ENDBRANCH  32  33
ENDBRANCH  28  32
ENDBRANCH  26  28
ENDBRANCH  25  26
ENDBRANCH   1  25
BRANCH  24  35
HETATM   35  C30 UNL     1      47.041   8.064   0.484  1.00  0.00     0.188 C 
BRANCH  35  36
HETATM   36  O8  UNL     1      48.074   7.152   0.544  1.00  0.00    -0.349 OA
BRANCH  36  37
HETATM   37  C31 UNL     1      48.495   6.727   1.793  1.00  0.00     0.084 A 
HETATM   38  C32 UNL     1      48.546   7.650   2.807  1.00  0.00     0.039 A 
HETATM   39  C33 UNL     1      48.963   7.270   4.077  1.00  0.00     0.020 A 
HETATM   40  C34 UNL     1      49.327   5.959   4.320  1.00  0.00     0.088 A 
HETATM   41  N1  UNL     1      49.258   5.095   3.286  1.00  0.00    -0.373 N 
HETATM   42  C35 UNL     1      48.861   5.440   2.062  1.00  0.00     0.124 A 
ATOM     43  H1  UNL     1      49.524   4.124   3.450  1.00  0.00     0.164 HD
ENDBRANCH  36  37
ENDBRANCH  35  36
ENDBRANCH  24  35
BRANCH  22  44
HETATM   44  O7  UNL     1      50.233   9.482   0.210  1.00  0.00    -0.388 OA
ATOM     45  H7  UNL     1      50.893   8.883  -0.118  1.00  0.00     0.210 HD
ENDBRANCH  22  44
BRANCH   5  46
HETATM   46  O5  UNL     1      44.261  14.608   1.653  1.00  0.00    -0.385 OA
BRANCH  46  47
HETATM   47  C10 UNL     1      44.483  15.384   2.741  1.00  0.00     0.183 C 
BRANCH  47  48
HETATM   48  C11 UNL     1      44.910  16.764   2.308  1.00  0.00     0.140 C 
HETATM   49 CL1  UNL     1      46.595  17.098   2.782  1.00  0.00    -0.128 Cl
ENDBRANCH  47  48
ENDBRANCH  46  47
ENDBRANCH   5  46
TORSDOF 13
ENDMDL
MODEL 2
REMARK VINA RESULT: -7.669652766      0.604      1.177
REMARK  13 active torsions:
REMARK  status: ('A' for Active; 'I' for Inactive)
REMARK    1  A    between atoms: C2_2  and  O1_3 
REMARK    2  A    between atoms: C2_2  and  C3_5 
REMARK    3  A    between atoms: C2_2  and  C4_8 
REMARK    4  A    between atoms: C3_5  and  O2_6 
REMARK    5  A    between atoms: C4_8  and  O4_10 
REMARK    6  A    between atoms: O4_10  and  C5_11 
REMARK    7  A    between atoms: C9_15  and  O5_16 
REMARK    8  A    between atoms: O5_16  and  C10_17 
REMARK    9  A    between atoms: C10_17  and  C11_18 
REMARK   10  A    between atoms: C27_36  and  O7_37 
REMARK   11  A    between atoms: C29_40  and  C30_41 
REMARK   12  A    between atoms: C30_41  and  O8_42 
REMARK   13  A    between atoms: O8_42  and  C31_43 
ROOT
HETATM    1  C5  UNL     1      45.739   9.597  -0.811  1.00  0.00     0.143 C 
HETATM    2  C6  UNL     1      44.846  10.142   0.282  1.00  0.00     0.039 C 
HETATM    3  C7  UNL     1      45.473  11.455   0.694  1.00  0.00    -0.001 C 
HETATM    4  C8  UNL     1      44.566  12.296   1.576  1.00  0.00     0.037 C 
HETATM    5  C9  UNL     1      45.167  13.705   1.465  1.00  0.00     0.121 C 
HETATM    6  C12 UNL     1      46.483  13.641   2.193  1.00  0.00     0.033 C 
HETATM    7  C13 UNL     1      47.428  12.680   1.550  1.00  0.00     0.012 C 
HETATM    8  C14 UNL     1      46.845  11.322   1.270  1.00  0.00    -0.035 C 
HETATM    9  C15 UNL     1      46.677  10.710   2.669  1.00  0.00     0.016 C 
HETATM   10  C16 UNL     1      47.726  10.475   0.452  1.00  0.00     0.014 C 
HETATM   11  C17 UNL     1      48.623  11.167  -0.523  1.00  0.00     0.030 C 
HETATM   12  C18 UNL     1      48.095  11.796  -1.722  1.00  0.00     0.035 C 
HETATM   13  C19 UNL     1      49.254  12.366  -2.480  1.00  0.00    -0.022 C 
HETATM   14  C20 UNL     1      50.288  11.558  -2.683  1.00  0.00    -0.065 C 
HETATM   15  C21 UNL     1      51.489  12.052  -3.435  1.00  0.00     0.113 C 
HETATM   16  C22 UNL     1      52.458  11.010  -3.767  1.00  0.00     0.130 C 
HETATM   17  O6  UNL     1      53.098  11.076  -4.782  1.00  0.00    -0.298 OA
HETATM   18  C23 UNL     1      52.681   9.841  -2.868  1.00  0.00     0.080 C 
HETATM   19  C24 UNL     1      51.671   9.830  -1.742  1.00  0.00     0.024 C 
HETATM   20  C25 UNL     1      50.261  10.188  -2.171  1.00  0.00     0.011 C 
HETATM   21  C26 UNL     1      49.905   9.185  -3.285  1.00  0.00     0.023 C 
HETATM   22  C27 UNL     1      49.350   9.904  -1.039  1.00  0.00     0.074 C 
HETATM   23  C28 UNL     1      48.169   9.018  -1.296  1.00  0.00     0.054 C 
HETATM   24  C29 UNL     1      47.113   9.325  -0.248  1.00  0.00     0.016 C 
ENDROOT
BRANCH   1  25
HETATM   25  O4  UNL     1      45.238   8.441  -1.435  1.00  0.00    -0.313 OA
BRANCH  25  26
HETATM   26  C4  UNL     1      44.003   8.352  -2.022  1.00  0.00     0.295 C 
HETATM   27  O3  UNL     1      43.131   7.799  -1.310  1.00  0.00    -0.262 OA
BRANCH  26  28
HETATM   28  C2  UNL     1      43.620   8.824  -3.355  1.00  0.00     0.162 C 
HETATM   29  C1  UNL     1      42.917  10.162  -3.237  1.00  0.00     0.059 C 
BRANCH  28  30
HETATM   30  O1  UNL     1      44.762   9.049  -4.153  1.00  0.00    -0.378 OA
ATOM     31  H1  UNL     1      44.945   8.226  -4.590  1.00  0.00     0.211 HD
ENDBRANCH  28  30
BRANCH  28  32
HETATM   32  C3  UNL     1      42.796   7.809  -4.125  1.00  0.00     0.212 C 
BRANCH  32  33
HETATM   33  O2  UNL     1      43.237   6.520  -3.923  1.00  0.00    -0.397 OA
ATOM     34  H2  UNL     1      42.519   5.904  -3.844  1.00  0.00     0.209 HD
ENDBRANCH  32  33
ENDBRANCH  28  32
ENDBRANCH  26  28
ENDBRANCH  25  26
ENDBRANCH   1  25
BRANCH  24  35
HETATM   35  C30 UNL     1      46.916   8.076   0.581  1.00  0.00     0.188 C 
BRANCH  35  36
HETATM   36  O8  UNL     1      47.941   7.154   0.581  1.00  0.00    -0.349 OA
BRANCH  36  37
HETATM   37  C31 UNL     1      48.446   6.742   1.803  1.00  0.00     0.084 A 
HETATM   38  C32 UNL     1      48.472   7.650   2.832  1.00  0.00     0.039 A 
HETATM   39  C33 UNL     1      48.969   7.282   4.076  1.00  0.00     0.020 A 
HETATM   40  C34 UNL     1      49.439   5.998   4.279  1.00  0.00     0.088 A 
HETATM   41  N1  UNL     1      49.390   5.148   3.232  1.00  0.00    -0.373 N 
HETATM   42  C35 UNL     1      48.917   5.481   2.032  1.00  0.00     0.124 A 
ATOM     43  H1  UNL     1      49.733   4.197   3.367  1.00  0.00     0.164 HD
ENDBRANCH  36  37
ENDBRANCH  35  36
ENDBRANCH  24  35
BRANCH  22  44
HETATM   44  O7  UNL     1      50.096   9.443   0.040  1.00  0.00    -0.388 OA
ATOM     45  H7  UNL     1      50.752  10.111   0.195  1.00  0.00     0.210 HD
ENDBRANCH  22  44
BRANCH   5  46
HETATM   46  O5  UNL     1      44.325  14.675   1.869  1.00  0.00    -0.385 OA
BRANCH  46  47
HETATM   47  C10 UNL     1      44.523  15.958   1.484  1.00  0.00     0.183 C 
BRANCH  47  48
HETATM   48  C11 UNL     1      44.856  16.808   2.685  1.00  0.00     0.140 C 
HETATM   49 CL1  UNL     1      46.612  17.078   2.818  1.00  0.00    -0.128 Cl
ENDBRANCH  47  48
ENDBRANCH  46  47
ENDBRANCH   5  46
TORSDOF 13
ENDMDL
MODEL 3
REMARK VINA RESULT: -7.401208430      0.911      1.479
REMARK  13 active torsions:
REMARK  status: ('A' for Active; 'I' for Inactive)
REMARK    1  A    between atoms: C2_2  and  O1_3 
REMARK    2  A    between atoms: C2_2  and  C3_5 
REMARK    3  A    between atoms: C2_2  and  C4_8 
REMARK    4  A    between atoms: C3_5  and  O2_6 
REMARK    5  A    between atoms: C4_8  and  O4_10 
REMARK    6  A    between atoms: O4_10  and  C5_11 
REMARK    7  A    between atoms: C9_15  and  O5_16 
REMARK    8  A    between atoms: O5_16  and  C10_17 
REMARK    9  A    between atoms: C10_17  and  C11_18 
REMARK   10  A    between atoms: C27_36  and  O7_37 
REMARK   11  A    between atoms: C29_40  and  C30_41 
REMARK   12  A    between atoms: C30_41  and  O8_42 
REMARK   13  A    between atoms: O8_42  and  C31_43 
ROOT
HETATM    1  C5  UNL     1      46.046   9.606  -1.055  1.00  0.00     0.143 C 
HETATM    2  C6  UNL     1      45.047  10.077  -0.022  1.00  0.00     0.039 C 
HETATM    3  C7  UNL     1      45.593  11.390   0.493  1.00  0.00    -0.001 C 
HETATM    4  C8  UNL     1      44.588  12.165   1.328  1.00  0.00     0.037 C 
HETATM    5  C9  UNL     1      45.149  13.594   1.325  1.00  0.00     0.121 C 
HETATM    6  C12 UNL     1      46.400  13.539   2.159  1.00  0.00     0.033 C 
HETATM    7  C13 UNL     1      47.428  12.634   1.562  1.00  0.00     0.012 C 
HETATM    8  C14 UNL     1      46.915  11.273   1.179  1.00  0.00    -0.035 C 
HETATM    9  C15 UNL     1      46.651  10.598   2.534  1.00  0.00     0.016 C 
HETATM   10  C16 UNL     1      47.890  10.487   0.407  1.00  0.00     0.014 C 
HETATM   11  C17 UNL     1      48.842  11.247  -0.459  1.00  0.00     0.030 C 
HETATM   12  C18 UNL     1      48.397  11.909  -1.674  1.00  0.00     0.035 C 
HETATM   13  C19 UNL     1      49.597  12.545  -2.306  1.00  0.00    -0.022 C 
HETATM   14  C20 UNL     1      50.670  11.778  -2.452  1.00  0.00    -0.065 C 
HETATM   15  C21 UNL     1      51.913  12.338  -3.078  1.00  0.00     0.113 C 
HETATM   16  C22 UNL     1      52.940  11.340  -3.367  1.00  0.00     0.130 C 
HETATM   17  O6  UNL     1      53.661  11.468  -4.320  1.00  0.00    -0.298 OA
HETATM   18  C23 UNL     1      53.126  10.142  -2.499  1.00  0.00     0.080 C 
HETATM   19  C24 UNL     1      52.025  10.053  -1.465  1.00  0.00     0.024 C 
HETATM   20  C25 UNL     1      50.645  10.387  -1.999  1.00  0.00     0.011 C 
HETATM   21  C26 UNL     1      50.418   9.422  -3.178  1.00  0.00     0.023 C 
HETATM   22  C27 UNL     1      49.652  10.029  -0.961  1.00  0.00     0.074 C 
HETATM   23  C28 UNL     1      48.527   9.119  -1.353  1.00  0.00     0.054 C 
HETATM   24  C29 UNL     1      47.376   9.351  -0.387  1.00  0.00     0.016 C 
ENDROOT
BRANCH   1  25
HETATM   25  O4  UNL     1      45.639   8.462  -1.765  1.00  0.00    -0.313 OA
BRANCH  25  26
HETATM   26  C4  UNL     1      45.278   8.460  -3.087  1.00  0.00     0.295 C 
HETATM   27  O3  UNL     1      44.086   8.788  -3.298  1.00  0.00    -0.262 OA
BRANCH  26  28
HETATM   28  C2  UNL     1      46.124   8.123  -4.235  1.00  0.00     0.162 C 
HETATM   29  C1  UNL     1      46.902   9.348  -4.670  1.00  0.00     0.059 C 
BRANCH  28  30
HETATM   30  O1  UNL     1      47.084   7.152  -3.880  1.00  0.00    -0.378 OA
ATOM     31  H1  UNL     1      46.616   6.328  -3.814  1.00  0.00     0.211 HD
ENDBRANCH  28  30
BRANCH  28  32
HETATM   32  C3  UNL     1      45.343   7.503  -5.379  1.00  0.00     0.212 C 
BRANCH  32  33
HETATM   33  O2  UNL     1      44.379   6.625  -4.936  1.00  0.00    -0.397 OA
ATOM     34  H2  UNL     1      44.085   6.039  -5.623  1.00  0.00     0.209 HD
ENDBRANCH  32  33
ENDBRANCH  28  32
ENDBRANCH  26  28
ENDBRANCH  25  26
ENDBRANCH   1  25
BRANCH  24  35
HETATM   35  C30 UNL     1      47.151   8.062   0.371  1.00  0.00     0.188 C 
BRANCH  35  36
HETATM   36  O8  UNL     1      48.226   7.206   0.487  1.00  0.00    -0.349 OA
BRANCH  36  37
HETATM   37  C31 UNL     1      48.576   6.769   1.753  1.00  0.00     0.084 A 
HETATM   38  C32 UNL     1      48.680   7.701   2.754  1.00  0.00     0.039 A 
HETATM   39  C33 UNL     1      49.028   7.309   4.040  1.00  0.00     0.020 A 
HETATM   40  C34 UNL     1      49.273   5.976   4.313  1.00  0.00     0.088 A 
HETATM   41  N1  UNL     1      49.157   5.104   3.291  1.00  0.00    -0.373 N 
HETATM   42  C35 UNL     1      48.824   5.460   2.051  1.00  0.00     0.124 A 
ATOM     43  H1  UNL     1      49.335   4.117   3.477  1.00  0.00     0.164 HD
ENDBRANCH  36  37
ENDBRANCH  35  36
ENDBRANCH  24  35
BRANCH  22  44
HETATM   44  O7  UNL     1      50.319   9.544   0.159  1.00  0.00    -0.388 OA
ATOM     45  H7  UNL     1      50.840   8.815  -0.155  1.00  0.00     0.210 HD
ENDBRANCH  22  44
BRANCH   5  46
HETATM   46  O5  UNL     1      44.244  14.521   1.693  1.00  0.00    -0.385 OA
BRANCH  46  47
HETATM   47  C10 UNL     1      44.518  15.383   2.701  1.00  0.00     0.183 C 
BRANCH  47  48
HETATM   48  C11 UNL     1      45.022  16.688   2.138  1.00  0.00     0.140 C 
HETATM   49 CL1  UNL     1      46.646  17.075   2.760  1.00  0.00    -0.128 Cl
ENDBRANCH  47  48
ENDBRANCH  46  47
ENDBRANCH   5  46
TORSDOF 13
ENDMDL
MODEL 4
REMARK VINA RESULT: -6.987467210      3.018      4.926
REMARK  13 active torsions:
REMARK  status: ('A' for Active; 'I' for Inactive)
REMARK    1  A    between atoms: C2_2  and  O1_3 
REMARK    2  A    between atoms: C2_2  and  C3_5 
REMARK    3  A    between atoms: C2_2  and  C4_8 
REMARK    4  A    between atoms: C3_5  and  O2_6 
REMARK    5  A    between atoms: C4_8  and  O4_10 
REMARK    6  A    between atoms: O4_10  and  C5_11 
REMARK    7  A    between atoms: C9_15  and  O5_16 
REMARK    8  A    between atoms: O5_16  and  C10_17 
REMARK    9  A    between atoms: C10_17  and  C11_18 
REMARK   10  A    between atoms: C27_36  and  O7_37 
REMARK   11  A    between atoms: C29_40  and  C30_41 
REMARK   12  A    between atoms: C30_41  and  O8_42 
REMARK   13  A    between atoms: O8_42  and  C31_43 
ROOT
HETATM    1  C5  UNL     1      45.531  12.858  -1.741  1.00  0.00     0.143 C 
HETATM    2  C6  UNL     1      44.872  13.469  -0.524  1.00  0.00     0.039 C 
HETATM    3  C7  UNL     1      45.821  13.198   0.623  1.00  0.00    -0.001 C 
HETATM    4  C8  UNL     1      45.478  13.984   1.876  1.00  0.00     0.037 C 
HETATM    5  C9  UNL     1      46.778  13.939   2.692  1.00  0.00     0.121 C 
HETATM    6  C12 UNL     1      46.921  12.511   3.145  1.00  0.00     0.033 C 
HETATM    7  C13 UNL     1      47.062  11.573   1.992  1.00  0.00     0.012 C 
HETATM    8  C14 UNL     1      46.029  11.747   0.913  1.00  0.00    -0.035 C 
HETATM    9  C15 UNL     1      44.737  11.242   1.573  1.00  0.00     0.016 C 
HETATM   10  C16 UNL     1      46.318  10.961  -0.295  1.00  0.00     0.014 C 
HETATM   11  C17 UNL     1      47.756  10.705  -0.612  1.00  0.00     0.030 C 
HETATM   12  C18 UNL     1      48.628  11.769  -1.082  1.00  0.00     0.035 C 
HETATM   13  C19 UNL     1      49.979  11.169  -1.326  1.00  0.00    -0.022 C 
HETATM   14  C20 UNL     1      50.015  10.058  -2.051  1.00  0.00    -0.065 C 
HETATM   15  C21 UNL     1      51.330   9.395  -2.343  1.00  0.00     0.113 C 
HETATM   16  C22 UNL     1      51.250   8.309  -3.317  1.00  0.00     0.130 C 
HETATM   17  O6  UNL     1      52.166   8.094  -4.064  1.00  0.00    -0.298 OA
HETATM   18  C23 UNL     1      50.041   7.441  -3.415  1.00  0.00     0.080 C 
HETATM   19  C24 UNL     1      48.930   7.966  -2.532  1.00  0.00     0.024 C 
HETATM   20  C25 UNL     1      48.775   9.475  -2.563  1.00  0.00     0.011 C 
HETATM   21  C26 UNL     1      48.563   9.835  -4.046  1.00  0.00     0.023 C 
HETATM   22  C27 UNL     1      47.520   9.823  -1.860  1.00  0.00     0.074 C 
HETATM   23  C28 UNL     1      46.521  10.672  -2.586  1.00  0.00     0.054 C 
HETATM   24  C29 UNL     1      45.652  11.365  -1.551  1.00  0.00     0.016 C 
ENDROOT
BRANCH   1  25
HETATM   25  O4  UNL     1      44.868  13.136  -2.950  1.00  0.00    -0.313 OA
BRANCH  25  26
HETATM   26  C4  UNL     1      44.447  14.384  -3.332  1.00  0.00     0.295 C 
HETATM   27  O3  UNL     1      45.375  15.210  -3.508  1.00  0.00    -0.262 OA
BRANCH  26  28
HETATM   28  C2  UNL     1      43.067  14.827  -3.544  1.00  0.00     0.162 C 
HETATM   29  C1  UNL     1      42.182  13.623  -3.803  1.00  0.00     0.059 C 
BRANCH  28  30
HETATM   30  O1  UNL     1      42.557  15.449  -2.385  1.00  0.00    -0.378 OA
ATOM     31  H1  UNL     1      43.243  15.391  -1.731  1.00  0.00     0.211 HD
ENDBRANCH  28  30
BRANCH  28  32
HETATM   32  C3  UNL     1      42.946  15.873  -4.637  1.00  0.00     0.212 C 
BRANCH  32  33
HETATM   33  O2  UNL     1      43.318  17.125  -4.202  1.00  0.00    -0.397 OA
ATOM     34  H2  UNL     1      42.996  17.311  -3.328  1.00  0.00     0.209 HD
ENDBRANCH  32  33
ENDBRANCH  28  32
ENDBRANCH  26  28
ENDBRANCH  25  26
ENDBRANCH   1  25
BRANCH  24  35
HETATM   35  C30 UNL     1      44.236  10.868  -1.738  1.00  0.00     0.188 C 
BRANCH  35  36
HETATM   36  O8  UNL     1      43.987   9.549  -1.424  1.00  0.00    -0.349 OA
BRANCH  36  37
HETATM   37  C31 UNL     1      43.379   8.755  -2.382  1.00  0.00     0.084 A 
HETATM   38  C32 UNL     1      42.026   8.888  -2.568  1.00  0.00     0.039 A 
HETATM   39  C33 UNL     1      41.373   8.112  -3.518  1.00  0.00     0.020 A 
HETATM   40  C34 UNL     1      42.086   7.205  -4.277  1.00  0.00     0.088 A 
HETATM   41  N1  UNL     1      43.414   7.116  -4.051  1.00  0.00    -0.373 N 
HETATM   42  C35 UNL     1      44.058   7.851  -3.146  1.00  0.00     0.124 A 
ATOM     43  H1  UNL     1      43.953   6.451  -4.604  1.00  0.00     0.164 HD
ENDBRANCH  36  37
ENDBRANCH  35  36
ENDBRANCH  24  35
BRANCH  22  44
HETATM   44  O7  UNL     1      46.930   8.658  -1.379  1.00  0.00    -0.388 OA
ATOM     45  H7  UNL     1      47.648   8.132  -1.047  1.00  0.00     0.210 HD
ENDBRANCH  22  44
BRANCH   5  46
HETATM   46  O5  UNL     1      46.826  14.866   3.668  1.00  0.00    -0.385 OA
BRANCH  46  47
HETATM   47  C10 UNL     1      47.368  16.084   3.429  1.00  0.00     0.183 C 
BRANCH  47  48
HETATM   48  C11 UNL     1      46.366  17.164   3.753  1.00  0.00     0.140 C 
HETATM   49 CL1  UNL     1      44.948  16.496   4.601  1.00  0.00    -0.128 Cl
ENDBRANCH  47  48
ENDBRANCH  46  47
ENDBRANCH   5  46
TORSDOF 13
ENDMDL
MODEL 5
REMARK VINA RESULT: -6.911730039      2.851      5.070
REMARK  13 active torsions:
REMARK  status: ('A' for Active; 'I' for Inactive)
REMARK    1  A    between atoms: C2_2  and  O1_3 
REMARK    2  A    between atoms: C2_2  and  C3_5 
REMARK    3  A    between atoms: C2_2  and  C4_8 
REMARK    4  A    between atoms: C3_5  and  O2_6 
REMARK    5  A    between atoms: C4_8  and  O4_10 
REMARK    6  A    between atoms: O4_10  and  C5_11 
REMARK    7  A    between atoms: C9_15  and  O5_16 
REMARK    8  A    between atoms: O5_16  and  C10_17 
REMARK    9  A    between atoms: C10_17  and  C11_18 
REMARK   10  A    between atoms: C27_36  and  O7_37 
REMARK   11  A    between atoms: C29_40  and  C30_41 
REMARK   12  A    between atoms: C30_41  and  O8_42 
REMARK   13  A    between atoms: O8_42  and  C31_43 
ROOT
HETATM    1  C5  UNL     1      45.470  12.957  -1.714  1.00  0.00     0.143 C 
HETATM    2  C6  UNL     1      44.812  13.493  -0.462  1.00  0.00     0.039 C 
HETATM    3  C7  UNL     1      45.786  13.200   0.658  1.00  0.00    -0.001 C 
HETATM    4  C8  UNL     1      45.440  13.919   1.951  1.00  0.00     0.037 C 
HETATM    5  C9  UNL     1      46.752  13.875   2.746  1.00  0.00     0.121 C 
HETATM    6  C12 UNL     1      46.943  12.433   3.132  1.00  0.00     0.033 C 
HETATM    7  C13 UNL     1      47.093  11.552   1.936  1.00  0.00     0.012 C 
HETATM    8  C14 UNL     1      46.039  11.744   0.881  1.00  0.00    -0.035 C 
HETATM    9  C15 UNL     1      44.772  11.172   1.535  1.00  0.00     0.016 C 
HETATM   10  C16 UNL     1      46.332  11.020  -0.366  1.00  0.00     0.014 C 
HETATM   11  C17 UNL     1      47.772  10.821  -0.714  1.00  0.00     0.030 C 
HETATM   12  C18 UNL     1      48.606  11.929  -1.147  1.00  0.00     0.035 C 
HETATM   13  C19 UNL     1      49.969  11.381  -1.437  1.00  0.00    -0.022 C 
HETATM   14  C20 UNL     1      50.026  10.304  -2.211  1.00  0.00    -0.065 C 
HETATM   15  C21 UNL     1      51.354   9.694  -2.551  1.00  0.00     0.113 C 
HETATM   16  C22 UNL     1      51.291   8.650  -3.571  1.00  0.00     0.130 C 
HETATM   17  O6  UNL     1      52.201   8.496  -4.340  1.00  0.00    -0.298 OA
HETATM   18  C23 UNL     1      50.105   7.753  -3.692  1.00  0.00     0.080 C 
HETATM   19  C24 UNL     1      48.994   8.206  -2.771  1.00  0.00     0.024 C 
HETATM   20  C25 UNL     1      48.796   9.709  -2.732  1.00  0.00     0.011 C 
HETATM   21  C26 UNL     1      48.551  10.128  -4.194  1.00  0.00     0.023 C 
HETATM   22  C27 UNL     1      47.542   9.989  -1.996  1.00  0.00     0.074 C 
HETATM   23  C28 UNL     1      46.509  10.840  -2.670  1.00  0.00     0.054 C 
HETATM   24  C29 UNL     1      45.635  11.461  -1.593  1.00  0.00     0.016 C 
ENDROOT
BRANCH   1  25
HETATM   25  O4  UNL     1      44.781  13.269  -2.900  1.00  0.00    -0.313 OA
BRANCH  25  26
HETATM   26  C4  UNL     1      43.926  14.332  -3.040  1.00  0.00     0.295 C 
HETATM   27  O3  UNL     1      42.712  14.018  -3.067  1.00  0.00    -0.262 OA
BRANCH  26  28
HETATM   28  C2  UNL     1      44.285  15.747  -3.160  1.00  0.00     0.162 C 
HETATM   29  C1  UNL     1      45.652  15.872  -3.802  1.00  0.00     0.059 C 
BRANCH  28  30
HETATM   30  O1  UNL     1      43.387  16.421  -4.014  1.00  0.00    -0.378 OA
ATOM     31  H1  UNL     1      42.520  16.276  -3.654  1.00  0.00     0.211 HD
ENDBRANCH  28  30
BRANCH  28  32
HETATM   32  C3  UNL     1      44.201  16.489  -1.839  1.00  0.00     0.212 C 
BRANCH  32  33
HETATM   33  O2  UNL     1      43.012  16.255  -1.185  1.00  0.00    -0.397 OA
ATOM     34  H2  UNL     1      42.679  15.381  -1.348  1.00  0.00     0.209 HD
ENDBRANCH  32  33
ENDBRANCH  28  32
ENDBRANCH  26  28
ENDBRANCH  25  26
ENDBRANCH   1  25
BRANCH  24  35
HETATM   35  C30 UNL     1      44.232  10.932  -1.783  1.00  0.00     0.188 C 
BRANCH  35  36
HETATM   36  O8  UNL     1      44.007   9.614  -1.446  1.00  0.00    -0.349 OA
BRANCH  36  37
HETATM   37  C31 UNL     1      43.400   8.797  -2.385  1.00  0.00     0.084 A 
HETATM   38  C32 UNL     1      42.042   8.901  -2.552  1.00  0.00     0.039 A 
HETATM   39  C33 UNL     1      41.390   8.102  -3.483  1.00  0.00     0.020 A 
HETATM   40  C34 UNL     1      42.109   7.199  -4.242  1.00  0.00     0.088 A 
HETATM   41  N1  UNL     1      43.441   7.139  -4.036  1.00  0.00    -0.373 N 
HETATM   42  C35 UNL     1      44.085   7.897  -3.149  1.00  0.00     0.124 A 
ATOM     43  H1  UNL     1      43.986   6.478  -4.589  1.00  0.00     0.164 HD
ENDBRANCH  36  37
ENDBRANCH  35  36
ENDBRANCH  24  35
BRANCH  22  44
HETATM   44  O7  UNL     1      46.993   8.788  -1.561  1.00  0.00    -0.388 OA
ATOM     45  H7  UNL     1      47.698   8.338  -1.110  1.00  0.00     0.210 HD
ENDBRANCH  22  44
BRANCH   5  46
HETATM   46  O5  UNL     1      46.788  14.759   3.761  1.00  0.00    -0.385 OA
BRANCH  46  47
HETATM   47  C10 UNL     1      47.430  15.943   3.616  1.00  0.00     0.183 C 
BRANCH  47  48
HETATM   48  C11 UNL     1      46.520  17.073   4.029  1.00  0.00     0.140 C 
HETATM   49 CL1  UNL     1      44.949  16.461   4.603  1.00  0.00    -0.128 Cl
ENDBRANCH  47  48
ENDBRANCH  46  47
ENDBRANCH   5  46
TORSDOF 13
ENDMDL
