MODEL 1
REMARK VINA RESULT: -7.890077056      0.000      0.000
REMARK  15 active torsions:
REMARK  status: ('A' for Active; 'I' for Inactive)
REMARK    1  A    between atoms: C2_2  and  O1_3 
REMARK    2  A    between atoms: O1_3  and  C3_4 
REMARK    3  A    between atoms: C3_4  and  C4_6 
REMARK    4  A    between atoms: C6_8  and  O3_9 
REMARK    5  A    between atoms: C9_13  and  C10_14 
REMARK    6  A    between atoms: C10_14  and  O4_15 
REMARK    7  A    between atoms: O4_15  and  C11_16 
REMARK    8  A    between atoms: C11_16  and  C12_18 
REMARK    9  A    between atoms: C13_19  and  C14_20 
REMARK   10  A    between atoms: C15_21  and  C16_22 
REMARK   11  A    between atoms: C16_22  and  O6_23 
REMARK   12  A    between atoms: C19_27  and  O7_28 
REMARK   13  A    between atoms: O7_28  and  C20_29 
REMARK   14  A    between atoms: C27_38  and  O9_39 
REMARK   15  A    between atoms: C33_45  and  O10_46 
ROOT
HETATM    1  C4  UNL     1      51.993   5.575   4.096  1.00  0.00     0.095 C 
HETATM    2  C5  UNL     1      51.593   7.031   4.254  1.00  0.00     0.047 C 
HETATM    3  C6  UNL     1      51.052   7.453   2.893  1.00  0.00     0.132 C 
HETATM    4  C7  UNL     1      49.796   6.722   2.537  1.00  0.00     0.042 C 
HETATM    5  C8  UNL     1      48.659   7.360   3.319  1.00  0.00     0.024 C 
HETATM    6  C9  UNL     1      49.504   6.825   1.044  1.00  0.00     0.162 C 
HETATM    7  O8  UNL     1      48.539   5.879   0.694  1.00  0.00    -0.352 OA
HETATM    8  C27 UNL     1      49.147   4.607   0.567  1.00  0.00     0.266 C 
HETATM    9  C29 UNL     1      50.216   4.477   1.612  1.00  0.00     0.076 C 
HETATM   10  C30 UNL     1      50.288   3.082   2.198  1.00  0.00     0.013 C 
HETATM   11  C31 UNL     1      51.043   3.339   3.486  1.00  0.00     0.009 C 
HETATM   12  C32 UNL     1      50.743   4.786   3.874  1.00  0.00     0.035 C 
HETATM   13  C33 UNL     1      49.808   5.268   2.858  1.00  0.00     0.083 C 
ENDROOT
BRANCH   6  14
HETATM   14  C10 UNL     1      49.156   8.203   0.597  1.00  0.00     0.212 C 
BRANCH  14  15
HETATM   15  O4  UNL     1      49.789   8.600  -0.577  1.00  0.00    -0.316 OA
BRANCH  15  16
HETATM   16  C11 UNL     1      50.673   9.743  -0.538  1.00  0.00     0.282 C 
HETATM   17  O5  UNL     1      51.769   9.448  -0.090  1.00  0.00    -0.260 OA
BRANCH  16  18
HETATM   18  C12 UNL     1      50.190  11.000  -1.000  1.00  0.00     0.082 C 
HETATM   19  C13 UNL     1      49.096  11.634  -0.938  1.00  0.00     0.013 C 
BRANCH  19  20
HETATM   20  C14 UNL     1      47.764  11.473  -0.392  1.00  0.00    -0.051 C 
HETATM   21  C15 UNL     1      46.829  10.913  -1.142  1.00  0.00    -0.050 C 
HETATM   22  C17 UNL     1      45.431  10.689  -0.642  1.00  0.00     0.039 C 
HETATM   23  C18 UNL     1      45.417  10.614   0.867  1.00  0.00     0.037 C 
HETATM   24  C19 UNL     1      45.992  11.932   1.392  1.00  0.00     0.133 C 
HETATM   25  C26 UNL     1      47.447  11.962   0.965  1.00  0.00     0.071 C 
BRANCH  21  26
HETATM   26  C16 UNL     1      47.035  10.421  -2.543  1.00  0.00     0.199 C 
BRANCH  26  27
HETATM   27  O6  UNL     1      47.272   9.029  -2.390  1.00  0.00    -0.397 OA
ATOM     28  H6  UNL     1      47.283   8.696  -3.280  1.00  0.00     0.209 HD
ENDBRANCH  26  27
ENDBRANCH  21  26
BRANCH  24  29
HETATM   29  O7  UNL     1      45.282  13.022   0.922  1.00  0.00    -0.346 OA
BRANCH  29  30
HETATM   30  C20 UNL     1      45.309  14.258   1.505  1.00  0.00     0.070 A 
HETATM   31  C21 UNL     1      46.068  14.599   2.608  1.00  0.00     0.037 A 
HETATM   32  C22 UNL     1      46.036  15.889   3.141  1.00  0.00     0.004 A 
HETATM   33  C23 UNL     1      45.254  16.854   2.592  1.00  0.00     0.024 A 
HETATM   34  C24 UNL     1      44.499  16.500   1.490  1.00  0.00     0.036 A 
HETATM   35 CL1  UNL     1      43.495  17.768   0.800  1.00  0.00    -0.084 Cl
HETATM   36  C25 UNL     1      44.510  15.262   0.953  1.00  0.00     0.060 A 
ENDBRANCH  29  30
ENDBRANCH  24  29
ENDBRANCH  19  20
ENDBRANCH  16  18
ENDBRANCH  15  16
ENDBRANCH  14  15
ENDBRANCH   6  14
BRANCH   3  37
HETATM   37  O3  UNL     1      52.082   7.280   1.979  1.00  0.00    -0.395 OA
ATOM     38  H3  UNL     1      52.684   6.649   2.357  1.00  0.00     0.210 HD
ENDBRANCH   3  37
BRANCH  13  39
HETATM   39  O10 UNL     1      48.515   4.819   3.177  1.00  0.00    -0.388 OA
ATOM     40  H10 UNL     1      48.221   4.169   2.550  1.00  0.00     0.210 HD
ENDBRANCH  13  39
BRANCH   8  41
HETATM   41  O9  UNL     1      48.218   3.592   0.612  1.00  0.00    -0.366 OA
HETATM   42  C28 UNL     1      48.014   2.972  -0.615  1.00  0.00     0.204 C 
ENDBRANCH   8  41
BRANCH   1  43
HETATM   43  C3  UNL     1      52.609   5.066   5.365  1.00  0.00     0.263 C 
HETATM   44  O2  UNL     1      53.821   4.809   5.388  1.00  0.00    -0.265 OA
BRANCH  43  45
HETATM   45  O1  UNL     1      51.862   4.880   6.496  1.00  0.00    -0.322 OA
BRANCH  45  46
HETATM   46  C2  UNL     1      51.990   3.814   7.389  1.00  0.00     0.174 C 
HETATM   47  C1  UNL     1      51.143   2.619   7.060  1.00  0.00     0.034 C 
ENDBRANCH  45  46
ENDBRANCH  43  45
ENDBRANCH   1  43
TORSDOF 15
ENDMDL
MODEL 2
REMARK VINA RESULT: -7.768463386      2.137      3.064
REMARK  15 active torsions:
REMARK  status: ('A' for Active; 'I' for Inactive)
REMARK    1  A    between atoms: C2_2  and  O1_3 
REMARK    2  A    between atoms: O1_3  and  C3_4 
REMARK    3  A    between atoms: C3_4  and  C4_6 
REMARK    4  A    between atoms: C6_8  and  O3_9 
REMARK    5  A    between atoms: C9_13  and  C10_14 
REMARK    6  A    between atoms: C10_14  and  O4_15 
REMARK    7  A    between atoms: O4_15  and  C11_16 
REMARK    8  A    between atoms: C11_16  and  C12_18 
REMARK    9  A    between atoms: C13_19  and  C14_20 
REMARK   10  A    between atoms: C15_21  and  C16_22 
REMARK   11  A    between atoms: C16_22  and  O6_23 
REMARK   12  A    between atoms: C19_27  and  O7_28 
REMARK   13  A    between atoms: O7_28  and  C20_29 
REMARK   14  A    between atoms: C27_38  and  O9_39 
REMARK   15  A    between atoms: C33_45  and  O10_46 
ROOT
HETATM    1  C4  UNL     1      51.413   4.692   5.393  1.00  0.00     0.095 C 
HETATM    2  C5  UNL     1      49.942   4.774   5.025  1.00  0.00     0.047 C 
HETATM    3  C6  UNL     1      49.884   5.647   3.779  1.00  0.00     0.132 C 
HETATM    4  C7  UNL     1      50.560   5.005   2.610  1.00  0.00     0.042 C 
HETATM    5  C8  UNL     1      49.616   3.949   2.059  1.00  0.00     0.024 C 
HETATM    6  C9  UNL     1      50.868   6.027   1.521  1.00  0.00     0.162 C 
HETATM    7  O8  UNL     1      51.777   5.478   0.614  1.00  0.00    -0.352 OA
HETATM    8  C27 UNL     1      53.084   5.544   1.154  1.00  0.00     0.266 C 
HETATM    9  C29 UNL     1      53.008   5.296   2.632  1.00  0.00     0.076 C 
HETATM   10  C30 UNL     1      54.172   4.473   3.143  1.00  0.00     0.013 C 
HETATM   11  C31 UNL     1      53.626   3.975   4.466  1.00  0.00     0.009 C 
HETATM   12  C32 UNL     1      52.107   3.931   4.310  1.00  0.00     0.035 C 
HETATM   13  C33 UNL     1      51.852   4.335   2.927  1.00  0.00     0.083 C 
ENDROOT
BRANCH   6  14
HETATM   14  C10 UNL     1      49.654   6.583   0.862  1.00  0.00     0.212 C 
BRANCH  14  15
HETATM   15  O4  UNL     1      49.357   7.894   1.222  1.00  0.00    -0.316 OA
BRANCH  15  16
HETATM   16  C11 UNL     1      48.022   8.204   1.681  1.00  0.00     0.282 C 
HETATM   17  O5  UNL     1      48.016   8.531   2.857  1.00  0.00    -0.260 OA
BRANCH  16  18
HETATM   18  C12 UNL     1      46.939   8.099   0.762  1.00  0.00     0.082 C 
HETATM   19  C13 UNL     1      46.133   8.902   0.207  1.00  0.00     0.013 C 
BRANCH  19  20
HETATM   20  C14 UNL     1      45.851  10.322   0.172  1.00  0.00    -0.051 C 
HETATM   21  C15 UNL     1      46.407  11.061  -0.774  1.00  0.00    -0.050 C 
HETATM   22  C17 UNL     1      46.146  12.536  -0.893  1.00  0.00     0.039 C 
HETATM   23  C18 UNL     1      44.825  12.891  -0.252  1.00  0.00     0.037 C 
HETATM   24  C19 UNL     1      44.900  12.454   1.213  1.00  0.00     0.133 C 
HETATM   25  C26 UNL     1      44.991  10.940   1.202  1.00  0.00     0.071 C 
BRANCH  21  26
HETATM   26  C16 UNL     1      47.325  10.542  -1.839  1.00  0.00     0.199 C 
BRANCH  26  27
HETATM   27  O6  UNL     1      46.505  10.470  -2.998  1.00  0.00    -0.397 OA
ATOM     28  H6  UNL     1      45.821   9.856  -2.759  1.00  0.00     0.209 HD
ENDBRANCH  26  27
ENDBRANCH  21  26
BRANCH  24  29
HETATM   29  O7  UNL     1      45.965  13.043   1.868  1.00  0.00    -0.346 OA
BRANCH  29  30
HETATM   30  C20 UNL     1      45.963  14.332   2.322  1.00  0.00     0.070 A 
HETATM   31  C21 UNL     1      44.917  15.223   2.176  1.00  0.00     0.037 A 
HETATM   32  C22 UNL     1      44.998  16.525   2.672  1.00  0.00     0.004 A 
HETATM   33  C23 UNL     1      46.112  16.961   3.316  1.00  0.00     0.024 A 
HETATM   34  C24 UNL     1      47.151  16.061   3.455  1.00  0.00     0.036 A 
HETATM   35 CL1  UNL     1      48.581  16.652   4.291  1.00  0.00    -0.084 Cl
HETATM   36  C25 UNL     1      47.101  14.796   2.986  1.00  0.00     0.060 A 
ENDBRANCH  29  30
ENDBRANCH  24  29
ENDBRANCH  19  20
ENDBRANCH  16  18
ENDBRANCH  15  16
ENDBRANCH  14  15
ENDBRANCH   6  14
BRANCH   3  37
HETATM   37  O3  UNL     1      50.415   6.882   4.126  1.00  0.00    -0.395 OA
ATOM     38  H3  UNL     1      51.340   6.746   4.296  1.00  0.00     0.210 HD
ENDBRANCH   3  37
BRANCH  13  39
HETATM   39  O10 UNL     1      52.061   3.231   2.083  1.00  0.00    -0.388 OA
ATOM     40  H10 UNL     1      52.978   3.160   1.843  1.00  0.00     0.210 HD
ENDBRANCH  13  39
BRANCH   8  41
HETATM   41  O9  UNL     1      53.946   4.689   0.504  1.00  0.00    -0.366 OA
HETATM   42  C28 UNL     1      53.659   4.534  -0.847  1.00  0.00     0.204 C 
ENDBRANCH   8  41
BRANCH   1  43
HETATM   43  C3  UNL     1      51.588   3.905   6.658  1.00  0.00     0.263 C 
HETATM   44  O2  UNL     1      51.979   4.485   7.682  1.00  0.00    -0.265 OA
BRANCH  43  45
HETATM   45  O1  UNL     1      51.327   2.563   6.706  1.00  0.00    -0.322 OA
BRANCH  45  46
HETATM   46  C2  UNL     1      52.268   1.559   6.940  1.00  0.00     0.174 C 
HETATM   47  C1  UNL     1      52.336   0.507   5.872  1.00  0.00     0.034 C 
ENDBRANCH  45  46
ENDBRANCH  43  45
ENDBRANCH   1  43
TORSDOF 15
ENDMDL
MODEL 3
REMARK VINA RESULT: -7.479337472      2.551      4.765
REMARK  15 active torsions:
REMARK  status: ('A' for Active; 'I' for Inactive)
REMARK    1  A    between atoms: C2_2  and  O1_3 
REMARK    2  A    between atoms: O1_3  and  C3_4 
REMARK    3  A    between atoms: C3_4  and  C4_6 
REMARK    4  A    between atoms: C6_8  and  O3_9 
REMARK    5  A    between atoms: C9_13  and  C10_14 
REMARK    6  A    between atoms: C10_14  and  O4_15 
REMARK    7  A    between atoms: O4_15  and  C11_16 
REMARK    8  A    between atoms: C11_16  and  C12_18 
REMARK    9  A    between atoms: C13_19  and  C14_20 
REMARK   10  A    between atoms: C15_21  and  C16_22 
REMARK   11  A    between atoms: C16_22  and  O6_23 
REMARK   12  A    between atoms: C19_27  and  O7_28 
REMARK   13  A    between atoms: O7_28  and  C20_29 
REMARK   14  A    between atoms: C27_38  and  O9_39 
REMARK   15  A    between atoms: C33_45  and  O10_46 
ROOT
HETATM    1  C4  UNL     1      54.015   3.682   2.321  1.00  0.00     0.095 C 
HETATM    2  C5  UNL     1      53.520   5.085   2.020  1.00  0.00     0.047 C 
HETATM    3  C6  UNL     1      52.156   5.187   2.692  1.00  0.00     0.132 C 
HETATM    4  C7  UNL     1      52.256   5.101   4.181  1.00  0.00     0.042 C 
HETATM    5  C8  UNL     1      52.737   6.452   4.686  1.00  0.00     0.024 C 
HETATM    6  C9  UNL     1      50.902   4.780   4.806  1.00  0.00     0.162 C 
HETATM    7  O8  UNL     1      51.087   4.383   6.133  1.00  0.00    -0.352 OA
HETATM    8  C27 UNL     1      51.512   3.033   6.168  1.00  0.00     0.266 C 
HETATM    9  C29 UNL     1      52.427   2.784   5.006  1.00  0.00     0.076 C 
HETATM   10  C30 UNL     1      53.577   1.864   5.360  1.00  0.00     0.013 C 
HETATM   11  C31 UNL     1      54.554   2.166   4.240  1.00  0.00     0.009 C 
HETATM   12  C32 UNL     1      54.261   3.597   3.793  1.00  0.00     0.035 C 
HETATM   13  C33 UNL     1      53.201   4.067   4.686  1.00  0.00     0.083 C 
ENDROOT
BRANCH   6  14
HETATM   14  C10 UNL     1      49.902   5.874   4.662  1.00  0.00     0.212 C 
BRANCH  14  15
HETATM   15  O4  UNL     1      48.999   5.689   3.618  1.00  0.00    -0.316 OA
BRANCH  15  16
HETATM   16  C11 UNL     1      48.605   6.833   2.829  1.00  0.00     0.282 C 
HETATM   17  O5  UNL     1      48.442   7.824   3.523  1.00  0.00    -0.260 OA
BRANCH  16  18
HETATM   18  C12 UNL     1      48.461   6.679   1.420  1.00  0.00     0.082 C 
HETATM   19  C13 UNL     1      48.149   7.428   0.449  1.00  0.00     0.013 C 
BRANCH  19  20
HETATM   20  C14 UNL     1      47.777   8.806   0.203  1.00  0.00    -0.051 C 
HETATM   21  C15 UNL     1      48.694   9.644  -0.254  1.00  0.00    -0.050 C 
HETATM   22  C17 UNL     1      48.384  11.082  -0.556  1.00  0.00     0.039 C 
HETATM   23  C18 UNL     1      46.910  11.254  -0.839  1.00  0.00     0.037 C 
HETATM   24  C19 UNL     1      46.150  10.768   0.397  1.00  0.00     0.133 C 
HETATM   25  C26 UNL     1      46.408   9.277   0.497  1.00  0.00     0.071 C 
BRANCH  21  26
HETATM   26  C16 UNL     1      50.119   9.280  -0.545  1.00  0.00     0.199 C 
BRANCH  26  27
HETATM   27  O6  UNL     1      50.849  10.457  -0.230  1.00  0.00    -0.397 OA
ATOM     28  H6  UNL     1      51.232  10.720  -1.059  1.00  0.00     0.209 HD
ENDBRANCH  26  27
ENDBRANCH  21  26
BRANCH  24  29
HETATM   29  O7  UNL     1      46.540  11.448   1.536  1.00  0.00    -0.346 OA
BRANCH  29  30
HETATM   30  C20 UNL     1      46.169  12.733   1.821  1.00  0.00     0.070 A 
HETATM   31  C21 UNL     1      44.982  13.321   1.431  1.00  0.00     0.037 A 
HETATM   32  C22 UNL     1      44.681  14.642   1.766  1.00  0.00     0.004 A 
HETATM   33  C23 UNL     1      45.550  15.396   2.489  1.00  0.00     0.024 A 
HETATM   34  C24 UNL     1      46.734  14.796   2.872  1.00  0.00     0.036 A 
HETATM   35 CL1  UNL     1      47.841  15.795   3.805  1.00  0.00    -0.084 Cl
HETATM   36  C25 UNL     1      47.052  13.521   2.563  1.00  0.00     0.060 A 
ENDBRANCH  29  30
ENDBRANCH  24  29
ENDBRANCH  19  20
ENDBRANCH  16  18
ENDBRANCH  15  16
ENDBRANCH  14  15
ENDBRANCH   6  14
BRANCH   3  37
HETATM   37  O3  UNL     1      51.353   4.205   2.125  1.00  0.00    -0.395 OA
ATOM     38  H3  UNL     1      50.804   3.863   2.820  1.00  0.00     0.210 HD
ENDBRANCH   3  37
BRANCH  13  39
HETATM   39  O10 UNL     1      53.776   4.469   5.903  1.00  0.00    -0.388 OA
ATOM     40  H10 UNL     1      53.234   5.122   6.331  1.00  0.00     0.210 HD
ENDBRANCH  13  39
BRANCH   8  41
HETATM   41  O9  UNL     1      52.075   2.709   7.382  1.00  0.00    -0.366 OA
HETATM   42  C28 UNL     1      51.590   3.470   8.440  1.00  0.00     0.204 C 
ENDBRANCH   8  41
BRANCH   1  43
HETATM   43  C3  UNL     1      55.332   3.441   1.646  1.00  0.00     0.263 C 
HETATM   44  O2  UNL     1      56.305   4.147   1.950  1.00  0.00    -0.265 OA
BRANCH  43  45
HETATM   45  O1  UNL     1      55.483   2.461   0.703  1.00  0.00    -0.322 OA
BRANCH  45  46
HETATM   46  C2  UNL     1      55.725   2.671  -0.656  1.00  0.00     0.174 C 
HETATM   47  C1  UNL     1      54.607   3.349  -1.392  1.00  0.00     0.034 C 
ENDBRANCH  45  46
ENDBRANCH  43  45
ENDBRANCH   1  43
TORSDOF 15
ENDMDL
MODEL 4
REMARK VINA RESULT: -7.439141153      5.422      9.726
REMARK  15 active torsions:
REMARK  status: ('A' for Active; 'I' for Inactive)
REMARK    1  A    between atoms: C2_2  and  O1_3 
REMARK    2  A    between atoms: O1_3  and  C3_4 
REMARK    3  A    between atoms: C3_4  and  C4_6 
REMARK    4  A    between atoms: C6_8  and  O3_9 
REMARK    5  A    between atoms: C9_13  and  C10_14 
REMARK    6  A    between atoms: C10_14  and  O4_15 
REMARK    7  A    between atoms: O4_15  and  C11_16 
REMARK    8  A    between atoms: C11_16  and  C12_18 
REMARK    9  A    between atoms: C13_19  and  C14_20 
REMARK   10  A    between atoms: C15_21  and  C16_22 
REMARK   11  A    between atoms: C16_22  and  O6_23 
REMARK   12  A    between atoms: C19_27  and  O7_28 
REMARK   13  A    between atoms: O7_28  and  C20_29 
REMARK   14  A    between atoms: C27_38  and  O9_39 
REMARK   15  A    between atoms: C33_45  and  O10_46 
ROOT
HETATM    1  C4  UNL     1      45.328  10.449  -2.964  1.00  0.00     0.095 C 
HETATM    2  C5  UNL     1      43.899  10.954  -2.871  1.00  0.00     0.047 C 
HETATM    3  C6  UNL     1      44.010  12.414  -2.449  1.00  0.00     0.132 C 
HETATM    4  C7  UNL     1      44.671  13.252  -3.497  1.00  0.00     0.042 C 
HETATM    5  C8  UNL     1      43.642  13.522  -4.583  1.00  0.00     0.024 C 
HETATM    6  C9  UNL     1      45.154  14.577  -2.916  1.00  0.00     0.162 C 
HETATM    7  O8  UNL     1      46.042  15.179  -3.812  1.00  0.00    -0.352 OA
HETATM    8  C27 UNL     1      47.316  14.573  -3.694  1.00  0.00     0.266 C 
HETATM    9  C29 UNL     1      47.131  13.106  -3.440  1.00  0.00     0.076 C 
HETATM   10  C30 UNL     1      48.162  12.258  -4.156  1.00  0.00     0.013 C 
HETATM   11  C31 UNL     1      47.490  10.900  -4.144  1.00  0.00     0.009 C 
HETATM   12  C32 UNL     1      45.987  11.169  -4.096  1.00  0.00     0.035 C 
HETATM   13  C33 UNL     1      45.858  12.625  -4.142  1.00  0.00     0.083 C 
ENDROOT
BRANCH   6  14
HETATM   14  C10 UNL     1      44.050  15.484  -2.497  1.00  0.00     0.212 C 
BRANCH  14  15
HETATM   15  O4  UNL     1      43.905  15.608  -1.118  1.00  0.00    -0.316 OA
BRANCH  15  16
HETATM   16  C11 UNL     1      44.027  16.918  -0.521  1.00  0.00     0.282 C 
HETATM   17  O5  UNL     1      44.219  17.780  -1.363  1.00  0.00    -0.260 OA
BRANCH  16  18
HETATM   18  C12 UNL     1      43.916  17.041   0.894  1.00  0.00     0.082 C 
HETATM   19  C13 UNL     1      44.379  16.428   1.901  1.00  0.00     0.013 C 
BRANCH  19  20
HETATM   20  C14 UNL     1      45.247  15.308   2.198  1.00  0.00    -0.051 C 
HETATM   21  C15 UNL     1      46.433  15.544   2.737  1.00  0.00    -0.050 C 
HETATM   22  C17 UNL     1      47.381  14.436   3.097  1.00  0.00     0.039 C 
HETATM   23  C18 UNL     1      46.626  13.147   3.321  1.00  0.00     0.037 C 
HETATM   24  C19 UNL     1      45.868  12.835   2.029  1.00  0.00     0.133 C 
HETATM   25  C26 UNL     1      44.832  13.930   1.867  1.00  0.00     0.071 C 
BRANCH  21  26
HETATM   26  C16 UNL     1      46.966  16.903   3.074  1.00  0.00     0.199 C 
BRANCH  26  27
HETATM   27  O6  UNL     1      48.301  16.657   3.494  1.00  0.00    -0.397 OA
ATOM     28  H6  UNL     1      48.833  16.993   2.782  1.00  0.00     0.209 HD
ENDBRANCH  26  27
ENDBRANCH  21  26
BRANCH  24  29
HETATM   29  O7  UNL     1      46.721  12.750   0.945  1.00  0.00    -0.346 OA
BRANCH  29  30
HETATM   30  C20 UNL     1      47.296  11.586   0.515  1.00  0.00     0.070 A 
HETATM   31  C21 UNL     1      46.843  10.318   0.821  1.00  0.00     0.037 A 
HETATM   32  C22 UNL     1      47.492   9.179   0.339  1.00  0.00     0.004 A 
HETATM   33  C23 UNL     1      48.594   9.282  -0.447  1.00  0.00     0.024 A 
HETATM   34  C24 UNL     1      49.038  10.556  -0.744  1.00  0.00     0.036 A 
HETATM   35 CL1  UNL     1      50.468  10.660  -1.763  1.00  0.00    -0.084 Cl
HETATM   36  C25 UNL     1      48.431  11.675  -0.294  1.00  0.00     0.060 A 
ENDBRANCH  29  30
ENDBRANCH  24  29
ENDBRANCH  19  20
ENDBRANCH  16  18
ENDBRANCH  15  16
ENDBRANCH  14  15
ENDBRANCH   6  14
BRANCH   3  37
HETATM   37  O3  UNL     1      44.661  12.430  -1.223  1.00  0.00    -0.395 OA
ATOM     38  H3  UNL     1      44.474  13.271  -0.823  1.00  0.00     0.210 HD
ENDBRANCH   3  37
BRANCH  13  39
HETATM   39  O10 UNL     1      45.983  13.052  -5.475  1.00  0.00    -0.388 OA
ATOM     40  H10 UNL     1      45.759  12.351  -6.075  1.00  0.00     0.210 HD
ENDBRANCH  13  39
BRANCH   8  41
HETATM   41  O9  UNL     1      48.108  14.838  -4.789  1.00  0.00    -0.366 OA
HETATM   42  C28 UNL     1      48.968  15.914  -4.603  1.00  0.00     0.204 C 
ENDBRANCH   8  41
BRANCH   1  43
HETATM   43  C3  UNL     1      45.341   8.990  -3.309  1.00  0.00     0.263 C 
HETATM   44  O2  UNL     1      46.041   8.217  -2.639  1.00  0.00    -0.265 OA
BRANCH  43  45
HETATM   45  O1  UNL     1      44.599   8.495  -4.347  1.00  0.00    -0.322 OA
BRANCH  45  46
HETATM   46  C2  UNL     1      43.746   7.392  -4.283  1.00  0.00     0.174 C 
HETATM   47  C1  UNL     1      42.746   7.439  -3.164  1.00  0.00     0.034 C 
ENDBRANCH  45  46
ENDBRANCH  43  45
ENDBRANCH   1  43
TORSDOF 15
ENDMDL
MODEL 5
REMARK VINA RESULT: -7.413280580      2.702      4.376
REMARK  15 active torsions:
REMARK  status: ('A' for Active; 'I' for Inactive)
REMARK    1  A    between atoms: C2_2  and  O1_3 
REMARK    2  A    between atoms: O1_3  and  C3_4 
REMARK    3  A    between atoms: C3_4  and  C4_6 
REMARK    4  A    between atoms: C6_8  and  O3_9 
REMARK    5  A    between atoms: C9_13  and  C10_14 
REMARK    6  A    between atoms: C10_14  and  O4_15 
REMARK    7  A    between atoms: O4_15  and  C11_16 
REMARK    8  A    between atoms: C11_16  and  C12_18 
REMARK    9  A    between atoms: C13_19  and  C14_20 
REMARK   10  A    between atoms: C15_21  and  C16_22 
REMARK   11  A    between atoms: C16_22  and  O6_23 
REMARK   12  A    between atoms: C19_27  and  O7_28 
REMARK   13  A    between atoms: O7_28  and  C20_29 
REMARK   14  A    between atoms: C27_38  and  O9_39 
REMARK   15  A    between atoms: C33_45  and  O10_46 
ROOT
HETATM    1  C4  UNL     1      54.117   3.388   2.536  1.00  0.00     0.095 C 
HETATM    2  C5  UNL     1      53.926   4.849   2.171  1.00  0.00     0.047 C 
HETATM    3  C6  UNL     1      52.499   5.187   2.584  1.00  0.00     0.132 C 
HETATM    4  C7  UNL     1      52.310   5.110   4.066  1.00  0.00     0.042 C 
HETATM    5  C8  UNL     1      52.910   6.370   4.669  1.00  0.00     0.024 C 
HETATM    6  C9  UNL     1      50.831   5.029   4.429  1.00  0.00     0.162 C 
HETATM    7  O8  UNL     1      50.703   4.628   5.761  1.00  0.00    -0.352 OA
HETATM    8  C27 UNL     1      50.883   3.227   5.854  1.00  0.00     0.266 C 
HETATM    9  C29 UNL     1      51.940   2.811   4.874  1.00  0.00     0.076 C 
HETATM   10  C30 UNL     1      52.837   1.718   5.417  1.00  0.00     0.013 C 
HETATM   11  C31 UNL     1      54.037   1.834   4.499  1.00  0.00     0.009 C 
HETATM   12  C32 UNL     1      54.073   3.286   4.027  1.00  0.00     0.035 C 
HETATM   13  C33 UNL     1      52.962   3.941   4.718  1.00  0.00     0.083 C 
ENDROOT
BRANCH   6  14
HETATM   14  C10 UNL     1      50.071   6.272   4.121  1.00  0.00     0.212 C 
BRANCH  14  15
HETATM   15  O4  UNL     1      49.372   6.231   2.918  1.00  0.00    -0.316 OA
BRANCH  15  16
HETATM   16  C11 UNL     1      48.508   7.338   2.577  1.00  0.00     0.282 C 
HETATM   17  O5  UNL     1      47.773   7.636   3.504  1.00  0.00    -0.260 OA
BRANCH  16  18
HETATM   18  C12 UNL     1      48.612   7.915   1.279  1.00  0.00     0.082 C 
HETATM   19  C13 UNL     1      48.076   8.886   0.669  1.00  0.00     0.013 C 
BRANCH  19  20
HETATM   20  C14 UNL     1      47.102   9.930   0.911  1.00  0.00    -0.051 C 
HETATM   21  C15 UNL     1      46.291  10.287  -0.072  1.00  0.00    -0.050 C 
HETATM   22  C17 UNL     1      45.238  11.344   0.105  1.00  0.00     0.039 C 
HETATM   23  C18 UNL     1      44.858  11.471   1.562  1.00  0.00     0.037 C 
HETATM   24  C19 UNL     1      46.133  11.819   2.334  1.00  0.00     0.133 C 
HETATM   25  C26 UNL     1      47.043  10.611   2.220  1.00  0.00     0.071 C 
BRANCH  21  26
HETATM   26  C16 UNL     1      46.294   9.690  -1.447  1.00  0.00     0.199 C 
BRANCH  26  27
HETATM   27  O6  UNL     1      45.151  10.255  -2.073  1.00  0.00    -0.397 OA
ATOM     28  H6  UNL     1      45.447  10.462  -2.952  1.00  0.00     0.209 HD
ENDBRANCH  26  27
ENDBRANCH  21  26
BRANCH  24  29
HETATM   29  O7  UNL     1      46.723  12.972   1.853  1.00  0.00    -0.346 OA
BRANCH  29  30
HETATM   30  C20 UNL     1      46.447  14.225   2.326  1.00  0.00     0.070 A 
HETATM   31  C21 UNL     1      45.296  14.939   2.054  1.00  0.00     0.037 A 
HETATM   32  C22 UNL     1      45.093  16.217   2.579  1.00  0.00     0.004 A 
HETATM   33  C23 UNL     1      46.025  16.802   3.376  1.00  0.00     0.024 A 
HETATM   34  C24 UNL     1      47.172  16.078   3.639  1.00  0.00     0.036 A 
HETATM   35 CL1  UNL     1      48.361  16.859   4.672  1.00  0.00    -0.084 Cl
HETATM   36  C25 UNL     1      47.395  14.841   3.146  1.00  0.00     0.060 A 
ENDBRANCH  29  30
ENDBRANCH  24  29
ENDBRANCH  19  20
ENDBRANCH  16  18
ENDBRANCH  15  16
ENDBRANCH  14  15
ENDBRANCH   6  14
BRANCH   3  37
HETATM   37  O3  UNL     1      51.660   4.344   1.867  1.00  0.00    -0.395 OA
ATOM     38  H3  UNL     1      51.461   4.785   1.049  1.00  0.00     0.210 HD
ENDBRANCH   3  37
BRANCH  13  39
HETATM   39  O10 UNL     1      53.365   4.261   6.026  1.00  0.00    -0.388 OA
ATOM     40  H10 UNL     1      53.186   3.541   6.619  1.00  0.00     0.210 HD
ENDBRANCH  13  39
BRANCH   8  41
HETATM   41  O9  UNL     1      51.155   2.834   7.144  1.00  0.00    -0.366 OA
HETATM   42  C28 UNL     1      50.298   1.844   7.614  1.00  0.00     0.204 C 
ENDBRANCH   8  41
BRANCH   1  43
HETATM   43  C3  UNL     1      55.476   2.920   2.109  1.00  0.00     0.263 C 
HETATM   44  O2  UNL     1      55.570   1.938   1.357  1.00  0.00    -0.265 OA
BRANCH  43  45
HETATM   45  O1  UNL     1      56.614   3.552   2.530  1.00  0.00    -0.322 OA
BRANCH  45  46
HETATM   46  C2  UNL     1      57.691   3.915   1.720  1.00  0.00     0.174 C 
HETATM   47  C1  UNL     1      59.014   3.354   2.153  1.00  0.00     0.034 C 
ENDBRANCH  45  46
ENDBRANCH  43  45
ENDBRANCH   1  43
TORSDOF 15
ENDMDL
