MODEL 1
REMARK VINA RESULT: -5.503705590      0.000      0.000
REMARK  5 active torsions:
REMARK  status: ('A' for Active; 'I' for Inactive)
REMARK    1  A    between atoms: N1_1  and  C1_5 
REMARK    2  A    between atoms: C1_5  and  C2_6 
REMARK    3  A    between atoms: C2_6  and  C3_7 
REMARK    4  A    between atoms: C3_7  and  N2_8 
REMARK    5  A    between atoms: N2_8  and  C4_10 
ROOT
HETATM    1  C4  UNL     1      34.016  50.725  19.280  1.00  0.00     0.078 C 
HETATM    2  C5  UNL     1      33.705  49.230  19.249  1.00  0.00     0.026 C 
HETATM    3  C6  UNL     1      32.693  48.892  20.301  1.00  0.00     0.029 C 
HETATM    4  C7  UNL     1      33.348  48.800  21.656  1.00  0.00     0.232 C 
HETATM    5  N3  UNL     1      33.076  50.001  22.397  1.00  0.00    -0.075 N 
ATOM      6  H31 UNL     1      33.623  50.022  23.257  1.00  0.00     0.277 HD
ATOM      7  H32 UNL     1      32.136  49.972  22.790  1.00  0.00     0.277 HD
HETATM    8  C8  UNL     1      33.270  51.214  21.649  1.00  0.00     0.234 C 
HETATM    9  C9  UNL     1      34.376  51.198  20.667  1.00  0.00     0.052 C 
ENDROOT
BRANCH   1  10
HETATM   10  N2  UNL     1      35.123  51.044  18.422  1.00  0.00    -0.417 N 
ATOM     11  H2  UNL     1      35.465  50.386  17.722  1.00  0.00     0.153 HD
BRANCH  10  12
HETATM   12  C3  UNL     1      35.717  52.316  18.599  1.00  0.00     0.115 C 
BRANCH  12  13
HETATM   13  C2  UNL     1      35.143  53.362  17.679  1.00  0.00     0.046 C 
BRANCH  13  14
HETATM   14  C1  UNL     1      36.261  54.114  16.980  1.00  0.00     0.231 C 
BRANCH  14  15
HETATM   15  N1  UNL     1      35.798  55.468  16.742  1.00  0.00    -0.079 N 
ATOM     16  H13 UNL     1      35.415  55.597  15.805  1.00  0.00     0.274 HD
ATOM     17  H12 UNL     1      34.953  55.696  17.265  1.00  0.00     0.274 HD
ATOM     18  H11 UNL     1      36.573  56.099  16.945  1.00  0.00     0.274 HD
ENDBRANCH  14  15
ENDBRANCH  13  14
ENDBRANCH  12  13
ENDBRANCH  10  12
ENDBRANCH   1  10
TORSDOF 5
ENDMDL
MODEL 2
REMARK VINA RESULT: -5.282304908      1.311      5.269
REMARK  5 active torsions:
REMARK  status: ('A' for Active; 'I' for Inactive)
REMARK    1  A    between atoms: N1_1  and  C1_5 
REMARK    2  A    between atoms: C1_5  and  C2_6 
REMARK    3  A    between atoms: C2_6  and  C3_7 
REMARK    4  A    between atoms: C3_7  and  N2_8 
REMARK    5  A    between atoms: N2_8  and  C4_10 
ROOT
HETATM    1  C4  UNL     1      34.689  51.049  19.065  1.00  0.00     0.078 C 
HETATM    2  C5  UNL     1      35.466  51.819  20.131  1.00  0.00     0.026 C 
HETATM    3  C6  UNL     1      35.354  53.293  19.887  1.00  0.00     0.029 C 
HETATM    4  C7  UNL     1      36.295  53.721  18.789  1.00  0.00     0.232 C 
HETATM    5  N3  UNL     1      35.552  53.903  17.572  1.00  0.00    -0.075 N 
ATOM      6  H31 UNL     1      36.185  54.055  16.787  1.00  0.00     0.277 HD
ATOM      7  H32 UNL     1      35.068  54.800  17.581  1.00  0.00     0.277 HD
HETATM    8  C8  UNL     1      34.631  52.839  17.276  1.00  0.00     0.234 C 
HETATM    9  C9  UNL     1      35.066  51.480  17.669  1.00  0.00     0.052 C 
ENDROOT
BRANCH   1  10
HETATM   10  N2  UNL     1      34.941  49.637  19.155  1.00  0.00    -0.417 N 
ATOM     11  H2  UNL     1      35.888  49.265  19.210  1.00  0.00     0.153 HD
BRANCH  10  12
HETATM   12  C3  UNL     1      33.808  48.790  19.165  1.00  0.00     0.115 C 
BRANCH  12  13
HETATM   13  C2  UNL     1      32.783  49.193  20.192  1.00  0.00     0.046 C 
BRANCH  13  14
HETATM   14  C1  UNL     1      33.239  48.778  21.578  1.00  0.00     0.231 C 
BRANCH  14  15
HETATM   15  N1  UNL     1      33.195  49.953  22.426  1.00  0.00    -0.079 N 
ATOM     16  H13 UNL     1      33.690  49.824  23.308  1.00  0.00     0.274 HD
ATOM     17  H12 UNL     1      33.759  50.723  22.067  1.00  0.00     0.274 HD
ATOM     18  H11 UNL     1      32.215  50.205  22.554  1.00  0.00     0.274 HD
ENDBRANCH  14  15
ENDBRANCH  13  14
ENDBRANCH  12  13
ENDBRANCH  10  12
ENDBRANCH   1  10
TORSDOF 5
ENDMDL
MODEL 3
REMARK VINA RESULT: -5.266339495      2.533      6.735
REMARK  5 active torsions:
REMARK  status: ('A' for Active; 'I' for Inactive)
REMARK    1  A    between atoms: N1_1  and  C1_5 
REMARK    2  A    between atoms: C1_5  and  C2_6 
REMARK    3  A    between atoms: C2_6  and  C3_7 
REMARK    4  A    between atoms: C3_7  and  N2_8 
REMARK    5  A    between atoms: N2_8  and  C4_10 
ROOT
HETATM    1  C4  UNL     1      36.556  54.549  17.359  1.00  0.00     0.078 C 
HETATM    2  C5  UNL     1      37.544  53.495  16.864  1.00  0.00     0.026 C 
HETATM    3  C6  UNL     1      38.920  54.082  16.771  1.00  0.00     0.029 C 
HETATM    4  C7  UNL     1      39.061  54.906  15.516  1.00  0.00     0.232 C 
HETATM    5  N3  UNL     1      38.960  56.301  15.851  1.00  0.00    -0.075 N 
ATOM      6  H31 UNL     1      38.911  56.868  15.005  1.00  0.00     0.277 HD
ATOM      7  H32 UNL     1      39.841  56.639  16.237  1.00  0.00     0.277 HD
HETATM    8  C8  UNL     1      37.871  56.620  16.734  1.00  0.00     0.234 C 
HETATM    9  C9  UNL     1      36.638  55.823  16.554  1.00  0.00     0.052 C 
ENDROOT
BRANCH   1  10
HETATM   10  N2  UNL     1      35.202  54.076  17.268  1.00  0.00    -0.417 N 
ATOM     11  H2  UNL     1      34.503  54.558  16.704  1.00  0.00     0.153 HD
BRANCH  10  12
HETATM   12  C3  UNL     1      34.888  52.908  18.002  1.00  0.00     0.115 C 
BRANCH  12  13
HETATM   13  C2  UNL     1      35.151  53.054  19.478  1.00  0.00     0.046 C 
BRANCH  13  14
HETATM   14  C1  UNL     1      35.537  51.715  20.076  1.00  0.00     0.231 C 
BRANCH  14  15
HETATM   15  N1  UNL     1      35.197  50.688  19.111  1.00  0.00    -0.079 N 
ATOM     16  H13 UNL     1      34.195  50.630  18.929  1.00  0.00     0.274 HD
ATOM     17  H12 UNL     1      35.491  50.921  18.163  1.00  0.00     0.274 HD
ATOM     18  H11 UNL     1      35.591  49.808  19.444  1.00  0.00     0.274 HD
ENDBRANCH  14  15
ENDBRANCH  13  14
ENDBRANCH  12  13
ENDBRANCH  10  12
ENDBRANCH   1  10
TORSDOF 5
ENDMDL
MODEL 4
REMARK VINA RESULT: -5.187792858      1.431      1.861
REMARK  5 active torsions:
REMARK  status: ('A' for Active; 'I' for Inactive)
REMARK    1  A    between atoms: N1_1  and  C1_5 
REMARK    2  A    between atoms: C1_5  and  C2_6 
REMARK    3  A    between atoms: C2_6  and  C3_7 
REMARK    4  A    between atoms: C3_7  and  N2_8 
REMARK    5  A    between atoms: N2_8  and  C4_10 
ROOT
HETATM    1  C4  UNL     1      34.924  51.286  19.703  1.00  0.00     0.078 C 
HETATM    2  C5  UNL     1      35.503  50.541  20.904  1.00  0.00     0.026 C 
HETATM    3  C6  UNL     1      35.099  49.099  20.860  1.00  0.00     0.029 C 
HETATM    4  C7  UNL     1      33.682  48.931  21.348  1.00  0.00     0.232 C 
HETATM    5  N3  UNL     1      32.809  48.760  20.219  1.00  0.00    -0.075 N 
ATOM      6  H31 UNL     1      31.833  48.785  20.516  1.00  0.00     0.277 HD
ATOM      7  H32 UNL     1      32.859  47.803  19.871  1.00  0.00     0.277 HD
HETATM    8  C8  UNL     1      33.033  49.696  19.151  1.00  0.00     0.234 C 
HETATM    9  C9  UNL     1      33.439  51.059  19.559  1.00  0.00     0.052 C 
ENDROOT
BRANCH   1  10
HETATM   10  N2  UNL     1      35.126  52.703  19.823  1.00  0.00    -0.417 N 
ATOM     11  H2  UNL     1      34.573  53.271  20.464  1.00  0.00     0.153 HD
BRANCH  10  12
HETATM   12  C3  UNL     1      36.131  53.272  19.005  1.00  0.00     0.115 C 
BRANCH  12  13
HETATM   13  C2  UNL     1      36.282  52.564  17.684  1.00  0.00     0.046 C 
BRANCH  13  14
HETATM   14  C1  UNL     1      36.316  53.571  16.550  1.00  0.00     0.231 C 
BRANCH  14  15
HETATM   15  N1  UNL     1      35.498  54.703  16.943  1.00  0.00    -0.079 N 
ATOM     16  H13 UNL     1      34.937  54.517  17.774  1.00  0.00     0.274 HD
ATOM     17  H12 UNL     1      36.045  55.476  17.320  1.00  0.00     0.274 HD
ATOM     18  H11 UNL     1      34.934  54.971  16.136  1.00  0.00     0.274 HD
ENDBRANCH  14  15
ENDBRANCH  13  14
ENDBRANCH  12  13
ENDBRANCH  10  12
ENDBRANCH   1  10
TORSDOF 5
ENDMDL
MODEL 5
REMARK VINA RESULT: -5.184632039      2.400      4.235
REMARK  5 active torsions:
REMARK  status: ('A' for Active; 'I' for Inactive)
REMARK    1  A    between atoms: N1_1  and  C1_5 
REMARK    2  A    between atoms: C1_5  and  C2_6 
REMARK    3  A    between atoms: C2_6  and  C3_7 
REMARK    4  A    between atoms: C3_7  and  N2_8 
REMARK    5  A    between atoms: N2_8  and  C4_10 
ROOT
HETATM    1  C4  UNL     1      35.861  53.618  17.554  1.00  0.00     0.078 C 
HETATM    2  C5  UNL     1      35.541  53.418  19.034  1.00  0.00     0.026 C 
HETATM    3  C6  UNL     1      35.648  51.967  19.393  1.00  0.00     0.029 C 
HETATM    4  C7  UNL     1      34.415  51.219  18.952  1.00  0.00     0.232 C 
HETATM    5  N3  UNL     1      34.707  50.495  17.745  1.00  0.00    -0.075 N 
ATOM      6  H31 UNL     1      33.854  50.097  17.352  1.00  0.00     0.277 HD
ATOM      7  H32 UNL     1      35.217  49.638  17.958  1.00  0.00     0.277 HD
HETATM    8  C8  UNL     1      35.408  51.261  16.750  1.00  0.00     0.234 C 
HETATM    9  C9  UNL     1      35.056  52.696  16.672  1.00  0.00     0.052 C 
ENDROOT
BRANCH   1  10
HETATM   10  N2  UNL     1      35.573  54.962  17.137  1.00  0.00    -0.417 N 
ATOM     11  H2  UNL     1      34.697  55.423  17.380  1.00  0.00     0.153 HD
BRANCH  10  12
HETATM   12  C3  UNL     1      36.568  55.615  16.370  1.00  0.00     0.115 C 
BRANCH  12  13
HETATM   13  C2  UNL     1      37.965  55.192  16.741  1.00  0.00     0.046 C 
BRANCH  13  14
HETATM   14  C1  UNL     1      38.976  55.886  15.847  1.00  0.00     0.231 C 
BRANCH  14  15
HETATM   15  N1  UNL     1      39.343  54.957  14.796  1.00  0.00    -0.079 N 
ATOM     16  H13 UNL     1      38.925  55.191  13.896  1.00  0.00     0.274 HD
ATOM     17  H12 UNL     1      40.320  55.040  14.516  1.00  0.00     0.274 HD
ATOM     18  H11 UNL     1      39.100  54.018  15.114  1.00  0.00     0.274 HD
ENDBRANCH  14  15
ENDBRANCH  13  14
ENDBRANCH  12  13
ENDBRANCH  10  12
ENDBRANCH   1  10
TORSDOF 5
ENDMDL
