MODEL 1
REMARK VINA RESULT: -5.384683387      0.000      0.000
REMARK  5 active torsions:
REMARK  status: ('A' for Active; 'I' for Inactive)
REMARK    1  A    between atoms: C3_5  and  N2_6 
REMARK    2  A    between atoms: N2_6  and  C4_8 
REMARK    3  A    between atoms: C4_8  and  C5_9 
REMARK    4  A    between atoms: C5_9  and  C6_10 
REMARK    5  A    between atoms: C6_10  and  N3_11 
ROOT
HETATM    1  C1  UNL     1      37.233  58.156  16.223  1.00  0.00     0.091 C 
HETATM    2  C2  UNL     1      36.984  56.749  16.622  1.00  0.00     0.108 A 
HETATM    3  N1  UNL     1      36.009  55.911  16.247  1.00  0.00    -0.179 N 
ATOM      4  H1  UNL     1      35.256  56.136  15.596  1.00  0.00     0.185 HD
HETATM    5  C3  UNL     1      36.176  54.728  16.863  1.00  0.00     0.694 A 
HETATM    6  N4  UNL     1      37.278  54.858  17.625  1.00  0.00    -0.131 N 
ATOM      7  H4  UNL     1      37.673  54.131  18.220  1.00  0.00     0.205 HD
HETATM    8  N5  UNL     1      37.766  56.076  17.482  1.00  0.00    -0.275 N 
ATOM      9  H5  UNL     1      38.596  56.444  17.946  1.00  0.00     0.189 HD
ENDROOT
BRANCH   5  10
HETATM   10  N2  UNL     1      35.452  53.665  16.766  1.00  0.00    -0.225 N 
ATOM     11  H2  UNL     1      34.616  53.689  16.181  1.00  0.00     0.177 HD
BRANCH  10  12
HETATM   12  C4  UNL     1      35.781  52.454  17.451  1.00  0.00     0.140 C 
BRANCH  12  13
HETATM   13  C5  UNL     1      34.763  52.116  18.543  1.00  0.00     0.047 C 
BRANCH  13  14
HETATM   14  C6  UNL     1      35.412  52.532  19.860  1.00  0.00     0.231 C 
BRANCH  14  15
HETATM   15  N3  UNL     1      35.076  53.882  20.213  1.00  0.00    -0.079 N 
ATOM     16  H33 UNL     1      34.458  54.305  19.521  1.00  0.00     0.274 HD
ATOM     17  H32 UNL     1      34.454  53.910  21.022  1.00  0.00     0.274 HD
ATOM     18  H31 UNL     1      35.909  54.450  20.366  1.00  0.00     0.274 HD
ENDBRANCH  14  15
ENDBRANCH  13  14
ENDBRANCH  12  13
ENDBRANCH  10  12
ENDBRANCH   5  10
TORSDOF 5
ENDMDL
MODEL 2
REMARK VINA RESULT: -5.382416063      2.032      4.923
REMARK  5 active torsions:
REMARK  status: ('A' for Active; 'I' for Inactive)
REMARK    1  A    between atoms: C3_5  and  N2_6 
REMARK    2  A    between atoms: N2_6  and  C4_8 
REMARK    3  A    between atoms: C4_8  and  C5_9 
REMARK    4  A    between atoms: C5_9  and  C6_10 
REMARK    5  A    between atoms: C6_10  and  N3_11 
ROOT
HETATM    1  C1  UNL     1      35.503  51.374  15.090  1.00  0.00     0.091 C 
HETATM    2  C2  UNL     1      35.541  52.648  15.850  1.00  0.00     0.108 A 
HETATM    3  N1  UNL     1      36.271  53.750  15.638  1.00  0.00    -0.179 N 
ATOM      4  H1  UNL     1      36.944  53.876  14.881  1.00  0.00     0.185 HD
HETATM    5  C3  UNL     1      35.980  54.665  16.580  1.00  0.00     0.694 A 
HETATM    6  N4  UNL     1      35.054  54.098  17.375  1.00  0.00    -0.131 N 
ATOM      7  H4  UNL     1      34.625  54.539  18.188  1.00  0.00     0.205 HD
HETATM    8  N5  UNL     1      34.788  52.882  16.936  1.00  0.00    -0.275 N 
ATOM      9  H5  UNL     1      34.123  52.230  17.353  1.00  0.00     0.189 HD
ENDROOT
BRANCH   5  10
HETATM   10  N2  UNL     1      36.468  55.851  16.723  1.00  0.00    -0.225 N 
ATOM     11  H2  UNL     1      35.857  56.656  16.583  1.00  0.00     0.177 HD
BRANCH  10  12
HETATM   12  C4  UNL     1      37.837  56.075  17.070  1.00  0.00     0.140 C 
BRANCH  12  13
HETATM   13  C5  UNL     1      38.573  56.894  16.008  1.00  0.00     0.047 C 
BRANCH  13  14
HETATM   14  C6  UNL     1      39.753  56.035  15.565  1.00  0.00     0.231 C 
BRANCH  14  15
HETATM   15  N3  UNL     1      39.341  54.984  14.679  1.00  0.00    -0.079 N 
ATOM     16  H33 UNL     1      38.361  54.740  14.822  1.00  0.00     0.274 HD
ATOM     17  H32 UNL     1      39.285  55.311  13.714  1.00  0.00     0.274 HD
ATOM     18  H31 UNL     1      39.944  54.165  14.758  1.00  0.00     0.274 HD
ENDBRANCH  14  15
ENDBRANCH  13  14
ENDBRANCH  12  13
ENDBRANCH  10  12
ENDBRANCH   5  10
TORSDOF 5
ENDMDL
MODEL 3
REMARK VINA RESULT: -5.284149056      1.588      1.752
REMARK  5 active torsions:
REMARK  status: ('A' for Active; 'I' for Inactive)
REMARK    1  A    between atoms: C3_5  and  N2_6 
REMARK    2  A    between atoms: N2_6  and  C4_8 
REMARK    3  A    between atoms: C4_8  and  C5_9 
REMARK    4  A    between atoms: C5_9  and  C6_10 
REMARK    5  A    between atoms: C6_10  and  N3_11 
ROOT
HETATM    1  C1  UNL     1      40.114  55.739  15.243  1.00  0.00     0.091 C 
HETATM    2  C2  UNL     1      38.755  55.757  15.840  1.00  0.00     0.108 A 
HETATM    3  N1  UNL     1      37.826  54.793  15.883  1.00  0.00    -0.179 N 
ATOM      4  H1  UNL     1      37.928  53.858  15.490  1.00  0.00     0.185 HD
HETATM    5  C3  UNL     1      36.738  55.252  16.526  1.00  0.00     0.694 A 
HETATM    6  N4  UNL     1      37.021  56.521  16.876  1.00  0.00    -0.131 N 
ATOM      7  H4  UNL     1      36.395  57.147  17.382  1.00  0.00     0.205 HD
HETATM    8  N5  UNL     1      38.236  56.827  16.463  1.00  0.00    -0.275 N 
ATOM      9  H5  UNL     1      38.703  57.725  16.594  1.00  0.00     0.189 HD
ENDROOT
BRANCH   5  10
HETATM   10  N2  UNL     1      35.634  54.633  16.775  1.00  0.00    -0.225 N 
ATOM     11  H2  UNL     1      34.792  55.180  16.957  1.00  0.00     0.177 HD
BRANCH  10  12
HETATM   12  C4  UNL     1      35.551  53.206  16.805  1.00  0.00     0.140 C 
BRANCH  12  13
HETATM   13  C5  UNL     1      34.802  52.700  18.040  1.00  0.00     0.047 C 
BRANCH  13  14
HETATM   14  C6  UNL     1      35.732  52.950  19.222  1.00  0.00     0.231 C 
BRANCH  14  15
HETATM   15  N3  UNL     1      35.203  53.942  20.114  1.00  0.00    -0.079 N 
ATOM     16  H33 UNL     1      35.934  54.344  20.700  1.00  0.00     0.274 HD
ATOM     17  H32 UNL     1      34.923  54.784  19.609  1.00  0.00     0.274 HD
ATOM     18  H31 UNL     1      34.435  53.574  20.676  1.00  0.00     0.274 HD
ENDBRANCH  14  15
ENDBRANCH  13  14
ENDBRANCH  12  13
ENDBRANCH  10  12
ENDBRANCH   5  10
TORSDOF 5
ENDMDL
MODEL 4
REMARK VINA RESULT: -5.234924417      2.058      4.736
REMARK  5 active torsions:
REMARK  status: ('A' for Active; 'I' for Inactive)
REMARK    1  A    between atoms: C3_5  and  N2_6 
REMARK    2  A    between atoms: N2_6  and  C4_8 
REMARK    3  A    between atoms: C4_8  and  C5_9 
REMARK    4  A    between atoms: C5_9  and  C6_10 
REMARK    5  A    between atoms: C6_10  and  N3_11 
ROOT
HETATM    1  C1  UNL     1      35.792  51.824  14.528  1.00  0.00     0.091 C 
HETATM    2  C2  UNL     1      35.784  52.933  15.513  1.00  0.00     0.108 A 
HETATM    3  N1  UNL     1      36.497  54.067  15.533  1.00  0.00    -0.179 N 
ATOM      4  H1  UNL     1      37.185  54.344  14.832  1.00  0.00     0.185 HD
HETATM    5  C3  UNL     1      36.163  54.784  16.620  1.00  0.00     0.694 A 
HETATM    6  N4  UNL     1      35.229  54.063  17.268  1.00  0.00    -0.131 N 
ATOM      7  H4  UNL     1      34.771  54.337  18.137  1.00  0.00     0.205 HD
HETATM    8  N5  UNL     1      35.000  52.947  16.602  1.00  0.00    -0.275 N 
ATOM      9  H5  UNL     1      34.338  52.218  16.870  1.00  0.00     0.189 HD
ENDROOT
BRANCH   5  10
HETATM   10  N2  UNL     1      36.622  55.930  16.996  1.00  0.00    -0.225 N 
ATOM     11  H2  UNL     1      36.764  56.101  17.992  1.00  0.00     0.177 HD
BRANCH  10  12
HETATM   12  C4  UNL     1      36.938  56.967  16.064  1.00  0.00     0.140 C 
BRANCH  12  13
HETATM   13  C5  UNL     1      36.021  58.181  16.222  1.00  0.00     0.047 C 
BRANCH  13  14
HETATM   14  C6  UNL     1      34.780  57.876  15.389  1.00  0.00     0.231 C 
BRANCH  14  15
HETATM   15  N3  UNL     1      33.591  57.859  16.194  1.00  0.00    -0.079 N 
ATOM     16  H33 UNL     1      33.777  58.197  17.139  1.00  0.00     0.274 HD
ATOM     17  H32 UNL     1      32.929  58.576  15.896  1.00  0.00     0.274 HD
ATOM     18  H31 UNL     1      33.158  56.935  16.208  1.00  0.00     0.274 HD
ENDBRANCH  14  15
ENDBRANCH  13  14
ENDBRANCH  12  13
ENDBRANCH  10  12
ENDBRANCH   5  10
TORSDOF 5
ENDMDL
MODEL 5
REMARK VINA RESULT: -5.224674446      1.538      2.036
REMARK  5 active torsions:
REMARK  status: ('A' for Active; 'I' for Inactive)
REMARK    1  A    between atoms: C3_5  and  N2_6 
REMARK    2  A    between atoms: N2_6  and  C4_8 
REMARK    3  A    between atoms: C4_8  and  C5_9 
REMARK    4  A    between atoms: C5_9  and  C6_10 
REMARK    5  A    between atoms: C6_10  and  N3_11 
ROOT
HETATM    1  C1  UNL     1      34.464  58.180  15.617  1.00  0.00     0.091 C 
HETATM    2  C2  UNL     1      35.696  57.449  16.003  1.00  0.00     0.108 A 
HETATM    3  N1  UNL     1      35.860  56.163  16.337  1.00  0.00    -0.179 N 
ATOM      4  H1  UNL     1      35.118  55.464  16.374  1.00  0.00     0.185 HD
HETATM    5  C3  UNL     1      37.156  55.936  16.614  1.00  0.00     0.694 A 
HETATM    6  N4  UNL     1      37.784  57.114  16.444  1.00  0.00    -0.131 N 
ATOM      7  H4  UNL     1      38.782  57.276  16.579  1.00  0.00     0.205 HD
HETATM    8  N5  UNL     1      36.905  58.028  16.076  1.00  0.00    -0.275 N 
ATOM      9  H5  UNL     1      37.110  59.008  15.880  1.00  0.00     0.189 HD
ENDROOT
BRANCH   5  10
HETATM   10  N2  UNL     1      37.717  54.831  16.973  1.00  0.00    -0.225 N 
ATOM     11  H2  UNL     1      38.391  54.393  16.344  1.00  0.00     0.177 HD
BRANCH  10  12
HETATM   12  C4  UNL     1      37.427  54.200  18.223  1.00  0.00     0.140 C 
BRANCH  12  13
HETATM   13  C5  UNL     1      36.591  52.930  18.045  1.00  0.00     0.047 C 
BRANCH  13  14
HETATM   14  C6  UNL     1      35.245  53.224  18.700  1.00  0.00     0.231 C 
BRANCH  14  15
HETATM   15  N3  UNL     1      35.401  53.927  19.941  1.00  0.00    -0.079 N 
ATOM     16  H33 UNL     1      35.159  53.336  20.736  1.00  0.00     0.274 HD
ATOM     17  H32 UNL     1      36.385  54.089  20.156  1.00  0.00     0.274 HD
ATOM     18  H31 UNL     1      34.870  54.799  19.951  1.00  0.00     0.274 HD
ENDBRANCH  14  15
ENDBRANCH  13  14
ENDBRANCH  12  13
ENDBRANCH  10  12
ENDBRANCH   5  10
TORSDOF 5
ENDMDL
