MODEL 1
REMARK VINA RESULT: -7.488701178      0.000      0.000
REMARK  5 active torsions:
REMARK  status: ('A' for Active; 'I' for Inactive)
REMARK    1  A    between atoms: C5_5  and  O1_6 
REMARK    2  A    between atoms: C19_21  and  N1_22 
REMARK    3  A    between atoms: N1_22  and  S1_24 
REMARK    4  A    between atoms: S1_24  and  N2_27 
REMARK    5  A    between atoms: C22_30  and  C23_31 
ROOT
HETATM    1  C1  UNL     1      27.105   3.242  35.260  1.00  0.00     0.016 C 
HETATM    2  C2  UNL     1      27.237   2.243  34.113  1.00  0.00    -0.036 C 
HETATM    3  C3  UNL     1      28.460   1.404  34.415  1.00  0.00     0.012 C 
HETATM    4  C4  UNL     1      28.276   0.438  35.525  1.00  0.00     0.032 C 
HETATM    5  C5  UNL     1      27.017   0.542  36.291  1.00  0.00     0.118 C 
HETATM    6  C6  UNL     1      25.790   0.761  35.470  1.00  0.00     0.037 C 
HETATM    7  C7  UNL     1      26.047   1.316  34.101  1.00  0.00    -0.004 C 
HETATM    8  C8  UNL     1      24.776   1.977  33.643  1.00  0.00     0.006 C 
HETATM    9  C9  UNL     1      24.992   3.082  32.665  1.00  0.00     0.006 C 
HETATM   10  C10 UNL     1      26.264   2.779  31.905  1.00  0.00    -0.005 C 
HETATM   11  C11 UNL     1      27.412   3.019  32.854  1.00  0.00    -0.002 C 
HETATM   12  C12 UNL     1      28.696   2.718  32.123  1.00  0.00     0.006 C 
HETATM   13  C13 UNL     1      28.805   3.787  31.018  1.00  0.00     0.011 C 
HETATM   14  C14 UNL     1      27.715   3.462  30.050  1.00  0.00    -0.031 C 
HETATM   15  C15 UNL     1      28.143   2.351  29.180  1.00  0.00     0.010 C 
HETATM   16  C16 UNL     1      29.216   3.050  28.324  1.00  0.00     0.001 C 
HETATM   17  C17 UNL     1      28.889   4.549  28.396  1.00  0.00     0.007 C 
HETATM   18  C18 UNL     1      27.556   4.536  28.960  1.00  0.00     0.018 C 
HETATM   19  C19 UNL     1      26.940   5.642  29.633  1.00  0.00     0.099 C 
HETATM   20  C25 UNL     1      26.123   5.002  30.745  1.00  0.00     0.032 C 
HETATM   21  C26 UNL     1      26.361   3.492  30.608  1.00  0.00     0.001 C 
ENDROOT
BRANCH  19  22
HETATM   22  N1  UNL     1      27.773   6.719  30.075  1.00  0.00    -0.302 N 
ATOM     23  H1  UNL     1      28.509   6.620  30.775  1.00  0.00     0.173 HD
BRANCH  22  24
HETATM   24  S1  UNL     1      27.380   8.222  29.277  1.00  0.00     0.299 S 
HETATM   25  O2  UNL     1      27.065   7.926  27.826  1.00  0.00    -0.188 OA
HETATM   26  O3  UNL     1      28.530   9.156  29.379  1.00  0.00    -0.188 OA
BRANCH  24  27
HETATM   27  N2  UNL     1      25.993   8.901  30.045  1.00  0.00    -0.193 NA
HETATM   28  C20 UNL     1      24.811   8.867  29.253  1.00  0.00     0.109 C 
HETATM   29  C21 UNL     1      24.326  10.291  29.087  1.00  0.00     0.028 C 
HETATM   30  C22 UNL     1      24.959  11.019  30.249  1.00  0.00     0.062 C 
HETATM   31  C24 UNL     1      26.256  10.256  30.415  1.00  0.00     0.120 C 
BRANCH  30  32
HETATM   32  C23 UNL     1      25.178  12.457  29.922  1.00  0.00     0.236 C 
HETATM   33  O4  UNL     1      24.866  13.279  30.762  1.00  0.00    -0.306 OA
ENDBRANCH  30  32
ENDBRANCH  24  27
ENDBRANCH  22  24
ENDBRANCH  19  22
BRANCH   5  34
HETATM   34  O1  UNL     1      26.837  -0.683  36.978  1.00  0.00    -0.396 OA
ATOM     35  H1  UNL     1      26.099  -0.573  37.567  1.00  0.00     0.210 HD
ENDBRANCH   5  34
TORSDOF 5
ENDMDL
MODEL 2
REMARK VINA RESULT: -7.475176211      5.543     10.771
REMARK  5 active torsions:
REMARK  status: ('A' for Active; 'I' for Inactive)
REMARK    1  A    between atoms: C5_5  and  O1_6 
REMARK    2  A    between atoms: C19_21  and  N1_22 
REMARK    3  A    between atoms: N1_22  and  S1_24 
REMARK    4  A    between atoms: S1_24  and  N2_27 
REMARK    5  A    between atoms: C22_30  and  C23_31 
ROOT
HETATM    1  C1  UNL     1      17.660  11.762  33.332  1.00  0.00     0.016 C 
HETATM    2  C2  UNL     1      18.794  12.738  33.634  1.00  0.00    -0.036 C 
HETATM    3  C3  UNL     1      18.337  14.093  33.135  1.00  0.00     0.012 C 
HETATM    4  C4  UNL     1      17.281  14.723  33.964  1.00  0.00     0.032 C 
HETATM    5  C5  UNL     1      16.698  13.890  35.038  1.00  0.00     0.118 C 
HETATM    6  C6  UNL     1      17.680  13.083  35.820  1.00  0.00     0.037 C 
HETATM    7  C7  UNL     1      18.990  12.851  35.126  1.00  0.00    -0.004 C 
HETATM    8  C8  UNL     1      19.610  11.629  35.744  1.00  0.00     0.006 C 
HETATM    9  C9  UNL     1      20.529  10.893  34.828  1.00  0.00     0.006 C 
HETATM   10  C10 UNL     1      21.107  11.897  33.856  1.00  0.00    -0.005 C 
HETATM   11  C11 UNL     1      20.002  12.272  32.900  1.00  0.00    -0.002 C 
HETATM   12  C12 UNL     1      20.550  13.279  31.920  1.00  0.00     0.006 C 
HETATM   13  C13 UNL     1      21.610  12.522  31.096  1.00  0.00     0.011 C 
HETATM   14  C14 UNL     1      22.727  12.251  32.049  1.00  0.00    -0.031 C 
HETATM   15  C15 UNL     1      23.548  13.466  32.206  1.00  0.00     0.010 C 
HETATM   16  C16 UNL     1      24.232  13.534  30.828  1.00  0.00     0.001 C 
HETATM   17  C17 UNL     1      24.180  12.103  30.271  1.00  0.00     0.007 C 
HETATM   18  C18 UNL     1      23.810  11.341  31.444  1.00  0.00     0.018 C 
HETATM   19  C19 UNL     1      23.212  10.038  31.420  1.00  0.00     0.099 C 
HETATM   20  C25 UNL     1      22.236  10.047  32.588  1.00  0.00     0.032 C 
HETATM   21  C26 UNL     1      22.365  11.441  33.215  1.00  0.00     0.001 C 
ENDROOT
BRANCH  19  22
HETATM   22  N1  UNL     1      22.637   9.576  30.193  1.00  0.00    -0.302 N 
ATOM     23  H1  UNL     1      21.710   9.841  29.862  1.00  0.00     0.173 HD
BRANCH  22  24
HETATM   24  S1  UNL     1      23.713   8.504  29.329  1.00  0.00     0.299 S 
HETATM   25  O2  UNL     1      25.115   8.697  29.866  1.00  0.00    -0.188 OA
HETATM   26  O3  UNL     1      23.664   8.812  27.877  1.00  0.00    -0.188 OA
BRANCH  24  27
HETATM   27  N2  UNL     1      23.203   6.879  29.609  1.00  0.00    -0.193 NA
HETATM   28  C20 UNL     1      22.412   6.709  30.780  1.00  0.00     0.109 C 
HETATM   29  C21 UNL     1      23.118   5.709  31.671  1.00  0.00     0.028 C 
HETATM   30  C22 UNL     1      24.010   4.952  30.717  1.00  0.00     0.062 C 
HETATM   31  C24 UNL     1      24.341   6.020  29.697  1.00  0.00     0.120 C 
BRANCH  30  32
HETATM   32  C23 UNL     1      25.220   4.433  31.417  1.00  0.00     0.236 C 
HETATM   33  O4  UNL     1      25.051   3.622  32.306  1.00  0.00    -0.306 OA
ENDBRANCH  30  32
ENDBRANCH  24  27
ENDBRANCH  22  24
ENDBRANCH  19  22
BRANCH   5  34
HETATM   34  O1  UNL     1      16.065  14.765  35.954  1.00  0.00    -0.396 OA
ATOM     35  H1  UNL     1      16.455  14.613  36.807  1.00  0.00     0.210 HD
ENDBRANCH   5  34
TORSDOF 5
ENDMDL
MODEL 3
REMARK VINA RESULT: -7.165446453      6.834     10.953
REMARK  5 active torsions:
REMARK  status: ('A' for Active; 'I' for Inactive)
REMARK    1  A    between atoms: C5_5  and  O1_6 
REMARK    2  A    between atoms: C19_21  and  N1_22 
REMARK    3  A    between atoms: N1_22  and  S1_24 
REMARK    4  A    between atoms: S1_24  and  N2_27 
REMARK    5  A    between atoms: C22_30  and  C23_31 
ROOT
HETATM    1  C1  UNL     1      22.026   9.574  29.570  1.00  0.00     0.016 C 
HETATM    2  C2  UNL     1      22.526   9.335  30.992  1.00  0.00    -0.036 C 
HETATM    3  C3  UNL     1      22.390   7.850  31.249  1.00  0.00     0.012 C 
HETATM    4  C4  UNL     1      23.380   7.014  30.527  1.00  0.00     0.032 C 
HETATM    5  C5  UNL     1      24.232   7.705  29.536  1.00  0.00     0.118 C 
HETATM    6  C6  UNL     1      24.760   9.032  29.968  1.00  0.00     0.037 C 
HETATM    7  C7  UNL     1      23.993   9.676  31.084  1.00  0.00    -0.004 C 
HETATM    8  C8  UNL     1      24.271  11.152  31.022  1.00  0.00     0.006 C 
HETATM    9  C9  UNL     1      23.174  11.994  31.581  1.00  0.00     0.006 C 
HETATM   10  C10 UNL     1      22.464  11.178  32.637  1.00  0.00    -0.005 C 
HETATM   11  C11 UNL     1      21.663  10.124  31.915  1.00  0.00    -0.002 C 
HETATM   12  C12 UNL     1      20.946   9.289  32.946  1.00  0.00     0.006 C 
HETATM   13  C13 UNL     1      19.930  10.236  33.613  1.00  0.00     0.011 C 
HETATM   14  C14 UNL     1      20.753  11.207  34.394  1.00  0.00    -0.031 C 
HETATM   15  C15 UNL     1      21.180  10.584  35.661  1.00  0.00     0.010 C 
HETATM   16  C16 UNL     1      19.841  10.523  36.420  1.00  0.00     0.001 C 
HETATM   17  C17 UNL     1      18.951  11.594  35.772  1.00  0.00     0.007 C 
HETATM   18  C18 UNL     1      19.910  12.346  34.992  1.00  0.00     0.018 C 
HETATM   19  C19 UNL     1      19.583  13.177  33.871  1.00  0.00     0.099 C 
HETATM   20  C25 UNL     1      20.745  12.989  32.907  1.00  0.00     0.032 C 
HETATM   21  C26 UNL     1      21.693  12.002  33.600  1.00  0.00     0.001 C 
ENDROOT
BRANCH  19  22
HETATM   22  N1  UNL     1      18.297  13.022  33.260  1.00  0.00    -0.302 N 
ATOM     23  H1  UNL     1      18.050  12.252  32.638  1.00  0.00     0.173 HD
BRANCH  22  24
HETATM   24  S1  UNL     1      17.200  14.305  33.707  1.00  0.00     0.299 S 
HETATM   25  O2  UNL     1      16.566  13.953  35.036  1.00  0.00    -0.188 OA
HETATM   26  O3  UNL     1      16.159  14.460  32.659  1.00  0.00    -0.188 OA
BRANCH  24  27
HETATM   27  N2  UNL     1      18.105  15.766  33.865  1.00  0.00    -0.193 NA
HETATM   28  C20 UNL     1      17.379  16.843  34.447  1.00  0.00     0.109 C 
HETATM   29  C21 UNL     1      17.378  17.987  33.456  1.00  0.00     0.028 C 
HETATM   30  C22 UNL     1      18.568  17.693  32.574  1.00  0.00     0.062 C 
HETATM   31  C24 UNL     1      18.588  16.179  32.586  1.00  0.00     0.120 C 
BRANCH  30  32
HETATM   32  C23 UNL     1      18.370  18.253  31.207  1.00  0.00     0.236 C 
HETATM   33  O4  UNL     1      18.747  19.391  31.004  1.00  0.00    -0.306 OA
ENDBRANCH  30  32
ENDBRANCH  24  27
ENDBRANCH  22  24
ENDBRANCH  19  22
BRANCH   5  34
HETATM   34  O1  UNL     1      25.354   6.876  29.293  1.00  0.00    -0.396 OA
ATOM     35  H1  UNL     1      25.036   6.081  28.882  1.00  0.00     0.210 HD
ENDBRANCH   5  34
TORSDOF 5
ENDMDL
MODEL 4
REMARK VINA RESULT: -7.155554829      2.467      8.838
REMARK  5 active torsions:
REMARK  status: ('A' for Active; 'I' for Inactive)
REMARK    1  A    between atoms: C5_5  and  O1_6 
REMARK    2  A    between atoms: C19_21  and  N1_22 
REMARK    3  A    between atoms: N1_22  and  S1_24 
REMARK    4  A    between atoms: S1_24  and  N2_27 
REMARK    5  A    between atoms: C22_30  and  C23_31 
ROOT
HETATM    1  C1  UNL     1      24.832  11.917  31.391  1.00  0.00     0.016 C 
HETATM    2  C2  UNL     1      23.640  11.109  30.885  1.00  0.00    -0.036 C 
HETATM    3  C3  UNL     1      22.589  11.171  31.974  1.00  0.00     0.012 C 
HETATM    4  C4  UNL     1      21.921  12.490  32.101  1.00  0.00     0.032 C 
HETATM    5  C5  UNL     1      22.478  13.594  31.292  1.00  0.00     0.118 C 
HETATM    6  C6  UNL     1      22.845  13.234  29.891  1.00  0.00     0.037 C 
HETATM    7  C7  UNL     1      23.057  11.768  29.659  1.00  0.00    -0.004 C 
HETATM    8  C8  UNL     1      23.922  11.631  28.437  1.00  0.00     0.006 C 
HETATM    9  C9  UNL     1      24.738  10.382  28.415  1.00  0.00     0.006 C 
HETATM   10  C10 UNL     1      23.989   9.332  29.204  1.00  0.00    -0.005 C 
HETATM   11  C11 UNL     1      24.101   9.712  30.660  1.00  0.00    -0.002 C 
HETATM   12  C12 UNL     1      23.357   8.683  31.473  1.00  0.00     0.006 C 
HETATM   13  C13 UNL     1      24.142   7.368  31.297  1.00  0.00     0.011 C 
HETATM   14  C14 UNL     1      23.932   6.973  29.872  1.00  0.00    -0.031 C 
HETATM   15  C15 UNL     1      22.609   6.338  29.727  1.00  0.00     0.010 C 
HETATM   16  C16 UNL     1      22.845   5.005  30.460  1.00  0.00     0.001 C 
HETATM   17  C17 UNL     1      24.365   4.785  30.436  1.00  0.00     0.007 C 
HETATM   18  C18 UNL     1      24.792   5.765  29.462  1.00  0.00     0.018 C 
HETATM   19  C19 UNL     1      26.122   6.291  29.357  1.00  0.00     0.099 C 
HETATM   20  C25 UNL     1      25.924   7.748  28.968  1.00  0.00     0.032 C 
HETATM   21  C26 UNL     1      24.405   7.945  28.883  1.00  0.00     0.001 C 
ENDROOT
BRANCH  19  22
HETATM   22  N1  UNL     1      27.016   6.105  30.460  1.00  0.00    -0.302 N 
ATOM     23  H1  UNL     1      26.967   6.636  31.330  1.00  0.00     0.173 HD
BRANCH  22  24
HETATM   24  S1  UNL     1      28.201   4.862  30.141  1.00  0.00     0.299 S 
HETATM   25  O2  UNL     1      29.538   5.527  29.894  1.00  0.00    -0.188 OA
HETATM   26  O3  UNL     1      27.787   4.071  28.954  1.00  0.00    -0.188 OA
BRANCH  24  27
HETATM   27  N2  UNL     1      28.307   3.841  31.528  1.00  0.00    -0.193 NA
HETATM   28  C20 UNL     1      28.367   2.451  31.227  1.00  0.00     0.109 C 
HETATM   29  C21 UNL     1      27.197   1.781  31.914  1.00  0.00     0.028 C 
HETATM   30  C22 UNL     1      26.834   2.744  33.018  1.00  0.00     0.062 C 
HETATM   31  C24 UNL     1      27.192   4.074  32.390  1.00  0.00     0.120 C 
BRANCH  30  32
HETATM   32  C23 UNL     1      25.386   2.644  33.359  1.00  0.00     0.236 C 
HETATM   33  O4  UNL     1      25.095   2.380  34.510  1.00  0.00    -0.306 OA
ENDBRANCH  30  32
ENDBRANCH  24  27
ENDBRANCH  22  24
ENDBRANCH  19  22
BRANCH   5  34
HETATM   34  O1  UNL     1      21.486  14.601  31.210  1.00  0.00    -0.396 OA
ATOM     35  H1  UNL     1      21.794  15.254  30.593  1.00  0.00     0.210 HD
ENDBRANCH   5  34
TORSDOF 5
ENDMDL
MODEL 5
REMARK VINA RESULT: -7.150574911      2.094      2.920
REMARK  5 active torsions:
REMARK  status: ('A' for Active; 'I' for Inactive)
REMARK    1  A    between atoms: C5_5  and  O1_6 
REMARK    2  A    between atoms: C19_21  and  N1_22 
REMARK    3  A    between atoms: N1_22  and  S1_24 
REMARK    4  A    between atoms: S1_24  and  N2_27 
REMARK    5  A    between atoms: C22_30  and  C23_31 
ROOT
HETATM    1  C1  UNL     1      25.323   2.056  34.852  1.00  0.00     0.016 C 
HETATM    2  C2  UNL     1      26.673   1.427  34.519  1.00  0.00    -0.036 C 
HETATM    3  C3  UNL     1      27.489   1.464  35.793  1.00  0.00     0.012 C 
HETATM    4  C4  UNL     1      27.047   0.498  36.828  1.00  0.00     0.032 C 
HETATM    5  C5  UNL     1      25.790  -0.231  36.558  1.00  0.00     0.118 C 
HETATM    6  C6  UNL     1      25.630  -0.726  35.160  1.00  0.00     0.037 C 
HETATM    7  C7  UNL     1      26.485  -0.024  34.148  1.00  0.00    -0.004 C 
HETATM    8  C8  UNL     1      25.838  -0.220  32.805  1.00  0.00     0.006 C 
HETATM    9  C9  UNL     1      26.138   0.867  31.828  1.00  0.00     0.006 C 
HETATM   10  C10 UNL     1      27.489   1.443  32.186  1.00  0.00    -0.005 C 
HETATM   11  C11 UNL     1      27.305   2.247  33.449  1.00  0.00    -0.002 C 
HETATM   12  C12 UNL     1      28.641   2.831  33.834  1.00  0.00     0.006 C 
HETATM   13  C13 UNL     1      28.992   3.835  32.718  1.00  0.00     0.011 C 
HETATM   14  C14 UNL     1      29.260   2.999  31.510  1.00  0.00    -0.031 C 
HETATM   15  C15 UNL     1      30.621   2.436  31.592  1.00  0.00     0.010 C 
HETATM   16  C16 UNL     1      31.472   3.700  31.376  1.00  0.00     0.001 C 
HETATM   17  C17 UNL     1      30.555   4.696  30.650  1.00  0.00     0.007 C 
HETATM   18  C18 UNL     1      29.458   3.846  30.240  1.00  0.00     0.018 C 
HETATM   19  C19 UNL     1      28.142   4.308  29.909  1.00  0.00     0.099 C 
HETATM   20  C25 UNL     1      27.215   3.223  30.436  1.00  0.00     0.032 C 
HETATM   21  C26 UNL     1      28.136   2.171  31.067  1.00  0.00     0.001 C 
ENDROOT
BRANCH  19  22
HETATM   22  N1  UNL     1      27.765   5.631  30.306  1.00  0.00    -0.302 N 
ATOM     23  H1  UNL     1      27.502   5.888  31.258  1.00  0.00     0.173 HD
BRANCH  22  24
HETATM   24  S1  UNL     1      27.810   6.754  28.969  1.00  0.00     0.299 S 
HETATM   25  O2  UNL     1      28.515   6.088  27.807  1.00  0.00    -0.188 OA
HETATM   26  O3  UNL     1      28.529   7.988  29.377  1.00  0.00    -0.188 OA
BRANCH  24  27
HETATM   27  N2  UNL     1      26.187   7.134  28.522  1.00  0.00    -0.193 NA
HETATM   28  C20 UNL     1      25.718   8.379  29.027  1.00  0.00     0.109 C 
HETATM   29  C21 UNL     1      24.489   8.102  29.866  1.00  0.00     0.028 C 
HETATM   30  C22 UNL     1      24.004   6.767  29.355  1.00  0.00     0.062 C 
HETATM   31  C24 UNL     1      25.306   6.100  28.964  1.00  0.00     0.120 C 
BRANCH  30  32
HETATM   32  C23 UNL     1      23.276   6.021  30.421  1.00  0.00     0.236 C 
HETATM   33  O4  UNL     1      22.440   5.211  30.070  1.00  0.00    -0.306 OA
ENDBRANCH  30  32
ENDBRANCH  24  27
ENDBRANCH  22  24
ENDBRANCH  19  22
BRANCH   5  34
HETATM   34  O1  UNL     1      25.773  -1.370  37.400  1.00  0.00    -0.396 OA
ATOM     35  H1  UNL     1      25.348  -2.071  36.921  1.00  0.00     0.210 HD
ENDBRANCH   5  34
TORSDOF 5
ENDMDL
