MODEL 1
REMARK VINA RESULT: -7.296735353      0.000      0.000
REMARK  10 active torsions:
REMARK  status: ('A' for Active; 'I' for Inactive)
REMARK    1  A    between atoms: O1_2  and  C2_3 
REMARK    2  A    between atoms: C2_3  and  C3_5 
REMARK    3  A    between atoms: C3_5  and  N1_6 
REMARK    4  A    between atoms: N1_6  and  N2_8 
REMARK    5  A    between atoms: N2_8  and  C4_10 
REMARK    6  A    between atoms: C5_13  and  C6_14 
REMARK    7  A    between atoms: C6_14  and  S1_15 
REMARK    8  A    between atoms: S1_15  and  C7_16 
REMARK    9  A    between atoms: C8_19  and  N5_20 
REMARK   10  A    between atoms: C14_37  and  N11_38 
ROOT
HETATM    1  C4  UNL     1      16.130  22.181  56.477  1.00  0.00     0.150 A 
HETATM    2  N3  UNL     1      15.984  21.433  55.340  1.00  0.00    -0.342 N 
ATOM      3  H3  UNL     1      15.134  21.545  54.788  1.00  0.00     0.167 HD
HETATM    4  C5  UNL     1      16.913  20.559  54.922  1.00  0.00     0.022 A 
HETATM    5  C11 UNL     1      18.052  20.431  55.689  1.00  0.00     0.058 A 
HETATM    6  C12 UNL     1      18.228  21.184  56.855  1.00  0.00     0.084 A 
HETATM    7  C13 UNL     1      17.256  22.074  57.261  1.00  0.00     0.122 A 
HETATM    8  N10 UNL     1      17.689  22.644  58.392  1.00  0.00    -0.186 N 
ATOM      9  H10 UNL     1      17.177  23.348  58.924  1.00  0.00     0.184 HD
HETATM   10  C14 UNL     1      18.916  22.150  58.733  1.00  0.00     0.678 A 
HETATM   11  N12 UNL     1      19.209  21.262  57.772  1.00  0.00    -0.185 N 
HETATM   12  C15 UNL     1      20.437  20.486  57.733  1.00  0.00     0.175 C 
ENDROOT
BRANCH   4  13
HETATM   13  C6  UNL     1      16.687  19.776  53.673  1.00  0.00     0.139 C 
BRANCH  13  14
HETATM   14  S1  UNL     1      18.015  18.549  53.498  1.00  0.00    -0.087 SA
BRANCH  14  15
HETATM   15  C7  UNL     1      17.992  17.976  51.808  1.00  0.00     0.174 A 
HETATM   16  N4  UNL     1      18.751  18.596  50.901  1.00  0.00    -0.168 N 
HETATM   17  C8  UNL     1      18.730  18.164  49.638  1.00  0.00     0.714 A 
ATOM     18  H4  UNL     1      19.337  19.386  51.169  1.00  0.00     0.186 HD
HETATM   19  N6  UNL     1      17.971  17.126  49.245  1.00  0.00     0.091 N 
HETATM   20  N7  UNL     1      17.788  16.528  48.071  1.00  0.00    -0.260 N 
HETATM   21  C10 UNL     1      17.220  16.523  50.178  1.00  0.00     0.721 A 
HETATM   22  C9  UNL     1      16.906  15.517  48.223  1.00  0.00     0.216 A 
ATOM     23  H7  UNL     1      18.241  16.792  47.196  1.00  0.00     0.189 HD
HETATM   24  N8  UNL     1      16.565  15.525  49.521  1.00  0.00    -0.184 N 
ATOM     25  H8  UNL     1      15.909  14.875  49.955  1.00  0.00     0.185 HD
HETATM   26  N9  UNL     1      17.219  16.936  51.463  1.00  0.00    -0.167 N 
ATOM     27  H9  UNL     1      16.641  16.465  52.160  1.00  0.00     0.186 HD
BRANCH  17  28
HETATM   28  N5  UNL     1      19.475  18.779  48.768  1.00  0.00    -0.232 N 
ATOM     29  H52 UNL     1      20.170  19.452  49.089  1.00  0.00     0.174 HD
ATOM     30  H51 UNL     1      19.337  18.565  47.780  1.00  0.00     0.174 HD
ENDBRANCH  17  28
ENDBRANCH  14  15
ENDBRANCH  13  14
ENDBRANCH   4  13
BRANCH   1  31
HETATM   31  N2  UNL     1      15.190  22.960  56.758  1.00  0.00    -0.287 N 
ATOM     32  H2  UNL     1      15.344  23.911  56.422  1.00  0.00     0.188 HD
BRANCH  31  33
HETATM   33  N1  UNL     1      14.014  22.809  57.414  1.00  0.00    -0.326 N 
ATOM     34  H1  UNL     1      14.024  22.452  58.370  1.00  0.00     0.180 HD
BRANCH  33  35
HETATM   35  C3  UNL     1      12.742  23.137  56.804  1.00  0.00     0.250 C 
BRANCH  35  36
HETATM   36  C2  UNL     1      12.935  23.401  55.355  1.00  0.00     0.277 C 
HETATM   37  O2  UNL     1      12.944  24.577  54.937  1.00  0.00    -0.263 OA
BRANCH  36  38
HETATM   38  O1  UNL     1      13.109  22.376  54.440  1.00  0.00    -0.325 OA
HETATM   39  C1  UNL     1      13.247  22.595  53.050  1.00  0.00     0.213 C 
ENDBRANCH  36  38
ENDBRANCH  35  36
ENDBRANCH  33  35
ENDBRANCH  31  33
ENDBRANCH   1  31
BRANCH  10  40
HETATM   40  N11 UNL     1      19.613  22.489  59.770  1.00  0.00    -0.234 N 
ATOM     41 2H11 UNL     1      20.560  22.864  59.813  1.00  0.00     0.174 HD
ATOM     42 1H11 UNL     1      19.311  22.430  60.742  1.00  0.00     0.174 HD
ENDBRANCH  10  40
TORSDOF 10
ENDMDL
MODEL 2
REMARK VINA RESULT: -7.147799340      2.660      3.791
REMARK  10 active torsions:
REMARK  status: ('A' for Active; 'I' for Inactive)
REMARK    1  A    between atoms: O1_2  and  C2_3 
REMARK    2  A    between atoms: C2_3  and  C3_5 
REMARK    3  A    between atoms: C3_5  and  N1_6 
REMARK    4  A    between atoms: N1_6  and  N2_8 
REMARK    5  A    between atoms: N2_8  and  C4_10 
REMARK    6  A    between atoms: C5_13  and  C6_14 
REMARK    7  A    between atoms: C6_14  and  S1_15 
REMARK    8  A    between atoms: S1_15  and  C7_16 
REMARK    9  A    between atoms: C8_19  and  N5_20 
REMARK   10  A    between atoms: C14_37  and  N11_38 
ROOT
HETATM    1  C4  UNL     1      18.946  20.922  53.962  1.00  0.00     0.150 A 
HETATM    2  N3  UNL     1      18.374  19.984  53.147  1.00  0.00    -0.342 N 
ATOM      3  H3  UNL     1      17.891  20.298  52.304  1.00  0.00     0.167 HD
HETATM    4  C5  UNL     1      18.421  18.668  53.408  1.00  0.00     0.022 A 
HETATM    5  C11 UNL     1      19.081  18.275  54.554  1.00  0.00     0.058 A 
HETATM    6  C12 UNL     1      19.676  19.212  55.405  1.00  0.00     0.084 A 
HETATM    7  C13 UNL     1      19.611  20.558  55.110  1.00  0.00     0.122 A 
HETATM    8  N10 UNL     1      20.257  21.208  56.086  1.00  0.00    -0.186 N 
ATOM      9  H10 UNL     1      20.372  22.220  56.135  1.00  0.00     0.184 HD
HETATM   10  C14 UNL     1      20.741  20.323  57.007  1.00  0.00     0.678 A 
HETATM   11  N12 UNL     1      20.365  19.117  56.555  1.00  0.00    -0.185 N 
HETATM   12  C15 UNL     1      20.671  17.868  57.233  1.00  0.00     0.175 C 
ENDROOT
BRANCH   4  13
HETATM   13  C6  UNL     1      17.774  17.702  52.475  1.00  0.00     0.139 C 
BRANCH  13  14
HETATM   14  S1  UNL     1      18.003  18.285  50.770  1.00  0.00    -0.087 SA
BRANCH  14  15
HETATM   15  C7  UNL     1      17.599  16.927  49.684  1.00  0.00     0.174 A 
HETATM   16  N4  UNL     1      16.641  16.070  50.044  1.00  0.00    -0.168 N 
HETATM   17  C8  UNL     1      16.343  15.055  49.228  1.00  0.00     0.714 A 
ATOM     18  H4  UNL     1      16.145  16.189  50.927  1.00  0.00     0.186 HD
HETATM   19  N6  UNL     1      16.973  14.866  48.057  1.00  0.00     0.091 N 
HETATM   20  N7  UNL     1      16.853  13.950  47.099  1.00  0.00    -0.260 N 
HETATM   21  C10 UNL     1      17.931  15.743  47.721  1.00  0.00     0.721 A 
HETATM   22  C9  UNL     1      17.740  14.219  46.116  1.00  0.00     0.216 A 
ATOM     23  H7  UNL     1      16.197  13.169  47.106  1.00  0.00     0.189 HD
HETATM   24  N8  UNL     1      18.394  15.323  46.511  1.00  0.00    -0.184 N 
ATOM     25  H8  UNL     1      19.134  15.782  45.980  1.00  0.00     0.185 HD
HETATM   26  N9  UNL     1      18.256  16.779  48.524  1.00  0.00    -0.167 N 
ATOM     27  H9  UNL     1      18.987  17.436  48.253  1.00  0.00     0.186 HD
BRANCH  17  28
HETATM   28  N5  UNL     1      15.408  14.231  49.595  1.00  0.00    -0.232 N 
ATOM     29  H52 UNL     1      15.653  13.392  50.121  1.00  0.00     0.174 HD
ATOM     30  H51 UNL     1      14.445  14.453  49.340  1.00  0.00     0.174 HD
ENDBRANCH  17  28
ENDBRANCH  14  15
ENDBRANCH  13  14
ENDBRANCH   4  13
BRANCH   1  31
HETATM   31  N2  UNL     1      18.831  22.118  53.606  1.00  0.00    -0.287 N 
ATOM     32  H2  UNL     1      19.523  22.398  52.911  1.00  0.00     0.188 HD
BRANCH  31  33
HETATM   33  N1  UNL     1      17.983  23.119  53.947  1.00  0.00    -0.326 N 
ATOM     34  H1  UNL     1      17.292  23.433  53.265  1.00  0.00     0.180 HD
BRANCH  33  35
HETATM   35  C3  UNL     1      18.023  23.756  55.247  1.00  0.00     0.250 C 
BRANCH  35  36
HETATM   36  C2  UNL     1      16.973  23.175  56.122  1.00  0.00     0.277 C 
HETATM   37  O2  UNL     1      15.809  23.621  56.069  1.00  0.00    -0.263 OA
BRANCH  36  38
HETATM   38  O1  UNL     1      17.243  22.143  57.005  1.00  0.00    -0.325 OA
HETATM   39  C1  UNL     1      17.814  22.346  58.283  1.00  0.00     0.213 C 
ENDBRANCH  36  38
ENDBRANCH  35  36
ENDBRANCH  33  35
ENDBRANCH  31  33
ENDBRANCH   1  31
BRANCH  10  40
HETATM   40  N11 UNL     1      21.412  20.622  58.073  1.00  0.00    -0.234 N 
ATOM     41 2H11 UNL     1      22.368  20.370  58.322  1.00  0.00     0.174 HD
ATOM     42 1H11 UNL     1      21.074  21.177  58.859  1.00  0.00     0.174 HD
ENDBRANCH  10  40
TORSDOF 10
ENDMDL
MODEL 3
REMARK VINA RESULT: -7.127712373      2.113      2.915
REMARK  10 active torsions:
REMARK  status: ('A' for Active; 'I' for Inactive)
REMARK    1  A    between atoms: O1_2  and  C2_3 
REMARK    2  A    between atoms: C2_3  and  C3_5 
REMARK    3  A    between atoms: C3_5  and  N1_6 
REMARK    4  A    between atoms: N1_6  and  N2_8 
REMARK    5  A    between atoms: N2_8  and  C4_10 
REMARK    6  A    between atoms: C5_13  and  C6_14 
REMARK    7  A    between atoms: C6_14  and  S1_15 
REMARK    8  A    between atoms: S1_15  and  C7_16 
REMARK    9  A    between atoms: C8_19  and  N5_20 
REMARK   10  A    between atoms: C14_37  and  N11_38 
ROOT
HETATM    1  C4  UNL     1      18.175  21.729  55.015  1.00  0.00     0.150 A 
HETATM    2  N3  UNL     1      17.450  20.924  54.179  1.00  0.00    -0.342 N 
ATOM      3  H3  UNL     1      16.613  21.306  53.737  1.00  0.00     0.167 HD
HETATM    4  C5  UNL     1      17.792  19.653  53.916  1.00  0.00     0.022 A 
HETATM    5  C11 UNL     1      18.929  19.165  54.527  1.00  0.00     0.058 A 
HETATM    6  C12 UNL     1      19.690  19.966  55.385  1.00  0.00     0.084 A 
HETATM    7  C13 UNL     1      19.313  21.268  55.637  1.00  0.00     0.122 A 
HETATM    8  N10 UNL     1      20.215  21.785  56.481  1.00  0.00    -0.186 N 
ATOM      9  H10 UNL     1      20.193  22.737  56.846  1.00  0.00     0.184 HD
HETATM   10  C14 UNL     1      21.167  20.854  56.785  1.00  0.00     0.678 A 
HETATM   11  N12 UNL     1      20.812  19.759  56.098  1.00  0.00    -0.185 N 
HETATM   12  C15 UNL     1      21.553  18.510  56.125  1.00  0.00     0.175 C 
ENDROOT
BRANCH   4  13
HETATM   13  C6  UNL     1      16.954  18.833  52.995  1.00  0.00     0.139 C 
BRANCH  13  14
HETATM   14  S1  UNL     1      17.671  18.901  51.328  1.00  0.00    -0.087 SA
BRANCH  14  15
HETATM   15  C7  UNL     1      16.902  17.609  50.365  1.00  0.00     0.174 A 
HETATM   16  N4  UNL     1      15.615  17.728  50.028  1.00  0.00    -0.168 N 
HETATM   17  C8  UNL     1      15.044  16.760  49.308  1.00  0.00     0.714 A 
ATOM     18  H4  UNL     1      15.078  18.546  50.316  1.00  0.00     0.186 HD
HETATM   19  N6  UNL     1      15.718  15.668  48.909  1.00  0.00     0.091 N 
HETATM   20  N7  UNL     1      15.372  14.595  48.201  1.00  0.00    -0.260 N 
HETATM   21  C10 UNL     1      17.009  15.576  49.261  1.00  0.00     0.721 A 
HETATM   22  C9  UNL     1      16.443  13.781  48.081  1.00  0.00     0.216 A 
ATOM     23  H7  UNL     1      14.447  14.417  47.812  1.00  0.00     0.189 HD
HETATM   24  N8  UNL     1      17.441  14.395  48.736  1.00  0.00    -0.184 N 
ATOM     25  H8  UNL     1      18.389  14.030  48.828  1.00  0.00     0.185 HD
HETATM   26  N9  UNL     1      17.615  16.538  49.989  1.00  0.00    -0.167 N 
ATOM     27  H9  UNL     1      18.598  16.451  50.248  1.00  0.00     0.186 HD
BRANCH  17  28
HETATM   28  N5  UNL     1      13.791  16.892  48.990  1.00  0.00    -0.232 N 
ATOM     29  H52 UNL     1      13.519  17.588  48.295  1.00  0.00     0.174 HD
ATOM     30  H51 UNL     1      13.111  16.287  49.452  1.00  0.00     0.174 HD
ENDBRANCH  17  28
ENDBRANCH  14  15
ENDBRANCH  13  14
ENDBRANCH   4  13
BRANCH   1  31
HETATM   31  N2  UNL     1      17.749  22.896  55.178  1.00  0.00    -0.287 N 
ATOM     32  H2  UNL     1      18.112  23.555  54.489  1.00  0.00     0.188 HD
BRANCH  31  33
HETATM   33  N1  UNL     1      16.908  23.468  56.074  1.00  0.00    -0.326 N 
ATOM     34  H1  UNL     1      16.838  24.486  56.103  1.00  0.00     0.180 HD
BRANCH  33  35
HETATM   35  C3  UNL     1      16.107  22.685  56.991  1.00  0.00     0.250 C 
BRANCH  35  36
HETATM   36  C2  UNL     1      14.800  22.362  56.363  1.00  0.00     0.277 C 
HETATM   37  O2  UNL     1      14.752  22.076  55.149  1.00  0.00    -0.263 OA
BRANCH  36  38
HETATM   38  O1  UNL     1      13.619  22.365  57.086  1.00  0.00    -0.325 OA
HETATM   39  C1  UNL     1      13.013  23.547  57.573  1.00  0.00     0.213 C 
ENDBRANCH  36  38
ENDBRANCH  35  36
ENDBRANCH  33  35
ENDBRANCH  31  33
ENDBRANCH   1  31
BRANCH  10  40
HETATM   40  N11 UNL     1      22.180  21.030  57.573  1.00  0.00    -0.234 N 
ATOM     41 2H11 UNL     1      22.508  21.887  58.017  1.00  0.00     0.174 HD
ATOM     42 1H11 UNL     1      22.832  20.309  57.883  1.00  0.00     0.174 HD
ENDBRANCH  10  40
TORSDOF 10
ENDMDL
MODEL 4
REMARK VINA RESULT: -7.116101603      3.077      3.999
REMARK  10 active torsions:
REMARK  status: ('A' for Active; 'I' for Inactive)
REMARK    1  A    between atoms: O1_2  and  C2_3 
REMARK    2  A    between atoms: C2_3  and  C3_5 
REMARK    3  A    between atoms: C3_5  and  N1_6 
REMARK    4  A    between atoms: N1_6  and  N2_8 
REMARK    5  A    between atoms: N2_8  and  C4_10 
REMARK    6  A    between atoms: C5_13  and  C6_14 
REMARK    7  A    between atoms: C6_14  and  S1_15 
REMARK    8  A    between atoms: S1_15  and  C7_16 
REMARK    9  A    between atoms: C8_19  and  N5_20 
REMARK   10  A    between atoms: C14_37  and  N11_38 
ROOT
HETATM    1  C4  UNL     1      16.108  22.125  56.422  1.00  0.00     0.150 A 
HETATM    2  N3  UNL     1      15.959  21.369  55.291  1.00  0.00    -0.342 N 
ATOM      3  H3  UNL     1      15.111  21.480  54.736  1.00  0.00     0.167 HD
HETATM    4  C5  UNL     1      16.884  20.486  54.881  1.00  0.00     0.022 A 
HETATM    5  C11 UNL     1      18.021  20.357  55.651  1.00  0.00     0.058 A 
HETATM    6  C12 UNL     1      18.199  21.120  56.811  1.00  0.00     0.084 A 
HETATM    7  C13 UNL     1      17.232  22.018  57.208  1.00  0.00     0.122 A 
HETATM    8  N10 UNL     1      17.667  22.596  58.335  1.00  0.00    -0.186 N 
ATOM      9  H10 UNL     1      17.157  23.307  58.860  1.00  0.00     0.184 HD
HETATM   10  C14 UNL     1      18.890  22.097  58.682  1.00  0.00     0.678 A 
HETATM   11  N12 UNL     1      19.179  21.200  57.728  1.00  0.00    -0.185 N 
HETATM   12  C15 UNL     1      20.403  20.417  57.698  1.00  0.00     0.175 C 
ENDROOT
BRANCH   4  13
HETATM   13  C6  UNL     1      16.655  19.693  53.639  1.00  0.00     0.139 C 
BRANCH  13  14
HETATM   14  S1  UNL     1      15.435  20.556  52.606  1.00  0.00    -0.087 SA
BRANCH  14  15
HETATM   15  C7  UNL     1      16.302  21.832  51.709  1.00  0.00     0.174 A 
HETATM   16  N4  UNL     1      17.637  21.816  51.686  1.00  0.00    -0.168 N 
HETATM   17  C8  UNL     1      18.282  22.773  51.014  1.00  0.00     0.714 A 
ATOM     18  H4  UNL     1      18.155  21.085  52.173  1.00  0.00     0.186 HD
HETATM   19  N6  UNL     1      17.636  23.752  50.359  1.00  0.00     0.091 N 
HETATM   20  N7  UNL     1      18.051  24.790  49.638  1.00  0.00    -0.260 N 
HETATM   21  C10 UNL     1      16.295  23.742  50.400  1.00  0.00     0.721 A 
HETATM   22  C9  UNL     1      16.977  25.478  49.193  1.00  0.00     0.216 A 
ATOM     23  H7  UNL     1      19.025  25.028  49.451  1.00  0.00     0.189 HD
HETATM   24  N8  UNL     1      15.906  24.823  49.668  1.00  0.00    -0.184 N 
ATOM     25  H8  UNL     1      14.937  25.096  49.504  1.00  0.00     0.185 HD
HETATM   26  N9  UNL     1      15.614  22.789  51.070  1.00  0.00    -0.167 N 
ATOM     27  H9  UNL     1      14.594  22.796  51.090  1.00  0.00     0.186 HD
BRANCH  17  28
HETATM   28  N5  UNL     1      19.582  22.743  51.003  1.00  0.00    -0.232 N 
ATOM     29  H52 UNL     1      20.088  23.162  50.223  1.00  0.00     0.174 HD
ATOM     30  H51 UNL     1      20.059  22.294  51.785  1.00  0.00     0.174 HD
ENDBRANCH  17  28
ENDBRANCH  14  15
ENDBRANCH  13  14
ENDBRANCH   4  13
BRANCH   1  31
HETATM   31  N2  UNL     1      15.172  22.912  56.695  1.00  0.00    -0.287 N 
ATOM     32  H2  UNL     1      15.313  23.850  56.319  1.00  0.00     0.188 HD
BRANCH  31  33
HETATM   33  N1  UNL     1      14.011  22.783  57.383  1.00  0.00    -0.326 N 
ATOM     34  H1  UNL     1      14.043  22.428  58.340  1.00  0.00     0.180 HD
BRANCH  33  35
HETATM   35  C3  UNL     1      12.729  23.131  56.808  1.00  0.00     0.250 C 
BRANCH  35  36
HETATM   36  C2  UNL     1      12.906  23.511  55.384  1.00  0.00     0.277 C 
HETATM   37  O2  UNL     1      12.939  24.717  55.066  1.00  0.00    -0.263 OA
BRANCH  36  38
HETATM   38  O1  UNL     1      13.039  22.563  54.383  1.00  0.00    -0.325 OA
HETATM   39  C1  UNL     1      12.275  22.581  53.193  1.00  0.00     0.213 C 
ENDBRANCH  36  38
ENDBRANCH  35  36
ENDBRANCH  33  35
ENDBRANCH  31  33
ENDBRANCH   1  31
BRANCH  10  40
HETATM   40  N11 UNL     1      19.588  22.442  59.717  1.00  0.00    -0.234 N 
ATOM     41 2H11 UNL     1      20.491  22.086  60.030  1.00  0.00     0.174 HD
ATOM     42 1H11 UNL     1      19.332  23.149  60.406  1.00  0.00     0.174 HD
ENDBRANCH  10  40
TORSDOF 10
ENDMDL
MODEL 5
REMARK VINA RESULT: -7.110071890      0.504      1.542
REMARK  10 active torsions:
REMARK  status: ('A' for Active; 'I' for Inactive)
REMARK    1  A    between atoms: O1_2  and  C2_3 
REMARK    2  A    between atoms: C2_3  and  C3_5 
REMARK    3  A    between atoms: C3_5  and  N1_6 
REMARK    4  A    between atoms: N1_6  and  N2_8 
REMARK    5  A    between atoms: N2_8  and  C4_10 
REMARK    6  A    between atoms: C5_13  and  C6_14 
REMARK    7  A    between atoms: C6_14  and  S1_15 
REMARK    8  A    between atoms: S1_15  and  C7_16 
REMARK    9  A    between atoms: C8_19  and  N5_20 
REMARK   10  A    between atoms: C14_37  and  N11_38 
ROOT
HETATM    1  C4  UNL     1      16.081  22.176  56.424  1.00  0.00     0.150 A 
HETATM    2  N3  UNL     1      15.918  21.432  55.287  1.00  0.00    -0.342 N 
ATOM      3  H3  UNL     1      15.067  21.556  54.739  1.00  0.00     0.167 HD
HETATM    4  C5  UNL     1      16.831  20.544  54.864  1.00  0.00     0.022 A 
HETATM    5  C11 UNL     1      17.972  20.397  55.626  1.00  0.00     0.058 A 
HETATM    6  C12 UNL     1      18.165  21.147  56.792  1.00  0.00     0.084 A 
HETATM    7  C13 UNL     1      17.209  22.051  57.202  1.00  0.00     0.122 A 
HETATM    8  N10 UNL     1      17.656  22.614  58.332  1.00  0.00    -0.186 N 
ATOM      9  H10 UNL     1      17.156  23.325  58.866  1.00  0.00     0.184 HD
HETATM   10  C14 UNL     1      18.876  22.101  58.667  1.00  0.00     0.678 A 
HETATM   11  N12 UNL     1      19.151  21.209  57.703  1.00  0.00    -0.185 N 
HETATM   12  C15 UNL     1      20.367  20.415  57.659  1.00  0.00     0.175 C 
ENDROOT
BRANCH   4  13
HETATM   13  C6  UNL     1      16.588  19.765  53.615  1.00  0.00     0.139 C 
BRANCH  13  14
HETATM   14  S1  UNL     1      17.970  18.616  53.358  1.00  0.00    -0.087 SA
BRANCH  14  15
HETATM   15  C7  UNL     1      17.909  18.080  51.657  1.00  0.00     0.174 A 
HETATM   16  N4  UNL     1      17.283  16.940  51.357  1.00  0.00    -0.168 N 
HETATM   17  C8  UNL     1      17.240  16.543  50.082  1.00  0.00     0.714 A 
ATOM     18  H4  UNL     1      16.845  16.381  52.089  1.00  0.00     0.186 HD
HETATM   19  N6  UNL     1      17.804  17.251  49.089  1.00  0.00     0.091 N 
HETATM   20  N7  UNL     1      17.889  17.063  47.775  1.00  0.00    -0.260 N 
HETATM   21  C10 UNL     1      18.425  18.393  49.420  1.00  0.00     0.721 A 
HETATM   22  C9  UNL     1      18.574  18.090  47.225  1.00  0.00     0.216 A 
ATOM     23  H7  UNL     1      17.500  16.271  47.265  1.00  0.00     0.189 HD
HETATM   24  N8  UNL     1      18.897  18.898  48.247  1.00  0.00    -0.184 N 
ATOM     25  H8  UNL     1      19.421  19.769  48.157  1.00  0.00     0.185 HD
HETATM   26  N9  UNL     1      18.487  18.821  50.699  1.00  0.00    -0.167 N 
ATOM     27  H9  UNL     1      18.963  19.692  50.933  1.00  0.00     0.186 HD
BRANCH  17  28
HETATM   28  N5  UNL     1      16.627  15.430  49.809  1.00  0.00    -0.232 N 
ATOM     29  H52 UNL     1      16.134  14.932  50.549  1.00  0.00     0.174 HD
ATOM     30  H51 UNL     1      16.659  15.088  48.848  1.00  0.00     0.174 HD
ENDBRANCH  17  28
ENDBRANCH  14  15
ENDBRANCH  13  14
ENDBRANCH   4  13
BRANCH   1  31
HETATM   31  N2  UNL     1      15.154  22.970  56.710  1.00  0.00    -0.287 N 
ATOM     32  H2  UNL     1      15.305  23.910  56.346  1.00  0.00     0.188 HD
BRANCH  31  33
HETATM   33  N1  UNL     1      13.994  22.844  57.400  1.00  0.00    -0.326 N 
ATOM     34  H1  UNL     1      14.028  22.510  58.364  1.00  0.00     0.180 HD
BRANCH  33  35
HETATM   35  C3  UNL     1      12.709  23.167  56.816  1.00  0.00     0.250 C 
BRANCH  35  36
HETATM   36  C2  UNL     1      12.870  23.416  55.361  1.00  0.00     0.277 C 
HETATM   37  O2  UNL     1      12.912  24.589  54.936  1.00  0.00    -0.263 OA
BRANCH  36  38
HETATM   38  O1  UNL     1      12.977  22.381  54.447  1.00  0.00    -0.325 OA
HETATM   39  C1  UNL     1      13.246  22.586  53.074  1.00  0.00     0.213 C 
ENDBRANCH  36  38
ENDBRANCH  35  36
ENDBRANCH  33  35
ENDBRANCH  31  33
ENDBRANCH   1  31
BRANCH  10  40
HETATM   40  N11 UNL     1      19.583  22.429  59.701  1.00  0.00    -0.234 N 
ATOM     41 2H11 UNL     1      20.296  21.887  60.190  1.00  0.00     0.174 HD
ATOM     42 1H11 UNL     1      19.535  23.313  60.205  1.00  0.00     0.174 HD
ENDBRANCH  10  40
TORSDOF 10
ENDMDL
