MODEL 1
REMARK VINA RESULT: -8.797316714      0.000      0.000
REMARK  11 active torsions:
REMARK  status: ('A' for Active; 'I' for Inactive)
REMARK    1  A    between atoms: C3_7  and  C4_8 
REMARK    2  A    between atoms: C4_8  and  N3_9 
REMARK    3  A    between atoms: N3_9  and  C5_11 
REMARK    4  A    between atoms: C9_15  and  O1_16 
REMARK    5  A    between atoms: O1_16  and  C10_17 
REMARK    6  A    between atoms: C10_17  and  C11_18 
REMARK    7  A    between atoms: C16_24  and  C17_25 
REMARK    8  A    between atoms: C17_25  and  C19_27 
REMARK    9  A    between atoms: C17_25  and  C28_38 
REMARK   10  A    between atoms: N5_29  and  C21_31 
REMARK   11  A    between atoms: C21_31  and  C22_32 
ROOT
HETATM    1  C11 UNL     1     -17.845  18.216  17.698  1.00  0.00    -0.025 A 
HETATM    2  C12 UNL     1     -17.620  18.051  16.352  1.00  0.00     0.033 A 
HETATM    3  C13 UNL     1     -18.662  17.599  15.564  1.00  0.00     0.034 A 
HETATM    4 CL1  UNL     1     -18.362  17.391  13.850  1.00  0.00    -0.084 Cl
HETATM    5  C14 UNL     1     -19.872  17.334  16.143  1.00  0.00     0.024 A 
HETATM    6  C15 UNL     1     -20.044  17.526  17.529  1.00  0.00     0.011 A 
HETATM    7  C16 UNL     1     -19.045  17.977  18.362  1.00  0.00    -0.031 A 
ENDROOT
BRANCH   1   8
HETATM    8  C10 UNL     1     -16.657  18.391  18.541  1.00  0.00     0.215 C 
BRANCH   8   9
HETATM    9  O1  UNL     1     -15.696  19.279  18.154  1.00  0.00    -0.346 OA
BRANCH   9  10
HETATM   10  C9  UNL     1     -15.186  20.454  18.323  1.00  0.00     0.078 A 
HETATM   11  C7  UNL     1     -14.490  21.058  17.281  1.00  0.00    -0.026 A 
HETATM   12  C6  UNL     1     -13.929  22.310  17.430  1.00  0.00     0.041 A 
HETATM   13  C8  UNL     1     -14.322  20.387  15.966  1.00  0.00     0.051 C 
HETATM   14  C5  UNL     1     -14.038  23.012  18.619  1.00  0.00     0.068 A 
HETATM   15  C32 UNL     1     -14.724  22.432  19.664  1.00  0.00     0.145 A 
HETATM   16  C31 UNL     1     -15.269  21.185  19.478  1.00  0.00     0.082 A 
HETATM   17  F2  UNL     1     -14.864  23.064  20.844  1.00  0.00    -0.204 F 
BRANCH  14  18
HETATM   18  N3  UNL     1     -13.459  24.291  18.814  1.00  0.00    -0.380 N 
ATOM     19  H3  UNL     1     -13.991  25.102  18.497  1.00  0.00     0.160 HD
BRANCH  18  20
HETATM   20  C4  UNL     1     -12.171  24.536  19.429  1.00  0.00     0.206 C 
BRANCH  20  21
HETATM   21  C3  UNL     1     -11.404  25.488  18.550  1.00  0.00     0.158 A 
HETATM   22  N2  UNL     1     -10.544  25.083  17.584  1.00  0.00    -0.280 N 
HETATM   23  N1  UNL     1     -10.051  26.158  17.011  1.00  0.00    -0.282 N 
ATOM     24  H2  UNL     1     -10.319  24.117  17.345  1.00  0.00     0.189 HD
HETATM   25  C2  UNL     1     -10.599  27.231  17.615  1.00  0.00     0.136 A 
ATOM     26  H1  UNL     1      -9.375  26.177  16.247  1.00  0.00     0.189 HD
HETATM   27  C1  UNL     1     -10.252  28.624  17.203  1.00  0.00     0.099 C 
HETATM   28  O2  UNL     1     -11.408  26.791  18.536  1.00  0.00    -0.281 OA
ENDBRANCH  20  21
ENDBRANCH  18  20
ENDBRANCH  14  18
ENDBRANCH   9  10
ENDBRANCH   8   9
ENDBRANCH   1   8
BRANCH   7  29
HETATM   29  C17 UNL     1     -19.379  18.438  19.711  1.00  0.00     0.075 C 
HETATM   30  C18 UNL     1     -18.624  18.173  20.885  1.00  0.00     0.032 C 
BRANCH  29  31
HETATM   31  C19 UNL     1     -20.682  17.678  19.996  1.00  0.00     0.107 C 
HETATM   32  N4  UNL     1     -20.384  16.782  21.006  1.00  0.00    -0.086 NA
HETATM   33  N5  UNL     1     -21.973  17.633  19.685  1.00  0.00    -0.376 N 
HETATM   34  C20 UNL     1     -22.839  18.803  19.721  1.00  0.00     0.150 C 
BRANCH  33  35
HETATM   35  C21 UNL     1     -22.717  16.415  19.433  1.00  0.00     0.128 C 
BRANCH  35  36
HETATM   36  C22 UNL     1     -23.267  16.105  18.119  1.00  0.00     0.003 C 
HETATM   37  C23 UNL     1     -22.507  15.167  17.225  1.00  0.00     0.006 C 
HETATM   38  C24 UNL     1     -23.030  15.353  15.802  1.00  0.00     0.000 C 
HETATM   39  C25 UNL     1     -24.135  16.345  15.688  1.00  0.00     0.000 C 
HETATM   40  C26 UNL     1     -25.244  16.203  16.680  1.00  0.00     0.000 C 
HETATM   41  C27 UNL     1     -24.720  15.747  18.030  1.00  0.00     0.006 C 
ENDBRANCH  35  36
ENDBRANCH  33  35
ENDBRANCH  29  31
BRANCH  29  42
HETATM   42  C28 UNL     1     -19.781  19.908  19.594  1.00  0.00     0.114 C 
HETATM   43  C29 UNL     1     -18.701  20.907  19.259  1.00  0.00     0.053 C 
HETATM   44  C30 UNL     1     -20.163  20.462  21.003  1.00  0.00     0.053 C 
HETATM   45  F1  UNL     1     -20.809  20.161  18.776  1.00  0.00    -0.242 F 
ENDBRANCH  29  42
ENDBRANCH   7  29
TORSDOF 11
ENDMDL
MODEL 2
REMARK VINA RESULT: -8.609668258      3.031     11.186
REMARK  11 active torsions:
REMARK  status: ('A' for Active; 'I' for Inactive)
REMARK    1  A    between atoms: C3_7  and  C4_8 
REMARK    2  A    between atoms: C4_8  and  N3_9 
REMARK    3  A    between atoms: N3_9  and  C5_11 
REMARK    4  A    between atoms: C9_15  and  O1_16 
REMARK    5  A    between atoms: O1_16  and  C10_17 
REMARK    6  A    between atoms: C10_17  and  C11_18 
REMARK    7  A    between atoms: C16_24  and  C17_25 
REMARK    8  A    between atoms: C17_25  and  C19_27 
REMARK    9  A    between atoms: C17_25  and  C28_38 
REMARK   10  A    between atoms: N5_29  and  C21_31 
REMARK   11  A    between atoms: C21_31  and  C22_32 
ROOT
HETATM    1  C11 UNL     1     -14.473  21.219  17.996  1.00  0.00    -0.025 A 
HETATM    2  C12 UNL     1     -14.884  21.806  19.169  1.00  0.00     0.033 A 
HETATM    3  C13 UNL     1     -14.423  23.076  19.463  1.00  0.00     0.034 A 
HETATM    4 CL1  UNL     1     -14.953  23.812  20.963  1.00  0.00    -0.084 Cl
HETATM    5  C14 UNL     1     -13.581  23.701  18.586  1.00  0.00     0.024 A 
HETATM    6  C15 UNL     1     -13.197  23.051  17.397  1.00  0.00     0.011 A 
HETATM    7  C16 UNL     1     -13.626  21.790  17.049  1.00  0.00    -0.031 A 
ENDROOT
BRANCH   1   8
HETATM    8  C10 UNL     1     -14.722  19.780  17.865  1.00  0.00     0.215 C 
BRANCH   8   9
HETATM    9  O1  UNL     1     -15.922  19.276  18.274  1.00  0.00    -0.346 OA
BRANCH   9  10
HETATM   10  C9  UNL     1     -17.104  18.892  17.922  1.00  0.00     0.078 A 
HETATM   11  C7  UNL     1     -18.202  19.238  18.703  1.00  0.00    -0.026 A 
HETATM   12  C6  UNL     1     -19.477  18.839  18.358  1.00  0.00     0.041 A 
HETATM   13  C8  UNL     1     -18.051  20.051  19.937  1.00  0.00     0.051 C 
HETATM   14  C5  UNL     1     -19.713  18.082  17.222  1.00  0.00     0.068 A 
HETATM   15  C32 UNL     1     -18.639  17.728  16.434  1.00  0.00     0.145 A 
HETATM   16  C31 UNL     1     -17.385  18.143  16.810  1.00  0.00     0.082 A 
HETATM   17  F2  UNL     1     -18.804  16.993  15.319  1.00  0.00    -0.204 F 
BRANCH  14  18
HETATM   18  N3  UNL     1     -21.005  17.639  16.847  1.00  0.00    -0.380 N 
ATOM     19  H3  UNL     1     -21.573  18.271  16.281  1.00  0.00     0.160 HD
BRANCH  18  20
HETATM   20  C4  UNL     1     -21.583  16.360  17.204  1.00  0.00     0.206 C 
BRANCH  20  21
HETATM   21  C3  UNL     1     -21.585  16.248  18.706  1.00  0.00     0.158 A 
HETATM   22  N2  UNL     1     -21.019  15.216  19.378  1.00  0.00    -0.280 N 
HETATM   23  N1  UNL     1     -21.198  15.429  20.662  1.00  0.00    -0.282 N 
ATOM     24  H2  UNL     1     -20.541  14.417  18.961  1.00  0.00     0.189 HD
HETATM   25  C2  UNL     1     -21.872  16.588  20.794  1.00  0.00     0.136 A 
ATOM     26  H1  UNL     1     -20.883  14.826  21.422  1.00  0.00     0.189 HD
HETATM   27  C1  UNL     1     -22.244  17.129  22.136  1.00  0.00     0.099 C 
HETATM   28  O2  UNL     1     -22.089  17.053  19.597  1.00  0.00    -0.281 OA
ENDBRANCH  20  21
ENDBRANCH  18  20
ENDBRANCH  14  18
ENDBRANCH   9  10
ENDBRANCH   8   9
ENDBRANCH   1   8
BRANCH   7  29
HETATM   29  C17 UNL     1     -13.435  21.311  15.678  1.00  0.00     0.075 C 
HETATM   30  C18 UNL     1     -12.944  20.029  15.312  1.00  0.00     0.032 C 
BRANCH  29  31
HETATM   31  C19 UNL     1     -12.320  22.234  15.169  1.00  0.00     0.107 C 
HETATM   32  N4  UNL     1     -11.254  21.407  14.867  1.00  0.00    -0.086 NA
HETATM   33  N5  UNL     1     -12.050  23.495  14.847  1.00  0.00    -0.376 N 
HETATM   34  C20 UNL     1     -12.886  24.282  13.951  1.00  0.00     0.150 C 
BRANCH  33  35
HETATM   35  C21 UNL     1     -10.831  24.193  15.204  1.00  0.00     0.128 C 
BRANCH  35  36
HETATM   36  C22 UNL     1     -10.787  25.162  16.292  1.00  0.00     0.003 C 
HETATM   37  C23 UNL     1     -10.289  24.712  17.636  1.00  0.00     0.006 C 
HETATM   38  C24 UNL     1     -10.747  25.737  18.671  1.00  0.00     0.000 C 
HETATM   39  C25 UNL     1     -11.501  26.885  18.093  1.00  0.00     0.000 C 
HETATM   40  C26 UNL     1     -10.886  27.531  16.895  1.00  0.00     0.000 C 
HETATM   41  C27 UNL     1     -10.193  26.510  16.011  1.00  0.00     0.006 C 
ENDBRANCH  35  36
ENDBRANCH  33  35
ENDBRANCH  29  31
BRANCH  29  42
HETATM   42  C28 UNL     1     -14.684  21.706  14.890  1.00  0.00     0.114 C 
HETATM   43  C29 UNL     1     -15.901  20.821  15.009  1.00  0.00     0.053 C 
HETATM   44  C30 UNL     1     -14.423  21.514  13.363  1.00  0.00     0.053 C 
HETATM   45  F1  UNL     1     -15.103  22.965  15.066  1.00  0.00    -0.242 F 
ENDBRANCH  29  42
ENDBRANCH   7  29
TORSDOF 11
ENDMDL
MODEL 3
REMARK VINA RESULT: -8.604423519      1.487      1.937
REMARK  11 active torsions:
REMARK  status: ('A' for Active; 'I' for Inactive)
REMARK    1  A    between atoms: C3_7  and  C4_8 
REMARK    2  A    between atoms: C4_8  and  N3_9 
REMARK    3  A    between atoms: N3_9  and  C5_11 
REMARK    4  A    between atoms: C9_15  and  O1_16 
REMARK    5  A    between atoms: O1_16  and  C10_17 
REMARK    6  A    between atoms: C10_17  and  C11_18 
REMARK    7  A    between atoms: C16_24  and  C17_25 
REMARK    8  A    between atoms: C17_25  and  C19_27 
REMARK    9  A    between atoms: C17_25  and  C28_38 
REMARK   10  A    between atoms: N5_29  and  C21_31 
REMARK   11  A    between atoms: C21_31  and  C22_32 
ROOT
HETATM    1  C11 UNL     1     -17.913  18.051  17.431  1.00  0.00    -0.025 A 
HETATM    2  C12 UNL     1     -17.735  17.906  16.075  1.00  0.00     0.033 A 
HETATM    3  C13 UNL     1     -18.836  17.594  15.299  1.00  0.00     0.034 A 
HETATM    4 CL1  UNL     1     -18.595  17.409  13.573  1.00  0.00    -0.084 Cl
HETATM    5  C14 UNL     1     -20.056  17.443  15.899  1.00  0.00     0.024 A 
HETATM    6  C15 UNL     1     -20.178  17.608  17.293  1.00  0.00     0.011 A 
HETATM    7  C16 UNL     1     -19.119  17.921  18.115  1.00  0.00    -0.031 A 
ENDROOT
BRANCH   1   8
HETATM    8  C10 UNL     1     -16.697  18.069  18.249  1.00  0.00     0.215 C 
BRANCH   8   9
HETATM    9  O1  UNL     1     -16.043  19.252  18.436  1.00  0.00    -0.346 OA
BRANCH   9  10
HETATM   10  C9  UNL     1     -15.309  20.172  17.902  1.00  0.00     0.078 A 
HETATM   11  C7  UNL     1     -14.923  21.272  18.662  1.00  0.00    -0.026 A 
HETATM   12  C6  UNL     1     -14.143  22.274  18.121  1.00  0.00     0.041 A 
HETATM   13  C8  UNL     1     -15.328  21.414  20.084  1.00  0.00     0.051 C 
HETATM   14  C5  UNL     1     -13.716  22.223  16.804  1.00  0.00     0.068 A 
HETATM   15  C32 UNL     1     -14.088  21.143  16.034  1.00  0.00     0.145 A 
HETATM   16  C31 UNL     1     -14.863  20.165  16.608  1.00  0.00     0.082 A 
HETATM   17  F2  UNL     1     -13.704  21.037  14.748  1.00  0.00    -0.204 F 
BRANCH  14  18
HETATM   18  N3  UNL     1     -12.932  23.242  16.210  1.00  0.00    -0.380 N 
ATOM     19  H3  UNL     1     -13.398  23.877  15.561  1.00  0.00     0.160 HD
BRANCH  18  20
HETATM   20  C4  UNL     1     -11.519  23.453  16.451  1.00  0.00     0.206 C 
BRANCH  20  21
HETATM   21  C3  UNL     1     -11.377  24.391  17.621  1.00  0.00     0.158 A 
HETATM   22  N2  UNL     1     -10.481  25.407  17.657  1.00  0.00    -0.280 N 
HETATM   23  N1  UNL     1     -10.622  26.024  18.810  1.00  0.00    -0.282 N 
ATOM     24  H2  UNL     1      -9.817  25.651  16.922  1.00  0.00     0.189 HD
HETATM   25  C2  UNL     1     -11.600  25.396  19.491  1.00  0.00     0.136 A 
ATOM     26  H1  UNL     1     -10.086  26.831  19.130  1.00  0.00     0.189 HD
HETATM   27  C1  UNL     1     -12.016  25.845  20.854  1.00  0.00     0.099 C 
HETATM   28  O2  UNL     1     -12.032  24.419  18.747  1.00  0.00    -0.281 OA
ENDBRANCH  20  21
ENDBRANCH  18  20
ENDBRANCH  14  18
ENDBRANCH   9  10
ENDBRANCH   8   9
ENDBRANCH   1   8
BRANCH   7  29
HETATM   29  C17 UNL     1     -19.374  18.372  19.485  1.00  0.00     0.075 C 
HETATM   30  C18 UNL     1     -18.559  18.087  20.613  1.00  0.00     0.032 C 
BRANCH  29  31
HETATM   31  C19 UNL     1     -20.667  17.624  19.834  1.00  0.00     0.107 C 
HETATM   32  N4  UNL     1     -20.329  16.728  20.830  1.00  0.00    -0.086 NA
HETATM   33  N5  UNL     1     -21.972  17.589  19.585  1.00  0.00    -0.376 N 
HETATM   34  C20 UNL     1     -22.826  18.767  19.658  1.00  0.00     0.150 C 
BRANCH  33  35
HETATM   35  C21 UNL     1     -22.738  16.377  19.371  1.00  0.00     0.128 C 
BRANCH  35  36
HETATM   36  C22 UNL     1     -23.380  16.084  18.096  1.00  0.00     0.003 C 
HETATM   37  C23 UNL     1     -22.663  15.199  17.116  1.00  0.00     0.006 C 
HETATM   38  C24 UNL     1     -23.304  15.406  15.745  1.00  0.00     0.000 C 
HETATM   39  C25 UNL     1     -24.447  16.361  15.749  1.00  0.00     0.000 C 
HETATM   40  C26 UNL     1     -25.467  16.152  16.820  1.00  0.00     0.000 C 
HETATM   41  C27 UNL     1     -24.823  15.678  18.110  1.00  0.00     0.006 C 
ENDBRANCH  35  36
ENDBRANCH  33  35
ENDBRANCH  29  31
BRANCH  29  42
HETATM   42  C28 UNL     1     -19.764  19.848  19.404  1.00  0.00     0.114 C 
HETATM   43  C29 UNL     1     -18.702  20.834  18.984  1.00  0.00     0.053 C 
HETATM   44  C30 UNL     1     -20.022  20.402  20.840  1.00  0.00     0.053 C 
HETATM   45  F1  UNL     1     -20.852  20.117  18.673  1.00  0.00    -0.242 F 
ENDBRANCH  29  42
ENDBRANCH   7  29
TORSDOF 11
ENDMDL
MODEL 4
REMARK VINA RESULT: -8.534547589      3.920      7.315
REMARK  11 active torsions:
REMARK  status: ('A' for Active; 'I' for Inactive)
REMARK    1  A    between atoms: C3_7  and  C4_8 
REMARK    2  A    between atoms: C4_8  and  N3_9 
REMARK    3  A    between atoms: N3_9  and  C5_11 
REMARK    4  A    between atoms: C9_15  and  O1_16 
REMARK    5  A    between atoms: O1_16  and  C10_17 
REMARK    6  A    between atoms: C10_17  and  C11_18 
REMARK    7  A    between atoms: C16_24  and  C17_25 
REMARK    8  A    between atoms: C17_25  and  C19_27 
REMARK    9  A    between atoms: C17_25  and  C28_38 
REMARK   10  A    between atoms: N5_29  and  C21_31 
REMARK   11  A    between atoms: C21_31  and  C22_32 
ROOT
HETATM    1  C11 UNL     1     -23.444  15.801  17.038  1.00  0.00    -0.025 A 
HETATM    2  C12 UNL     1     -22.418  15.975  17.937  1.00  0.00     0.033 A 
HETATM    3  C13 UNL     1     -22.734  16.361  19.226  1.00  0.00     0.034 A 
HETATM    4 CL1  UNL     1     -21.416  16.582  20.361  1.00  0.00    -0.084 Cl
HETATM    5  C14 UNL     1     -24.045  16.555  19.564  1.00  0.00     0.024 A 
HETATM    6  C15 UNL     1     -25.054  16.357  18.601  1.00  0.00     0.011 A 
HETATM    7  C16 UNL     1     -24.800  15.970  17.304  1.00  0.00    -0.031 A 
ENDROOT
BRANCH   1   8
HETATM    8  C10 UNL     1     -23.063  15.701  15.626  1.00  0.00     0.215 C 
BRANCH   8   9
HETATM    9  O1  UNL     1     -22.055  16.490  15.154  1.00  0.00    -0.346 OA
BRANCH   9  10
HETATM   10  C9  UNL     1     -20.862  16.945  15.352  1.00  0.00     0.078 A 
HETATM   11  C7  UNL     1     -19.824  16.543  14.517  1.00  0.00    -0.026 A 
HETATM   12  C6  UNL     1     -18.538  17.006  14.704  1.00  0.00     0.041 A 
HETATM   13  C8  UNL     1     -20.054  15.604  13.389  1.00  0.00     0.051 C 
HETATM   14  C5  UNL     1     -18.231  17.888  15.729  1.00  0.00     0.068 A 
HETATM   15  C32 UNL     1     -19.244  18.298  16.567  1.00  0.00     0.145 A 
HETATM   16  C31 UNL     1     -20.512  17.816  16.349  1.00  0.00     0.082 A 
HETATM   17  F2  UNL     1     -19.009  19.153  17.580  1.00  0.00    -0.204 F 
BRANCH  14  18
HETATM   18  N3  UNL     1     -16.919  18.369  15.963  1.00  0.00    -0.380 N 
ATOM     19  H3  UNL     1     -16.216  17.693  16.261  1.00  0.00     0.160 HD
BRANCH  18  20
HETATM   20  C4  UNL     1     -16.499  19.747  15.812  1.00  0.00     0.206 C 
BRANCH  20  21
HETATM   21  C3  UNL     1     -15.887  20.197  17.112  1.00  0.00     0.158 A 
HETATM   22  N2  UNL     1     -15.110  19.400  17.885  1.00  0.00    -0.280 N 
HETATM   23  N1  UNL     1     -14.743  20.098  18.937  1.00  0.00    -0.282 N 
ATOM     24  H2  UNL     1     -14.855  18.433  17.687  1.00  0.00     0.189 HD
HETATM   25  C2  UNL     1     -15.288  21.325  18.823  1.00  0.00     0.136 A 
ATOM     26  H1  UNL     1     -14.153  19.770  19.702  1.00  0.00     0.189 HD
HETATM   27  C1  UNL     1     -15.070  22.378  19.860  1.00  0.00     0.099 C 
HETATM   28  O2  UNL     1     -15.970  21.349  17.714  1.00  0.00    -0.281 OA
ENDBRANCH  20  21
ENDBRANCH  18  20
ENDBRANCH  14  18
ENDBRANCH   9  10
ENDBRANCH   8   9
ENDBRANCH   1   8
BRANCH   7  29
HETATM   29  C17 UNL     1     -25.899  15.494  16.461  1.00  0.00     0.075 C 
HETATM   30  C18 UNL     1     -25.967  15.614  15.047  1.00  0.00     0.032 C 
BRANCH  29  31
HETATM   31  C19 UNL     1     -27.060  16.392  16.910  1.00  0.00     0.107 C 
HETATM   32  N4  UNL     1     -27.419  17.130  15.798  1.00  0.00    -0.086 NA
HETATM   33  N5  UNL     1     -27.871  16.646  17.932  1.00  0.00    -0.376 N 
HETATM   34  C20 UNL     1     -28.619  15.609  18.628  1.00  0.00     0.150 C 
BRANCH  33  35
HETATM   35  C21 UNL     1     -28.240  17.974  18.380  1.00  0.00     0.128 C 
BRANCH  35  36
HETATM   36  C22 UNL     1     -27.404  18.740  19.296  1.00  0.00     0.003 C 
HETATM   37  C23 UNL     1     -26.395  19.693  18.722  1.00  0.00     0.006 C 
HETATM   38  C24 UNL     1     -25.383  20.017  19.820  1.00  0.00     0.000 C 
HETATM   39  C25 UNL     1     -25.674  19.361  21.125  1.00  0.00     0.000 C 
HETATM   40  C26 UNL     1     -27.084  19.471  21.609  1.00  0.00     0.000 C 
HETATM   41  C27 UNL     1     -28.069  19.419  20.456  1.00  0.00     0.006 C 
ENDBRANCH  35  36
ENDBRANCH  33  35
ENDBRANCH  29  31
BRANCH  29  42
HETATM   42  C28 UNL     1     -26.258  14.089  16.946  1.00  0.00     0.114 C 
HETATM   43  C29 UNL     1     -25.413  12.939  16.456  1.00  0.00     0.053 C 
HETATM   44  C30 UNL     1     -27.616  13.648  16.317  1.00  0.00     0.053 C 
HETATM   45  F1  UNL     1     -26.371  13.949  18.273  1.00  0.00    -0.242 F 
ENDBRANCH  29  42
ENDBRANCH   7  29
TORSDOF 11
ENDMDL
MODEL 5
REMARK VINA RESULT: -8.524248877      1.350      1.951
REMARK  11 active torsions:
REMARK  status: ('A' for Active; 'I' for Inactive)
REMARK    1  A    between atoms: C3_7  and  C4_8 
REMARK    2  A    between atoms: C4_8  and  N3_9 
REMARK    3  A    between atoms: N3_9  and  C5_11 
REMARK    4  A    between atoms: C9_15  and  O1_16 
REMARK    5  A    between atoms: O1_16  and  C10_17 
REMARK    6  A    between atoms: C10_17  and  C11_18 
REMARK    7  A    between atoms: C16_24  and  C17_25 
REMARK    8  A    between atoms: C17_25  and  C19_27 
REMARK    9  A    between atoms: C17_25  and  C28_38 
REMARK   10  A    between atoms: N5_29  and  C21_31 
REMARK   11  A    between atoms: C21_31  and  C22_32 
ROOT
HETATM    1  C11 UNL     1     -18.053  18.080  17.579  1.00  0.00    -0.025 A 
HETATM    2  C12 UNL     1     -17.819  17.989  16.228  1.00  0.00     0.033 A 
HETATM    3  C13 UNL     1     -18.861  17.600  15.406  1.00  0.00     0.034 A 
HETATM    4 CL1  UNL     1     -18.548  17.485  13.685  1.00  0.00    -0.084 Cl
HETATM    5  C14 UNL     1     -20.080  17.322  15.959  1.00  0.00     0.024 A 
HETATM    6  C15 UNL     1     -20.262  17.437  17.352  1.00  0.00     0.011 A 
HETATM    7  C16 UNL     1     -19.264  17.823  18.218  1.00  0.00    -0.031 A 
ENDROOT
BRANCH   1   8
HETATM    8  C10 UNL     1     -16.871  18.187  18.440  1.00  0.00     0.215 C 
BRANCH   8   9
HETATM    9  O1  UNL     1     -15.882  19.064  18.100  1.00  0.00    -0.346 OA
BRANCH   9  10
HETATM   10  C9  UNL     1     -15.389  20.247  18.265  1.00  0.00     0.078 A 
HETATM   11  C7  UNL     1     -14.697  20.855  17.223  1.00  0.00    -0.026 A 
HETATM   12  C6  UNL     1     -14.154  22.116  17.367  1.00  0.00     0.041 A 
HETATM   13  C8  UNL     1     -14.514  20.179  15.913  1.00  0.00     0.051 C 
HETATM   14  C5  UNL     1     -14.278  22.822  18.552  1.00  0.00     0.068 A 
HETATM   15  C32 UNL     1     -14.960  22.238  19.597  1.00  0.00     0.145 A 
HETATM   16  C31 UNL     1     -15.487  20.982  19.416  1.00  0.00     0.082 A 
HETATM   17  F2  UNL     1     -15.114  22.875  20.773  1.00  0.00    -0.204 F 
BRANCH  14  18
HETATM   18  N3  UNL     1     -13.718  24.110  18.743  1.00  0.00    -0.380 N 
ATOM     19  H3  UNL     1     -14.202  24.901  18.317  1.00  0.00     0.160 HD
BRANCH  18  20
HETATM   20  C4  UNL     1     -12.512  24.390  19.495  1.00  0.00     0.206 C 
BRANCH  20  21
HETATM   21  C3  UNL     1     -11.648  25.309  18.672  1.00  0.00     0.158 A 
HETATM   22  N2  UNL     1     -10.780  24.870  17.729  1.00  0.00    -0.280 N 
HETATM   23  N1  UNL     1     -10.192  25.923  17.205  1.00  0.00    -0.282 N 
ATOM     24  H2  UNL     1     -10.611  23.898  17.472  1.00  0.00     0.189 HD
HETATM   25  C2  UNL     1     -10.690  27.015  17.817  1.00  0.00     0.136 A 
ATOM     26  H1  UNL     1      -9.487  25.915  16.469  1.00  0.00     0.189 HD
HETATM   27  C1  UNL     1     -10.233  28.391  17.458  1.00  0.00     0.099 C 
HETATM   28  O2  UNL     1     -11.564  26.609  18.694  1.00  0.00    -0.281 OA
ENDBRANCH  20  21
ENDBRANCH  18  20
ENDBRANCH  14  18
ENDBRANCH   9  10
ENDBRANCH   8   9
ENDBRANCH   1   8
BRANCH   7  29
HETATM   29  C17 UNL     1     -19.603  18.211  19.589  1.00  0.00     0.075 C 
HETATM   30  C18 UNL     1     -18.848  17.889  20.749  1.00  0.00     0.032 C 
BRANCH  29  31
HETATM   31  C19 UNL     1     -20.902  17.431  19.831  1.00  0.00     0.107 C 
HETATM   32  N4  UNL     1     -20.712  16.191  19.251  1.00  0.00    -0.086 NA
HETATM   33  N5  UNL     1     -22.076  17.492  20.451  1.00  0.00    -0.376 N 
HETATM   34  C20 UNL     1     -22.213  17.838  21.859  1.00  0.00     0.150 C 
BRANCH  33  35
HETATM   35  C21 UNL     1     -23.336  17.076  19.870  1.00  0.00     0.128 C 
BRANCH  35  36
HETATM   36  C22 UNL     1     -24.508  17.942  19.864  1.00  0.00     0.003 C 
HETATM   37  C23 UNL     1     -25.708  17.534  20.670  1.00  0.00     0.006 C 
HETATM   38  C24 UNL     1     -26.906  18.333  20.160  1.00  0.00     0.000 C 
HETATM   39  C25 UNL     1     -26.574  19.294  19.072  1.00  0.00     0.000 C 
HETATM   40  C26 UNL     1     -25.380  20.160  19.310  1.00  0.00     0.000 C 
HETATM   41  C27 UNL     1     -24.298  19.413  20.068  1.00  0.00     0.006 C 
ENDBRANCH  35  36
ENDBRANCH  33  35
ENDBRANCH  29  31
BRANCH  29  42
HETATM   42  C28 UNL     1     -20.012  19.684  19.547  1.00  0.00     0.114 C 
HETATM   43  C29 UNL     1     -19.097  20.648  18.833  1.00  0.00     0.053 C 
HETATM   44  C30 UNL     1     -19.904  20.299  20.978  1.00  0.00     0.053 C 
HETATM   45  F1  UNL     1     -21.251  19.925  19.103  1.00  0.00    -0.242 F 
ENDBRANCH  29  42
ENDBRANCH   7  29
TORSDOF 11
ENDMDL
