MODEL 1
REMARK VINA RESULT: -9.152785848      0.000      0.000
REMARK  1 active torsions:
REMARK  status: ('A' for Active; 'I' for Inactive)
REMARK    1  A    between atoms: C4_5  and  C5_6 
ROOT
HETATM    1  C1  UNL     1      73.521  -2.316 -19.597  1.00  0.00     0.154 C 
HETATM    2  N1  UNL     1      72.260  -2.297 -20.299  1.00  0.00    -0.368 N 
HETATM    3  C2  UNL     1      71.485  -3.349 -20.155  1.00  0.00     0.119 C 
HETATM    4  C3  UNL     1      70.144  -3.554 -20.779  1.00  0.00     0.056 C 
HETATM    5  C4  UNL     1      69.313  -4.227 -20.093  1.00  0.00     0.050 C 
HETATM    6  N2  UNL     1      69.873  -3.072 -22.087  1.00  0.00    -0.321 N 
HETATM    7  C13 UNL     1      69.124  -3.736 -22.959  1.00  0.00     0.097 A 
HETATM    8  C14 UNL     1      69.066  -2.988 -24.126  1.00  0.00     0.020 A 
HETATM    9  C15 UNL     1      69.809  -1.843 -23.939  1.00  0.00     0.031 A 
HETATM   10  C16 UNL     1      70.308  -1.910 -22.658  1.00  0.00     0.040 A 
HETATM   11  C17 UNL     1      71.194  -0.904 -22.086  1.00  0.00     0.047 C 
HETATM   12  C18 UNL     1      72.028  -1.110 -21.061  1.00  0.00     0.092 C 
ENDROOT
BRANCH   5  13
HETATM   13  C5  UNL     1      67.936  -4.598 -20.375  1.00  0.00     0.008 A 
HETATM   14  C6  UNL     1      67.471  -5.794 -20.869  1.00  0.00     0.031 A 
HETATM   15  C7  UNL     1      66.139  -5.929 -20.989  1.00  0.00    -0.018 A 
HETATM   16  C8  UNL     1      65.445  -7.057 -21.470  1.00  0.00     0.013 A 
HETATM   17  C12 UNL     1      65.359  -4.879 -20.616  1.00  0.00     0.015 A 
HETATM   18  C9  UNL     1      64.095  -7.071 -21.547  1.00  0.00     0.001 A 
HETATM   19  C10 UNL     1      63.304  -6.019 -21.172  1.00  0.00     0.001 A 
HETATM   20  C11 UNL     1      63.961  -4.900 -20.697  1.00  0.00     0.019 A 
HETATM   21  S1  UNL     1      66.500  -3.722 -20.102  1.00  0.00    -0.090 SA
ENDBRANCH   5  13
TORSDOF 1
ENDMDL
MODEL 2
REMARK VINA RESULT: -8.786088455      2.407      6.875
REMARK  1 active torsions:
REMARK  status: ('A' for Active; 'I' for Inactive)
REMARK    1  A    between atoms: C4_5  and  C5_6 
ROOT
HETATM    1  C1  UNL     1      63.714  -6.596 -21.373  1.00  0.00     0.154 C 
HETATM    2  N1  UNL     1      64.547  -5.419 -21.307  1.00  0.00    -0.368 N 
HETATM    3  C2  UNL     1      65.803  -5.600 -20.965  1.00  0.00     0.119 C 
HETATM    4  C3  UNL     1      66.847  -4.540 -20.830  1.00  0.00     0.056 C 
HETATM    5  C4  UNL     1      68.032  -4.892 -21.126  1.00  0.00     0.050 C 
HETATM    6  N2  UNL     1      66.511  -3.253 -20.334  1.00  0.00    -0.321 N 
HETATM    7  C13 UNL     1      67.314  -2.555 -19.540  1.00  0.00     0.097 A 
HETATM    8  C14 UNL     1      66.683  -1.354 -19.247  1.00  0.00     0.020 A 
HETATM    9  C15 UNL     1      65.463  -1.343 -19.887  1.00  0.00     0.031 A 
HETATM   10  C16 UNL     1      65.369  -2.539 -20.563  1.00  0.00     0.040 A 
HETATM   11  C17 UNL     1      64.198  -2.939 -21.330  1.00  0.00     0.047 C 
HETATM   12  C18 UNL     1      63.874  -4.202 -21.634  1.00  0.00     0.092 C 
ENDROOT
BRANCH   5  13
HETATM   13  C5  UNL     1      69.269  -4.130 -21.129  1.00  0.00     0.008 A 
HETATM   14  C6  UNL     1      70.245  -4.106 -20.160  1.00  0.00     0.031 A 
HETATM   15  C7  UNL     1      71.340  -3.369 -20.413  1.00  0.00    -0.018 A 
HETATM   16  C8  UNL     1      72.456  -3.197 -19.570  1.00  0.00     0.013 A 
HETATM   17  C12 UNL     1      71.399  -2.708 -21.601  1.00  0.00     0.015 A 
HETATM   18  C9  UNL     1      73.502  -2.424 -19.938  1.00  0.00     0.001 A 
HETATM   19  C10 UNL     1      73.569  -1.756 -21.132  1.00  0.00     0.001 A 
HETATM   20  C11 UNL     1      72.485  -1.908 -21.976  1.00  0.00     0.019 A 
HETATM   21  S1  UNL     1      69.924  -3.128 -22.343  1.00  0.00    -0.090 SA
ENDBRANCH   5  13
TORSDOF 1
ENDMDL
MODEL 3
REMARK VINA RESULT: -8.647335310      2.419      6.970
REMARK  1 active torsions:
REMARK  status: ('A' for Active; 'I' for Inactive)
REMARK    1  A    between atoms: C4_5  and  C5_6 
ROOT
HETATM    1  C1  UNL     1      64.061  -7.081 -21.578  1.00  0.00     0.154 C 
HETATM    2  N1  UNL     1      64.659  -5.770 -21.652  1.00  0.00    -0.368 N 
HETATM    3  C2  UNL     1      65.972  -5.716 -21.641  1.00  0.00     0.119 C 
HETATM    4  C3  UNL     1      66.810  -4.481 -21.707  1.00  0.00     0.056 C 
HETATM    5  C4  UNL     1      67.924  -4.601 -22.306  1.00  0.00     0.050 C 
HETATM    6  N2  UNL     1      66.385  -3.284 -21.070  1.00  0.00    -0.321 N 
HETATM    7  C13 UNL     1      67.225  -2.457 -20.460  1.00  0.00     0.097 A 
HETATM    8  C14 UNL     1      66.485  -1.399 -19.952  1.00  0.00     0.020 A 
HETATM    9  C15 UNL     1      65.161  -1.610 -20.269  1.00  0.00     0.031 A 
HETATM   10  C16 UNL     1      65.114  -2.795 -20.970  1.00  0.00     0.040 A 
HETATM   11  C17 UNL     1      63.878  -3.400 -21.446  1.00  0.00     0.047 C 
HETATM   12  C18 UNL     1      63.719  -4.697 -21.732  1.00  0.00     0.092 C 
ENDROOT
BRANCH   5  13
HETATM   13  C5  UNL     1      68.964  -3.621 -22.570  1.00  0.00     0.008 A 
HETATM   14  C6  UNL     1      68.969  -2.637 -23.532  1.00  0.00     0.031 A 
HETATM   15  C7  UNL     1      70.022  -1.801 -23.545  1.00  0.00    -0.018 A 
HETATM   16  C8  UNL     1      70.238  -0.730 -24.435  1.00  0.00     0.013 A 
HETATM   17  C12 UNL     1      70.994  -1.991 -22.612  1.00  0.00     0.015 A 
HETATM   18  C9  UNL     1      71.344   0.042 -24.348  1.00  0.00     0.001 A 
HETATM   19  C10 UNL     1      72.326  -0.142 -23.412  1.00  0.00     0.001 A 
HETATM   20  C11 UNL     1      72.137  -1.187 -22.528  1.00  0.00     0.019 A 
HETATM   21  S1  UNL     1      70.421  -3.333 -21.733  1.00  0.00    -0.090 SA
ENDBRANCH   5  13
TORSDOF 1
ENDMDL
MODEL 4
REMARK VINA RESULT: -8.552069265      2.266      6.940
REMARK  1 active torsions:
REMARK  status: ('A' for Active; 'I' for Inactive)
REMARK    1  A    between atoms: C4_5  and  C5_6 
ROOT
HETATM    1  C1  UNL     1      64.408  -7.434 -21.438  1.00  0.00     0.154 C 
HETATM    2  N1  UNL     1      64.988  -6.116 -21.333  1.00  0.00    -0.368 N 
HETATM    3  C2  UNL     1      66.298  -6.038 -21.402  1.00  0.00     0.119 C 
HETATM    4  C3  UNL     1      67.118  -4.792 -21.317  1.00  0.00     0.056 C 
HETATM    5  C4  UNL     1      68.189  -4.789 -22.001  1.00  0.00     0.050 C 
HETATM    6  N2  UNL     1      66.727  -3.725 -20.465  1.00  0.00    -0.321 N 
HETATM    7  C13 UNL     1      67.599  -2.992 -19.784  1.00  0.00     0.097 A 
HETATM    8  C14 UNL     1      66.886  -2.048 -19.060  1.00  0.00     0.020 A 
HETATM    9  C15 UNL     1      65.545  -2.231 -19.319  1.00  0.00     0.031 A 
HETATM   10  C16 UNL     1      65.462  -3.285 -20.201  1.00  0.00     0.040 A 
HETATM   11  C17 UNL     1      64.201  -3.829 -20.687  1.00  0.00     0.047 C 
HETATM   12  C18 UNL     1      64.034  -5.064 -21.172  1.00  0.00     0.092 C 
ENDROOT
BRANCH   5  13
HETATM   13  C5  UNL     1      69.199  -3.758 -22.168  1.00  0.00     0.008 A 
HETATM   14  C6  UNL     1      70.474  -3.736 -21.651  1.00  0.00     0.031 A 
HETATM   15  C7  UNL     1      71.256  -2.699 -21.995  1.00  0.00    -0.018 A 
HETATM   16  C8  UNL     1      72.584  -2.470 -21.586  1.00  0.00     0.013 A 
HETATM   17  C12 UNL     1      70.730  -1.756 -22.825  1.00  0.00     0.015 A 
HETATM   18  C9  UNL     1      73.270  -1.382 -22.001  1.00  0.00     0.001 A 
HETATM   19  C10 UNL     1      72.748  -0.430 -22.836  1.00  0.00     0.001 A 
HETATM   20  C11 UNL     1      71.446  -0.632 -23.252  1.00  0.00     0.019 A 
HETATM   21  S1  UNL     1      69.153  -2.337 -23.108  1.00  0.00    -0.090 SA
ENDBRANCH   5  13
TORSDOF 1
ENDMDL
MODEL 5
REMARK VINA RESULT: -8.460761925      0.972      1.615
REMARK  1 active torsions:
REMARK  status: ('A' for Active; 'I' for Inactive)
REMARK    1  A    between atoms: C4_5  and  C5_6 
ROOT
HETATM    1  C1  UNL     1      73.626  -2.601 -19.514  1.00  0.00     0.154 C 
HETATM    2  N1  UNL     1      72.387  -2.459 -20.241  1.00  0.00    -0.368 N 
HETATM    3  C2  UNL     1      71.473  -3.381 -20.042  1.00  0.00     0.119 C 
HETATM    4  C3  UNL     1      70.123  -3.445 -20.678  1.00  0.00     0.056 C 
HETATM    5  C4  UNL     1      69.199  -3.948 -19.964  1.00  0.00     0.050 C 
HETATM    6  N2  UNL     1      69.936  -3.024 -22.022  1.00  0.00    -0.321 N 
HETATM    7  C13 UNL     1      69.113  -3.640 -22.861  1.00  0.00     0.097 A 
HETATM    8  C14 UNL     1      69.171  -2.976 -24.078  1.00  0.00     0.020 A 
HETATM    9  C15 UNL     1      70.063  -1.932 -23.955  1.00  0.00     0.031 A 
HETATM   10  C16 UNL     1      70.534  -1.976 -22.661  1.00  0.00     0.040 A 
HETATM   11  C17 UNL     1      71.543  -1.063 -22.142  1.00  0.00     0.047 C 
HETATM   12  C18 UNL     1      72.329  -1.308 -21.088  1.00  0.00     0.092 C 
ENDROOT
BRANCH   5  13
HETATM   13  C5  UNL     1      67.788  -4.146 -20.249  1.00  0.00     0.008 A 
HETATM   14  C6  UNL     1      66.818  -3.183 -20.403  1.00  0.00     0.031 A 
HETATM   15  C7  UNL     1      65.584  -3.606 -20.728  1.00  0.00    -0.018 A 
HETATM   16  C8  UNL     1      64.443  -2.805 -20.932  1.00  0.00     0.013 A 
HETATM   17  C12 UNL     1      65.391  -4.945 -20.880  1.00  0.00     0.015 A 
HETATM   18  C9  UNL     1      63.249  -3.351 -21.255  1.00  0.00     0.001 A 
HETATM   19  C10 UNL     1      63.049  -4.696 -21.411  1.00  0.00     0.001 A 
HETATM   20  C11 UNL     1      64.153  -5.504 -21.216  1.00  0.00     0.019 A 
HETATM   21  S1  UNL     1      66.938  -5.588 -20.566  1.00  0.00    -0.090 SA
ENDBRANCH   5  13
TORSDOF 1
ENDMDL
