MODEL 1
REMARK VINA RESULT: -7.021094581      0.000      0.000
REMARK  11 active torsions:
REMARK  status: ('A' for Active; 'I' for Inactive)
REMARK    1  A    between atoms: C2_2  and  C3_3 
REMARK       I    between atoms: C3_3  and  N1_5 
REMARK    2  A    between atoms: C9_11  and  C10_12 
REMARK    3  A    between atoms: C9_11  and  C11_15 
REMARK    4  A    between atoms: C10_12  and  O2_13 
REMARK    5  A    between atoms: C11_15  and  O4_17 
REMARK    6  A    between atoms: O4_17  and  C12_18 
REMARK    7  A    between atoms: N2_20  and  C14_21 
REMARK    8  A    between atoms: C14_21  and  C15_23 
REMARK    9  A    between atoms: C15_23  and  S2_24 
REMARK   10  A    between atoms: S2_24  and  C16_25 
REMARK   11  A    between atoms: C16_25  and  N3_27 
ROOT
HETATM    1  C3  UNL     1       9.540  22.537  49.216  1.00  0.00     0.243 C 
HETATM    2  O1  UNL     1      10.449  23.415  49.430  1.00  0.00    -0.268 OA
HETATM    3  N1  UNL     1       9.885  21.447  48.408  1.00  0.00    -0.339 N 
HETATM    4  C4  UNL     1      11.214  21.336  47.848  1.00  0.00     0.152 C 
HETATM    5  C5  UNL     1      11.244  20.025  47.089  1.00  0.00     0.104 C 
HETATM    6  C6  UNL     1      10.189  20.032  46.017  1.00  0.00     0.029 C 
HETATM    7  C7  UNL     1       8.827  20.349  46.586  1.00  0.00     0.030 C 
HETATM    8  C8  UNL     1       8.964  20.391  48.089  1.00  0.00     0.128 C 
HETATM    9  C9  UNL     1       9.577  19.026  48.585  1.00  0.00     0.164 C 
HETATM   10  N2  UNL     1      10.901  18.966  48.080  1.00  0.00    -0.346 N 
ENDROOT
BRANCH  10  11
HETATM   11  C14 UNL     1      11.961  18.095  48.412  1.00  0.00     0.087 C 
HETATM   12  S1  UNL     1      13.266  18.801  49.178  1.00  0.00    -0.065 SA
BRANCH  11  13
HETATM   13  C15 UNL     1      12.056  16.660  48.215  1.00  0.00     0.151 C 
BRANCH  13  14
HETATM   14  S2  UNL     1      11.969  16.268  46.434  1.00  0.00    -0.094 SA
BRANCH  14  15
HETATM   15  C16 UNL     1      13.573  15.939  45.736  1.00  0.00     0.137 C 
HETATM   16  S3  UNL     1      14.802  15.554  46.770  1.00  0.00    -0.053 SA
BRANCH  15  17
HETATM   17  N3  UNL     1      13.828  16.036  44.351  1.00  0.00    -0.362 N 
HETATM   18  C17 UNL     1      13.050  16.923  43.538  1.00  0.00     0.150 C 
HETATM   19  C18 UNL     1      12.766  16.333  42.169  1.00  0.00     0.187 C 
HETATM   20  O5  UNL     1      13.813  15.600  41.665  1.00  0.00    -0.388 OA
HETATM   21  C19 UNL     1      14.272  14.605  42.500  1.00  0.00     0.187 C 
HETATM   22  C20 UNL     1      14.869  15.244  43.760  1.00  0.00     0.150 C 
ENDBRANCH  15  17
ENDBRANCH  14  15
ENDBRANCH  13  14
ENDBRANCH  11  13
ENDBRANCH  10  11
BRANCH   9  23
HETATM   23  C10 UNL     1       8.658  17.978  48.111  1.00  0.00     0.208 C 
BRANCH  23  24
HETATM   24  O2  UNL     1       7.373  18.088  48.565  1.00  0.00    -0.398 OA
ATOM     25  H2  UNL     1       7.055  18.979  48.660  1.00  0.00     0.209 HD
ENDBRANCH  23  24
ENDBRANCH   9  23
BRANCH   9  26
HETATM   26  C11 UNL     1       9.543  19.193  50.078  1.00  0.00     0.291 C 
HETATM   27  O3  UNL     1       8.453  19.488  50.605  1.00  0.00    -0.262 OA
BRANCH  26  28
HETATM   28  O4  UNL     1      10.659  19.032  50.869  1.00  0.00    -0.320 OA
BRANCH  28  29
HETATM   29  C12 UNL     1      10.792  19.686  52.135  1.00  0.00     0.174 C 
HETATM   30  C13 UNL     1      11.279  21.092  51.934  1.00  0.00     0.034 C 
ENDBRANCH  28  29
ENDBRANCH  26  28
ENDBRANCH   9  26
BRANCH   1  31
HETATM   31  C2  UNL     1       8.253  22.764  49.831  1.00  0.00     0.064 C 
HETATM   32  C1  UNL     1       7.846  24.002  50.053  1.00  0.00     0.017 C 
ENDBRANCH   1  31
TORSDOF 11
ENDMDL
MODEL 2
REMARK VINA RESULT: -6.732613666      1.703      3.052
REMARK  11 active torsions:
REMARK  status: ('A' for Active; 'I' for Inactive)
REMARK    1  A    between atoms: C2_2  and  C3_3 
REMARK       I    between atoms: C3_3  and  N1_5 
REMARK    2  A    between atoms: C9_11  and  C10_12 
REMARK    3  A    between atoms: C9_11  and  C11_15 
REMARK    4  A    between atoms: C10_12  and  O2_13 
REMARK    5  A    between atoms: C11_15  and  O4_17 
REMARK    6  A    between atoms: O4_17  and  C12_18 
REMARK    7  A    between atoms: N2_20  and  C14_21 
REMARK    8  A    between atoms: C14_21  and  C15_23 
REMARK    9  A    between atoms: C15_23  and  S2_24 
REMARK   10  A    between atoms: S2_24  and  C16_25 
REMARK   11  A    between atoms: C16_25  and  N3_27 
ROOT
HETATM    1  C3  UNL     1       7.805  22.638  48.767  1.00  0.00     0.243 C 
HETATM    2  O1  UNL     1       7.272  22.742  47.606  1.00  0.00    -0.268 OA
HETATM    3  N1  UNL     1       8.198  21.357  49.175  1.00  0.00    -0.339 N 
HETATM    4  C4  UNL     1       8.002  20.215  48.308  1.00  0.00     0.152 C 
HETATM    5  C5  UNL     1       8.587  19.025  49.040  1.00  0.00     0.104 C 
HETATM    6  C6  UNL     1       7.891  18.846  50.362  1.00  0.00     0.029 C 
HETATM    7  C7  UNL     1       7.928  20.113  51.180  1.00  0.00     0.030 C 
HETATM    8  C8  UNL     1       8.809  21.098  50.449  1.00  0.00     0.128 C 
HETATM    9  C9  UNL     1      10.220  20.438  50.202  1.00  0.00     0.164 C 
HETATM   10  N2  UNL     1      10.015  19.363  49.302  1.00  0.00    -0.346 N 
ENDROOT
BRANCH  10  11
HETATM   11  C14 UNL     1      10.952  18.600  48.570  1.00  0.00     0.087 C 
HETATM   12  S1  UNL     1      12.345  18.184  49.391  1.00  0.00    -0.065 SA
BRANCH  11  13
HETATM   13  C15 UNL     1      10.852  18.093  47.214  1.00  0.00     0.151 C 
BRANCH  13  14
HETATM   14  S2  UNL     1      12.442  18.319  46.346  1.00  0.00    -0.094 SA
BRANCH  14  15
HETATM   15  C16 UNL     1      13.064  16.795  45.669  1.00  0.00     0.137 C 
HETATM   16  S3  UNL     1      13.321  15.536  46.706  1.00  0.00    -0.053 SA
BRANCH  15  17
HETATM   17  N3  UNL     1      13.377  16.649  44.299  1.00  0.00    -0.362 N 
HETATM   18  C17 UNL     1      12.668  17.413  43.316  1.00  0.00     0.150 C 
HETATM   19  C18 UNL     1      12.414  16.611  42.053  1.00  0.00     0.187 C 
HETATM   20  O5  UNL     1      13.448  15.768  41.726  1.00  0.00    -0.388 OA
HETATM   21  C19 UNL     1      13.833  14.913  42.735  1.00  0.00     0.187 C 
HETATM   22  C20 UNL     1      14.406  15.734  43.897  1.00  0.00     0.150 C 
ENDBRANCH  15  17
ENDBRANCH  14  15
ENDBRANCH  13  14
ENDBRANCH  11  13
ENDBRANCH  10  11
BRANCH   9  23
HETATM   23  C10 UNL     1      10.730  20.076  51.535  1.00  0.00     0.208 C 
BRANCH  23  24
HETATM   24  O2  UNL     1      12.016  20.466  51.787  1.00  0.00    -0.398 OA
ATOM     25  H2  UNL     1      12.204  20.665  52.697  1.00  0.00     0.209 HD
ENDBRANCH  23  24
ENDBRANCH   9  23
BRANCH   9  26
HETATM   26  C11 UNL     1      10.988  21.568  49.577  1.00  0.00     0.291 C 
HETATM   27  O3  UNL     1      11.230  22.567  50.282  1.00  0.00    -0.262 OA
BRANCH  26  28
HETATM   28  O4  UNL     1      11.426  21.536  48.272  1.00  0.00    -0.320 OA
BRANCH  28  29
HETATM   29  C12 UNL     1      10.882  22.397  47.267  1.00  0.00     0.174 C 
HETATM   30  C13 UNL     1      10.524  21.596  46.049  1.00  0.00     0.034 C 
ENDBRANCH  28  29
ENDBRANCH  26  28
ENDBRANCH   9  26
BRANCH   1  31
HETATM   31  C2  UNL     1       7.945  23.853  49.535  1.00  0.00     0.064 C 
HETATM   32  C1  UNL     1       7.141  24.874  49.292  1.00  0.00     0.017 C 
ENDBRANCH   1  31
TORSDOF 11
ENDMDL
MODEL 3
REMARK VINA RESULT: -6.672419306      3.036      4.782
REMARK  11 active torsions:
REMARK  status: ('A' for Active; 'I' for Inactive)
REMARK    1  A    between atoms: C2_2  and  C3_3 
REMARK       I    between atoms: C3_3  and  N1_5 
REMARK    2  A    between atoms: C9_11  and  C10_12 
REMARK    3  A    between atoms: C9_11  and  C11_15 
REMARK    4  A    between atoms: C10_12  and  O2_13 
REMARK    5  A    between atoms: C11_15  and  O4_17 
REMARK    6  A    between atoms: O4_17  and  C12_18 
REMARK    7  A    between atoms: N2_20  and  C14_21 
REMARK    8  A    between atoms: C14_21  and  C15_23 
REMARK    9  A    between atoms: C15_23  and  S2_24 
REMARK   10  A    between atoms: S2_24  and  C16_25 
REMARK   11  A    between atoms: C16_25  and  N3_27 
ROOT
HETATM    1  C3  UNL     1       6.740  24.183  47.845  1.00  0.00     0.243 C 
HETATM    2  O1  UNL     1       5.734  24.514  48.567  1.00  0.00    -0.268 OA
HETATM    3  N1  UNL     1       7.884  23.733  48.515  1.00  0.00    -0.339 N 
HETATM    4  C4  UNL     1       7.909  23.653  49.960  1.00  0.00     0.152 C 
HETATM    5  C5  UNL     1       9.262  23.080  50.327  1.00  0.00     0.104 C 
HETATM    6  C6  UNL     1      10.353  23.971  49.802  1.00  0.00     0.029 C 
HETATM    7  C7  UNL     1      10.202  24.212  48.320  1.00  0.00     0.030 C 
HETATM    8  C8  UNL     1       9.080  23.328  47.830  1.00  0.00     0.128 C 
HETATM    9  C9  UNL     1       9.399  21.834  48.220  1.00  0.00     0.164 C 
HETATM   10  N2  UNL     1       9.355  21.763  49.635  1.00  0.00    -0.346 N 
ENDROOT
BRANCH  10  11
HETATM   11  C14 UNL     1       9.327  20.638  50.488  1.00  0.00     0.087 C 
HETATM   12  S1  UNL     1       8.415  20.804  51.876  1.00  0.00    -0.065 SA
BRANCH  11  13
HETATM   13  C15 UNL     1       9.952  19.341  50.304  1.00  0.00     0.151 C 
BRANCH  13  14
HETATM   14  S2  UNL     1      11.662  19.376  50.943  1.00  0.00    -0.094 SA
BRANCH  14  15
HETATM   15  C16 UNL     1      12.858  18.956  49.694  1.00  0.00     0.137 C 
HETATM   16  S3  UNL     1      13.941  20.116  49.238  1.00  0.00    -0.053 SA
BRANCH  15  17
HETATM   17  N3  UNL     1      12.880  17.692  49.064  1.00  0.00    -0.362 N 
HETATM   18  C17 UNL     1      14.017  16.834  49.216  1.00  0.00     0.150 C 
HETATM   19  C18 UNL     1      14.330  16.078  47.938  1.00  0.00     0.187 C 
HETATM   20  O5  UNL     1      13.208  15.698  47.243  1.00  0.00    -0.388 OA
HETATM   21  C19 UNL     1      12.333  16.723  46.959  1.00  0.00     0.187 C 
HETATM   22  C20 UNL     1      11.760  17.271  48.272  1.00  0.00     0.150 C 
ENDBRANCH  15  17
ENDBRANCH  14  15
ENDBRANCH  13  14
ENDBRANCH  11  13
ENDBRANCH  10  11
BRANCH   9  23
HETATM   23  C10 UNL     1      10.698  21.527  47.599  1.00  0.00     0.208 C 
BRANCH  23  24
HETATM   24  O2  UNL     1      10.754  20.332  46.937  1.00  0.00    -0.398 OA
ATOM     25  H2  UNL     1      10.418  19.587  47.423  1.00  0.00     0.209 HD
ENDBRANCH  23  24
ENDBRANCH   9  23
BRANCH   9  26
HETATM   26  C11 UNL     1       8.261  21.094  47.576  1.00  0.00     0.291 C 
HETATM   27  O3  UNL     1       8.132  21.188  46.340  1.00  0.00    -0.262 OA
BRANCH  26  28
HETATM   28  O4  UNL     1       7.371  20.327  48.294  1.00  0.00    -0.320 OA
BRANCH  28  29
HETATM   29  C12 UNL     1       7.019  18.999  47.897  1.00  0.00     0.174 C 
HETATM   30  C13 UNL     1       6.557  18.215  49.091  1.00  0.00     0.034 C 
ENDBRANCH  28  29
ENDBRANCH  26  28
ENDBRANCH   9  26
BRANCH   1  31
HETATM   31  C2  UNL     1       6.589  24.309  46.414  1.00  0.00     0.064 C 
HETATM   32  C1  UNL     1       5.574  23.715  45.811  1.00  0.00     0.017 C 
ENDBRANCH   1  31
TORSDOF 11
ENDMDL
MODEL 4
REMARK VINA RESULT: -6.658848391      1.614      2.125
REMARK  11 active torsions:
REMARK  status: ('A' for Active; 'I' for Inactive)
REMARK    1  A    between atoms: C2_2  and  C3_3 
REMARK       I    between atoms: C3_3  and  N1_5 
REMARK    2  A    between atoms: C9_11  and  C10_12 
REMARK    3  A    between atoms: C9_11  and  C11_15 
REMARK    4  A    between atoms: C10_12  and  O2_13 
REMARK    5  A    between atoms: C11_15  and  O4_17 
REMARK    6  A    between atoms: O4_17  and  C12_18 
REMARK    7  A    between atoms: N2_20  and  C14_21 
REMARK    8  A    between atoms: C14_21  and  C15_23 
REMARK    9  A    between atoms: C15_23  and  S2_24 
REMARK   10  A    between atoms: S2_24  and  C16_25 
REMARK   11  A    between atoms: C16_25  and  N3_27 
ROOT
HETATM    1  C3  UNL     1       9.470  24.235  49.085  1.00  0.00     0.243 C 
HETATM    2  O1  UNL     1      10.481  25.004  48.915  1.00  0.00    -0.268 OA
HETATM    3  N1  UNL     1       9.467  23.023  48.384  1.00  0.00    -0.339 N 
HETATM    4  C4  UNL     1      10.566  22.673  47.511  1.00  0.00     0.152 C 
HETATM    5  C5  UNL     1      10.256  21.291  46.975  1.00  0.00     0.104 C 
HETATM    6  C6  UNL     1       8.946  21.313  46.236  1.00  0.00     0.029 C 
HETATM    7  C7  UNL     1       7.838  21.870  47.096  1.00  0.00     0.030 C 
HETATM    8  C8  UNL     1       8.399  22.067  48.484  1.00  0.00     0.128 C 
HETATM    9  C9  UNL     1       8.996  20.700  48.994  1.00  0.00     0.164 C 
HETATM   10  N2  UNL     1      10.110  20.408  48.167  1.00  0.00    -0.346 N 
ENDROOT
BRANCH  10  11
HETATM   11  C14 UNL     1      11.134  19.449  48.328  1.00  0.00     0.087 C 
HETATM   12  S1  UNL     1      12.695  20.031  48.218  1.00  0.00    -0.065 SA
BRANCH  11  13
HETATM   13  C15 UNL     1      11.016  18.031  48.615  1.00  0.00     0.151 C 
BRANCH  13  14
HETATM   14  S2  UNL     1      11.567  17.055  47.174  1.00  0.00    -0.094 SA
BRANCH  14  15
HETATM   15  C16 UNL     1      13.196  16.377  47.402  1.00  0.00     0.137 C 
HETATM   16  S3  UNL     1      13.910  16.558  48.880  1.00  0.00    -0.053 SA
BRANCH  15  17
HETATM   17  N3  UNL     1      13.900  15.735  46.359  1.00  0.00    -0.362 N 
HETATM   18  C17 UNL     1      15.234  15.263  46.579  1.00  0.00     0.150 C 
HETATM   19  C18 UNL     1      16.111  15.457  45.356  1.00  0.00     0.187 C 
HETATM   20  O5  UNL     1      15.445  15.258  44.171  1.00  0.00    -0.388 OA
HETATM   21  C19 UNL     1      14.295  16.002  44.026  1.00  0.00     0.187 C 
HETATM   22  C20 UNL     1      13.273  15.557  45.080  1.00  0.00     0.150 C 
ENDBRANCH  15  17
ENDBRANCH  14  15
ENDBRANCH  13  14
ENDBRANCH  11  13
ENDBRANCH  10  11
BRANCH   9  23
HETATM   23  C10 UNL     1       7.885  19.735  48.944  1.00  0.00     0.208 C 
BRANCH  23  24
HETATM   24  O2  UNL     1       7.819  18.874  50.004  1.00  0.00    -0.398 OA
ATOM     25  H2  UNL     1       7.330  18.076  49.844  1.00  0.00     0.209 HD
ENDBRANCH  23  24
ENDBRANCH   9  23
BRANCH   9  26
HETATM   26  C11 UNL     1       9.402  21.042  50.399  1.00  0.00     0.291 C 
HETATM   27  O3  UNL     1       8.502  21.343  51.208  1.00  0.00    -0.262 OA
BRANCH  26  28
HETATM   28  O4  UNL     1      10.714  21.033  50.817  1.00  0.00    -0.320 OA
BRANCH  28  29
HETATM   29  C12 UNL     1      11.098  20.547  52.106  1.00  0.00     0.174 C 
HETATM   30  C13 UNL     1      11.944  19.315  51.956  1.00  0.00     0.034 C 
ENDBRANCH  28  29
ENDBRANCH  26  28
ENDBRANCH   9  26
BRANCH   1  31
HETATM   31  C2  UNL     1       8.438  24.699  49.982  1.00  0.00     0.064 C 
HETATM   32  C1  UNL     1       8.102  25.977  49.983  1.00  0.00     0.017 C 
ENDBRANCH   1  31
TORSDOF 11
ENDMDL
MODEL 5
REMARK VINA RESULT: -6.603851344      3.894      8.635
REMARK  11 active torsions:
REMARK  status: ('A' for Active; 'I' for Inactive)
REMARK    1  A    between atoms: C2_2  and  C3_3 
REMARK       I    between atoms: C3_3  and  N1_5 
REMARK    2  A    between atoms: C9_11  and  C10_12 
REMARK    3  A    between atoms: C9_11  and  C11_15 
REMARK    4  A    between atoms: C10_12  and  O2_13 
REMARK    5  A    between atoms: C11_15  and  O4_17 
REMARK    6  A    between atoms: O4_17  and  C12_18 
REMARK    7  A    between atoms: N2_20  and  C14_21 
REMARK    8  A    between atoms: C14_21  and  C15_23 
REMARK    9  A    between atoms: C15_23  and  S2_24 
REMARK   10  A    between atoms: S2_24  and  C16_25 
REMARK   11  A    between atoms: C16_25  and  N3_27 
ROOT
HETATM    1  C3  UNL     1      11.230  18.196  47.324  1.00  0.00     0.243 C 
HETATM    2  O1  UNL     1      11.733  18.535  46.196  1.00  0.00    -0.268 OA
HETATM    3  N1  UNL     1      11.144  19.190  48.307  1.00  0.00    -0.339 N 
HETATM    4  C4  UNL     1      11.608  20.534  48.039  1.00  0.00     0.152 C 
HETATM    5  C5  UNL     1      11.311  21.339  49.287  1.00  0.00     0.104 C 
HETATM    6  C6  UNL     1      12.019  20.732  50.467  1.00  0.00     0.029 C 
HETATM    7  C7  UNL     1      11.681  19.269  50.619  1.00  0.00     0.030 C 
HETATM    8  C8  UNL     1      10.600  18.948  49.614  1.00  0.00     0.128 C 
HETATM    9  C9  UNL     1       9.385  19.926  49.840  1.00  0.00     0.164 C 
HETATM   10  N2  UNL     1       9.842  21.228  49.511  1.00  0.00    -0.346 N 
ENDROOT
BRANCH  10  11
HETATM   11  C14 UNL     1       9.115  22.421  49.306  1.00  0.00     0.087 C 
HETATM   12  S1  UNL     1       8.207  22.947  50.604  1.00  0.00    -0.065 SA
BRANCH  11  13
HETATM   13  C15 UNL     1       9.080  23.275  48.134  1.00  0.00     0.151 C 
BRANCH  13  14
HETATM   14  S2  UNL     1       9.956  24.840  48.475  1.00  0.00    -0.094 SA
BRANCH  14  15
HETATM   15  C16 UNL     1       9.015  26.264  47.970  1.00  0.00     0.137 C 
HETATM   16  S3  UNL     1       9.291  26.879  46.463  1.00  0.00    -0.053 SA
BRANCH  15  17
HETATM   17  N3  UNL     1       8.084  26.895  48.824  1.00  0.00    -0.362 N 
HETATM   18  C17 UNL     1       7.118  27.806  48.284  1.00  0.00     0.150 C 
HETATM   19  C18 UNL     1       6.867  28.980  49.212  1.00  0.00     0.187 C 
HETATM   20  O5  UNL     1       6.893  28.637  50.542  1.00  0.00    -0.388 OA
HETATM   21  C19 UNL     1       8.035  27.979  50.944  1.00  0.00     0.187 C 
HETATM   22  C20 UNL     1       8.109  26.622  50.232  1.00  0.00     0.150 C 
ENDBRANCH  15  17
ENDBRANCH  14  15
ENDBRANCH  13  14
ENDBRANCH  11  13
ENDBRANCH  10  11
BRANCH   9  23
HETATM   23  C10 UNL     1       8.963  19.725  51.236  1.00  0.00     0.208 C 
BRANCH  23  24
HETATM   24  O2  UNL     1       7.624  19.512  51.410  1.00  0.00    -0.398 OA
ATOM     25  H2  UNL     1       7.399  18.697  51.843  1.00  0.00     0.209 HD
ENDBRANCH  23  24
ENDBRANCH   9  23
BRANCH   9  26
HETATM   26  C11 UNL     1       8.379  19.408  48.852  1.00  0.00     0.291 C 
HETATM   27  O3  UNL     1       8.060  20.150  47.903  1.00  0.00    -0.262 OA
BRANCH  26  28
HETATM   28  O4  UNL     1       7.809  18.159  48.958  1.00  0.00    -0.320 OA
BRANCH  28  29
HETATM   29  C12 UNL     1       6.463  17.900  48.546  1.00  0.00     0.174 C 
HETATM   30  C13 UNL     1       6.238  16.419  48.442  1.00  0.00     0.034 C 
ENDBRANCH  28  29
ENDBRANCH  26  28
ENDBRANCH   9  26
BRANCH   1  31
HETATM   31  C2  UNL     1      10.804  16.823  47.466  1.00  0.00     0.064 C 
HETATM   32  C1  UNL     1      11.649  15.847  47.182  1.00  0.00     0.017 C 
ENDBRANCH   1  31
TORSDOF 11
ENDMDL
