MODEL 1
REMARK VINA RESULT: -9.624837277      0.000      0.000
REMARK  13 active torsions:
REMARK  status: ('A' for Active; 'I' for Inactive)
REMARK    1  A    between atoms: C8_8  and  C9_9 
REMARK    2  A    between atoms: C9_9  and  C10_10 
REMARK    3  A    between atoms: C10_10  and  C11_11 
REMARK    4  A    between atoms: C25_31  and  C26_32 
REMARK    5  A    between atoms: C26_32  and  C27_33 
REMARK    6  A    between atoms: C26_32  and  C28_35 
REMARK    7  A    between atoms: C28_35  and  C29_36 
REMARK    8  A    between atoms: C29_36  and  C30_37 
REMARK    9  A    between atoms: C30_37  and  N3_38 
REMARK       I    between atoms: N3_38  and  C31_40 
REMARK   10  A    between atoms: C31_40  and  C32_42 
REMARK   11  A    between atoms: C32_42  and  O3_43 
REMARK   12  A    between atoms: C32_42  and  C33_45 
REMARK   13  A    between atoms: C33_45  and  C34_46 
ROOT
HETATM    1  C1  UNL     1      39.431  38.868  49.399  1.00  0.00     0.016 C 
HETATM    2  C2  UNL     1      40.728  38.905  50.177  1.00  0.00    -0.036 C 
HETATM    3  C3  UNL     1      41.376  40.238  49.777  1.00  0.00     0.010 C 
HETATM    4  C4  UNL     1      41.503  41.222  50.872  1.00  0.00     0.007 C 
HETATM    5  C5  UNL     1      40.242  41.240  51.690  1.00  0.00     0.004 C 
HETATM    6  C6  UNL     1      40.180  39.937  52.436  1.00  0.00    -0.004 C 
HETATM    7  C7  UNL     1      41.035  40.139  53.696  1.00  0.00     0.011 C 
HETATM    8  C8  UNL     1      40.527  41.230  54.575  1.00  0.00    -0.005 C 
HETATM    9  C16 UNL     1      40.590  42.543  53.848  1.00  0.00    -0.026 C 
HETATM   10  C17 UNL     1      39.769  43.605  54.603  1.00  0.00     0.016 C 
HETATM   11  C18 UNL     1      41.999  43.072  53.905  1.00  0.00     0.030 C 
HETATM   12  C19 UNL     1      42.153  44.407  53.227  1.00  0.00     0.123 C 
HETATM   13  N2  UNL     1      41.524  44.445  51.930  1.00  0.00    -0.361 N 
ATOM     14  H2  UNL     1      41.892  45.062  51.206  1.00  0.00     0.162 HD
HETATM   15  C20 UNL     1      40.408  43.639  51.660  1.00  0.00     0.223 C 
HETATM   16  O1  UNL     1      39.681  43.904  50.659  1.00  0.00    -0.273 OA
HETATM   17  C21 UNL     1      40.008  42.454  52.496  1.00  0.00     0.091 C 
HETATM   18  C22 UNL     1      40.599  38.753  51.649  1.00  0.00    -0.002 C 
HETATM   19  C23 UNL     1      41.876  38.124  52.091  1.00  0.00     0.006 C 
HETATM   20  C24 UNL     1      42.772  38.108  50.840  1.00  0.00     0.006 C 
HETATM   21  C25 UNL     1      41.708  37.835  49.788  1.00  0.00    -0.001 C 
ENDROOT
BRANCH  21  22
HETATM   22  C26 UNL     1      41.371  36.437  49.822  1.00  0.00     0.000 C 
BRANCH  22  23
HETATM   23  C27 UNL     1      40.098  35.950  49.182  1.00  0.00     0.091 C 
HETATM   24  S1  UNL     1      39.055  35.305  50.551  1.00  0.00    -0.097 SA
ENDBRANCH  22  23
BRANCH  22  25
HETATM   25  C28 UNL     1      42.449  35.616  49.131  1.00  0.00     0.007 C 
BRANCH  25  26
HETATM   26  C29 UNL     1      42.398  35.710  47.624  1.00  0.00     0.020 C 
BRANCH  26  27
HETATM   27  C30 UNL     1      42.430  34.311  47.004  1.00  0.00     0.122 C 
BRANCH  27  28
HETATM   28  N3  UNL     1      42.589  34.338  45.595  1.00  0.00    -0.359 N 
HETATM   29  C31 UNL     1      41.461  34.466  44.748  1.00  0.00     0.246 C 
HETATM   30  O2  UNL     1      40.327  34.556  45.282  1.00  0.00    -0.271 OA
ATOM     31  H3  UNL     1      43.522  34.263  45.189  1.00  0.00     0.162 HD
BRANCH  29  32
HETATM   32  C32 UNL     1      41.562  34.499  43.269  1.00  0.00     0.219 C 
BRANCH  32  33
HETATM   33  O3  UNL     1      42.011  33.306  42.739  1.00  0.00    -0.386 OA
ATOM     34  H3  UNL     1      41.972  33.289  41.790  1.00  0.00     0.210 HD
ENDBRANCH  32  33
BRANCH  32  35
HETATM   35  C33 UNL     1      40.292  34.906  42.601  1.00  0.00     0.154 C 
BRANCH  35  36
HETATM   36  C34 UNL     1      39.904  33.867  41.614  1.00  0.00     0.175 C 
HETATM   37  O4  UNL     1      39.009  33.036  41.895  1.00  0.00    -0.648 OA
HETATM   38  O5  UNL     1      40.501  33.774  40.366  1.00  0.00    -0.648 OA
ENDBRANCH  35  36
ENDBRANCH  32  35
ENDBRANCH  29  32
ENDBRANCH  27  28
ENDBRANCH  26  27
ENDBRANCH  25  26
ENDBRANCH  22  25
ENDBRANCH  21  22
BRANCH   8  39
HETATM   39  C9  UNL     1      39.213  40.969  55.242  1.00  0.00     0.006 C 
BRANCH  39  40
HETATM   40  C10 UNL     1      39.368  40.242  56.557  1.00  0.00     0.005 C 
BRANCH  40  41
HETATM   41  C11 UNL     1      40.058  41.032  57.607  1.00  0.00    -0.011 C 
HETATM   42  C12 UNL     1      41.485  40.619  57.877  1.00  0.00     0.032 C 
HETATM   43  C13 UNL     1      41.582  39.249  58.507  1.00  0.00     0.232 C 
HETATM   44  N1  UNL     1      41.024  39.385  59.846  1.00  0.00    -0.075 N 
HETATM   45  C14 UNL     1      39.614  39.687  59.694  1.00  0.00     0.232 C 
ATOM     46  H12 UNL     1      41.197  38.570  60.436  1.00  0.00     0.277 HD
ATOM     47  H11 UNL     1      41.519  40.069  60.419  1.00  0.00     0.277 HD
HETATM   48  C15 UNL     1      39.347  40.965  58.950  1.00  0.00     0.032 C 
ENDBRANCH  40  41
ENDBRANCH  39  40
ENDBRANCH   8  39
TORSDOF 13
ENDMDL
MODEL 2
REMARK VINA RESULT: -9.617376168      4.970      7.947
REMARK  13 active torsions:
REMARK  status: ('A' for Active; 'I' for Inactive)
REMARK    1  A    between atoms: C8_8  and  C9_9 
REMARK    2  A    between atoms: C9_9  and  C10_10 
REMARK    3  A    between atoms: C10_10  and  C11_11 
REMARK    4  A    between atoms: C25_31  and  C26_32 
REMARK    5  A    between atoms: C26_32  and  C27_33 
REMARK    6  A    between atoms: C26_32  and  C28_35 
REMARK    7  A    between atoms: C28_35  and  C29_36 
REMARK    8  A    between atoms: C29_36  and  C30_37 
REMARK    9  A    between atoms: C30_37  and  N3_38 
REMARK       I    between atoms: N3_38  and  C31_40 
REMARK   10  A    between atoms: C31_40  and  C32_42 
REMARK   11  A    between atoms: C32_42  and  O3_43 
REMARK   12  A    between atoms: C32_42  and  C33_45 
REMARK   13  A    between atoms: C33_45  and  C34_46 
ROOT
HETATM    1  C1  UNL     1      39.609  38.810  56.776  1.00  0.00     0.016 C 
HETATM    2  C2  UNL     1      39.669  38.358  55.334  1.00  0.00    -0.036 C 
HETATM    3  C3  UNL     1      39.763  36.828  55.416  1.00  0.00     0.010 C 
HETATM    4  C4  UNL     1      38.600  36.102  54.865  1.00  0.00     0.007 C 
HETATM    5  C5  UNL     1      37.328  36.779  55.292  1.00  0.00     0.004 C 
HETATM    6  C6  UNL     1      37.260  38.092  54.564  1.00  0.00    -0.004 C 
HETATM    7  C7  UNL     1      36.662  37.773  53.186  1.00  0.00     0.011 C 
HETATM    8  C8  UNL     1      35.293  37.187  53.268  1.00  0.00    -0.005 C 
HETATM    9  C16 UNL     1      35.344  35.868  53.984  1.00  0.00    -0.026 C 
HETATM   10  C17 UNL     1      33.921  35.421  54.369  1.00  0.00     0.016 C 
HETATM   11  C18 UNL     1      35.808  34.802  53.027  1.00  0.00     0.030 C 
HETATM   12  C19 UNL     1      35.859  33.434  53.651  1.00  0.00     0.123 C 
HETATM   13  N2  UNL     1      36.503  33.437  54.941  1.00  0.00    -0.361 N 
ATOM     14  H2  UNL     1      36.989  32.601  55.266  1.00  0.00     0.162 HD
HETATM   15  C20 UNL     1      36.463  34.581  55.750  1.00  0.00     0.223 C 
HETATM   16  O1  UNL     1      36.741  34.480  56.980  1.00  0.00    -0.273 OA
HETATM   17  C21 UNL     1      36.105  35.953  55.245  1.00  0.00     0.091 C 
HETATM   18  C22 UNL     1      38.550  38.814  54.470  1.00  0.00    -0.002 C 
HETATM   19  C23 UNL     1      39.124  38.898  53.097  1.00  0.00     0.006 C 
HETATM   20  C24 UNL     1      40.537  38.300  53.213  1.00  0.00     0.006 C 
HETATM   21  C25 UNL     1      40.899  38.809  54.600  1.00  0.00    -0.001 C 
ENDROOT
BRANCH  21  22
HETATM   22  C26 UNL     1      41.268  40.197  54.501  1.00  0.00     0.000 C 
BRANCH  22  23
HETATM   23  C27 UNL     1      41.881  40.902  55.681  1.00  0.00     0.091 C 
HETATM   24  S1  UNL     1      40.814  42.361  56.013  1.00  0.00    -0.097 SA
ENDBRANCH  22  23
BRANCH  22  25
HETATM   25  C28 UNL     1      42.299  40.393  53.400  1.00  0.00     0.007 C 
BRANCH  25  26
HETATM   26  C29 UNL     1      41.959  41.524  52.457  1.00  0.00     0.020 C 
BRANCH  26  27
HETATM   27  C30 UNL     1      42.556  41.259  51.074  1.00  0.00     0.122 C 
BRANCH  27  28
HETATM   28  N3  UNL     1      41.614  40.716  50.163  1.00  0.00    -0.359 N 
HETATM   29  C31 UNL     1      41.656  39.342  49.820  1.00  0.00     0.246 C 
HETATM   30  O2  UNL     1      42.547  38.629  50.345  1.00  0.00    -0.271 OA
ATOM     31  H3  UNL     1      40.902  41.320  49.752  1.00  0.00     0.162 HD
BRANCH  29  32
HETATM   32  C32 UNL     1      40.700  38.717  48.873  1.00  0.00     0.219 C 
BRANCH  32  33
HETATM   33  O3  UNL     1      41.328  38.116  47.801  1.00  0.00    -0.386 OA
ATOM     34  H3  UNL     1      41.689  37.265  48.018  1.00  0.00     0.210 HD
ENDBRANCH  32  33
BRANCH  32  35
HETATM   35  C33 UNL     1      39.774  37.749  49.527  1.00  0.00     0.154 C 
BRANCH  35  36
HETATM   36  C34 UNL     1      39.998  36.396  48.959  1.00  0.00     0.175 C 
HETATM   37  O4  UNL     1      40.970  35.705  49.345  1.00  0.00    -0.648 OA
HETATM   38  O5  UNL     1      39.161  35.851  47.997  1.00  0.00    -0.648 OA
ENDBRANCH  35  36
ENDBRANCH  32  35
ENDBRANCH  29  32
ENDBRANCH  27  28
ENDBRANCH  26  27
ENDBRANCH  25  26
ENDBRANCH  22  25
ENDBRANCH  21  22
BRANCH   8  39
HETATM   39  C9  UNL     1      34.221  38.106  53.763  1.00  0.00     0.006 C 
BRANCH  39  40
HETATM   40  C10 UNL     1      34.562  39.561  53.545  1.00  0.00     0.005 C 
BRANCH  40  41
HETATM   41  C11 UNL     1      34.104  40.099  52.239  1.00  0.00    -0.011 C 
HETATM   42  C12 UNL     1      35.212  40.475  51.284  1.00  0.00     0.032 C 
HETATM   43  C13 UNL     1      36.013  41.663  51.764  1.00  0.00     0.232 C 
HETATM   44  N1  UNL     1      35.114  42.808  51.687  1.00  0.00    -0.075 N 
HETATM   45  C14 UNL     1      34.055  42.587  52.653  1.00  0.00     0.232 C 
ATOM     46  H12 UNL     1      35.592  43.700  51.816  1.00  0.00     0.277 HD
ATOM     47  H11 UNL     1      34.766  42.980  50.745  1.00  0.00     0.277 HD
HETATM   48  C15 UNL     1      33.247  41.348  52.390  1.00  0.00     0.032 C 
ENDBRANCH  40  41
ENDBRANCH  39  40
ENDBRANCH   8  39
TORSDOF 13
ENDMDL
MODEL 3
REMARK VINA RESULT: -9.545846412      5.500      9.957
REMARK  13 active torsions:
REMARK  status: ('A' for Active; 'I' for Inactive)
REMARK    1  A    between atoms: C8_8  and  C9_9 
REMARK    2  A    between atoms: C9_9  and  C10_10 
REMARK    3  A    between atoms: C10_10  and  C11_11 
REMARK    4  A    between atoms: C25_31  and  C26_32 
REMARK    5  A    between atoms: C26_32  and  C27_33 
REMARK    6  A    between atoms: C26_32  and  C28_35 
REMARK    7  A    between atoms: C28_35  and  C29_36 
REMARK    8  A    between atoms: C29_36  and  C30_37 
REMARK    9  A    between atoms: C30_37  and  N3_38 
REMARK       I    between atoms: N3_38  and  C31_40 
REMARK   10  A    between atoms: C31_40  and  C32_42 
REMARK   11  A    between atoms: C32_42  and  O3_43 
REMARK   12  A    between atoms: C32_42  and  C33_45 
REMARK   13  A    between atoms: C33_45  and  C34_46 
ROOT
HETATM    1  C1  UNL     1      41.022  38.022  56.401  1.00  0.00     0.016 C 
HETATM    2  C2  UNL     1      40.028  38.856  55.622  1.00  0.00    -0.036 C 
HETATM    3  C3  UNL     1      40.889  39.653  54.633  1.00  0.00     0.010 C 
HETATM    4  C4  UNL     1      40.669  39.323  53.209  1.00  0.00     0.007 C 
HETATM    5  C5  UNL     1      40.556  37.834  53.042  1.00  0.00     0.004 C 
HETATM    6  C6  UNL     1      39.258  37.415  53.672  1.00  0.00    -0.004 C 
HETATM    7  C7  UNL     1      38.183  37.646  52.600  1.00  0.00     0.011 C 
HETATM    8  C8  UNL     1      38.410  36.841  51.366  1.00  0.00    -0.005 C 
HETATM    9  C16 UNL     1      39.701  37.253  50.717  1.00  0.00    -0.026 C 
HETATM   10  C17 UNL     1      40.110  36.219  49.652  1.00  0.00     0.016 C 
HETATM   11  C18 UNL     1      39.475  38.514  49.925  1.00  0.00     0.030 C 
HETATM   12  C19 UNL     1      40.712  38.987  49.210  1.00  0.00     0.123 C 
HETATM   13  N2  UNL     1      41.878  38.983  50.058  1.00  0.00    -0.361 N 
ATOM     14  H2  UNL     1      42.633  39.647  49.885  1.00  0.00     0.162 HD
HETATM   15  C20 UNL     1      41.980  38.070  51.118  1.00  0.00     0.223 C 
HETATM   16  O1  UNL     1      43.110  37.857  51.644  1.00  0.00    -0.273 OA
HETATM   17  C21 UNL     1      40.812  37.311  51.685  1.00  0.00     0.091 C 
HETATM   18  C22 UNL     1      38.942  38.097  54.949  1.00  0.00    -0.002 C 
HETATM   19  C23 UNL     1      37.786  39.037  54.891  1.00  0.00     0.006 C 
HETATM   20  C24 UNL     1      38.337  40.385  55.387  1.00  0.00     0.006 C 
HETATM   21  C25 UNL     1      39.298  39.874  56.450  1.00  0.00    -0.001 C 
ENDROOT
BRANCH  21  22
HETATM   22  C26 UNL     1      38.543  39.513  57.621  1.00  0.00     0.000 C 
BRANCH  22  23
HETATM   23  C27 UNL     1      39.247  38.972  58.837  1.00  0.00     0.091 C 
HETATM   24  S1  UNL     1      40.039  40.417  59.651  1.00  0.00    -0.097 SA
ENDBRANCH  22  23
BRANCH  22  25
HETATM   25  C28 UNL     1      37.790  40.720  58.158  1.00  0.00     0.007 C 
BRANCH  25  26
HETATM   26  C29 UNL     1      36.290  40.596  58.024  1.00  0.00     0.020 C 
BRANCH  26  27
HETATM   27  C30 UNL     1      35.881  39.122  57.985  1.00  0.00     0.122 C 
BRANCH  27  28
HETATM   28  N3  UNL     1      34.845  38.863  57.052  1.00  0.00    -0.359 N 
HETATM   29  C31 UNL     1      34.000  37.737  57.212  1.00  0.00     0.246 C 
HETATM   30  O2  UNL     1      34.199  36.983  58.197  1.00  0.00    -0.271 OA
ATOM     31  H3  UNL     1      34.706  39.492  56.261  1.00  0.00     0.162 HD
BRANCH  29  32
HETATM   32  C32 UNL     1      32.901  37.413  56.270  1.00  0.00     0.219 C 
BRANCH  32  33
HETATM   33  O3  UNL     1      31.680  37.905  56.688  1.00  0.00    -0.386 OA
ATOM     34  H3  UNL     1      31.165  37.258  57.157  1.00  0.00     0.210 HD
ENDBRANCH  32  33
BRANCH  32  35
HETATM   35  C33 UNL     1      33.174  37.853  54.872  1.00  0.00     0.154 C 
BRANCH  35  36
HETATM   36  C34 UNL     1      32.321  39.025  54.552  1.00  0.00     0.175 C 
HETATM   37  O4  UNL     1      32.621  40.161  54.989  1.00  0.00    -0.648 OA
HETATM   38  O5  UNL     1      31.179  38.916  53.772  1.00  0.00    -0.648 OA
ENDBRANCH  35  36
ENDBRANCH  32  35
ENDBRANCH  29  32
ENDBRANCH  27  28
ENDBRANCH  26  27
ENDBRANCH  25  26
ENDBRANCH  22  25
ENDBRANCH  21  22
BRANCH   8  39
HETATM   39  C9  UNL     1      38.253  35.360  51.517  1.00  0.00     0.006 C 
BRANCH  39  40
HETATM   40  C10 UNL     1      37.232  34.993  52.567  1.00  0.00     0.005 C 
BRANCH  40  41
HETATM   41  C11 UNL     1      37.742  34.064  53.607  1.00  0.00    -0.011 C 
HETATM   42  C12 UNL     1      37.135  32.682  53.578  1.00  0.00     0.032 C 
HETATM   43  C13 UNL     1      35.672  32.684  53.957  1.00  0.00     0.232 C 
HETATM   44  N1  UNL     1      35.627  33.029  55.372  1.00  0.00    -0.075 N 
HETATM   45  C14 UNL     1      36.103  34.393  55.495  1.00  0.00     0.232 C 
ATOM     46  H12 UNL     1      34.706  32.887  55.788  1.00  0.00     0.277 HD
ATOM     47  H11 UNL     1      36.140  32.372  55.960  1.00  0.00     0.277 HD
HETATM   48  C15 UNL     1      37.515  34.586  55.019  1.00  0.00     0.032 C 
ENDBRANCH  40  41
ENDBRANCH  39  40
ENDBRANCH   8  39
TORSDOF 13
ENDMDL
MODEL 4
REMARK VINA RESULT: -9.477995343      4.870     10.448
REMARK  13 active torsions:
REMARK  status: ('A' for Active; 'I' for Inactive)
REMARK    1  A    between atoms: C8_8  and  C9_9 
REMARK    2  A    between atoms: C9_9  and  C10_10 
REMARK    3  A    between atoms: C10_10  and  C11_11 
REMARK    4  A    between atoms: C25_31  and  C26_32 
REMARK    5  A    between atoms: C26_32  and  C27_33 
REMARK    6  A    between atoms: C26_32  and  C28_35 
REMARK    7  A    between atoms: C28_35  and  C29_36 
REMARK    8  A    between atoms: C29_36  and  C30_37 
REMARK    9  A    between atoms: C30_37  and  N3_38 
REMARK       I    between atoms: N3_38  and  C31_40 
REMARK   10  A    between atoms: C31_40  and  C32_42 
REMARK   11  A    between atoms: C32_42  and  O3_43 
REMARK   12  A    between atoms: C32_42  and  C33_45 
REMARK   13  A    between atoms: C33_45  and  C34_46 
ROOT
HETATM    1  C1  UNL     1      41.295  38.760  56.389  1.00  0.00     0.016 C 
HETATM    2  C2  UNL     1      40.254  39.480  55.560  1.00  0.00    -0.036 C 
HETATM    3  C3  UNL     1      41.057  40.152  54.438  1.00  0.00     0.010 C 
HETATM    4  C4  UNL     1      40.775  39.643  53.079  1.00  0.00     0.007 C 
HETATM    5  C5  UNL     1      40.675  38.144  53.108  1.00  0.00     0.004 C 
HETATM    6  C6  UNL     1      39.413  37.798  53.847  1.00  0.00    -0.004 C 
HETATM    7  C7  UNL     1      38.286  37.883  52.808  1.00  0.00     0.011 C 
HETATM    8  C8  UNL     1      38.466  36.930  51.676  1.00  0.00    -0.005 C 
HETATM    9  C16 UNL     1      39.719  37.266  50.919  1.00  0.00    -0.026 C 
HETATM   10  C17 UNL     1      40.092  36.109  49.974  1.00  0.00     0.016 C 
HETATM   11  C18 UNL     1      39.439  38.415  49.986  1.00  0.00     0.030 C 
HETATM   12  C19 UNL     1      40.634  38.803  49.158  1.00  0.00     0.123 C 
HETATM   13  N2  UNL     1      41.839  38.915  49.942  1.00  0.00    -0.361 N 
ATOM     14  H2  UNL     1      42.576  39.558  49.650  1.00  0.00     0.162 HD
HETATM   15  C20 UNL     1      42.003  38.145  51.102  1.00  0.00     0.223 C 
HETATM   16  O1  UNL     1      43.160  38.009  51.596  1.00  0.00    -0.273 OA
HETATM   17  C21 UNL     1      40.873  37.455  51.817  1.00  0.00     0.091 C 
HETATM   18  C22 UNL     1      39.148  38.634  55.042  1.00  0.00    -0.002 C 
HETATM   19  C23 UNL     1      37.978  39.550  54.921  1.00  0.00     0.006 C 
HETATM   20  C24 UNL     1      38.533  40.954  55.217  1.00  0.00     0.006 C 
HETATM   21  C25 UNL     1      39.550  40.589  56.288  1.00  0.00    -0.001 C 
ENDROOT
BRANCH  21  22
HETATM   22  C26 UNL     1      38.856  40.373  57.530  1.00  0.00     0.000 C 
BRANCH  22  23
HETATM   23  C27 UNL     1      39.575  40.558  58.840  1.00  0.00     0.091 C 
HETATM   24  S1  UNL     1      39.331  38.998  59.779  1.00  0.00    -0.097 SA
ENDBRANCH  22  23
BRANCH  22  25
HETATM   25  C28 UNL     1      37.669  41.317  57.644  1.00  0.00     0.007 C 
BRANCH  25  26
HETATM   26  C29 UNL     1      37.965  42.554  58.459  1.00  0.00     0.020 C 
BRANCH  26  27
HETATM   27  C30 UNL     1      37.692  43.812  57.632  1.00  0.00     0.122 C 
BRANCH  27  28
HETATM   28  N3  UNL     1      38.831  44.253  56.911  1.00  0.00    -0.359 N 
HETATM   29  C31 UNL     1      39.092  45.637  56.759  1.00  0.00     0.246 C 
HETATM   30  O2  UNL     1      38.289  46.452  57.280  1.00  0.00    -0.271 OA
ATOM     31  H3  UNL     1      39.466  43.570  56.499  1.00  0.00     0.162 HD
BRANCH  29  32
HETATM   32  C32 UNL     1      40.265  46.161  56.017  1.00  0.00     0.219 C 
BRANCH  32  33
HETATM   33  O3  UNL     1      41.325  46.471  56.845  1.00  0.00    -0.386 OA
ATOM     34  H3  UNL     1      41.620  47.368  56.742  1.00  0.00     0.210 HD
ENDBRANCH  32  33
BRANCH  32  35
HETATM   35  C33 UNL     1      40.723  45.253  54.925  1.00  0.00     0.154 C 
BRANCH  35  36
HETATM   36  C34 UNL     1      41.958  44.552  55.357  1.00  0.00     0.175 C 
HETATM   37  O4  UNL     1      41.883  43.542  56.094  1.00  0.00    -0.648 OA
HETATM   38  O5  UNL     1      43.221  44.976  54.970  1.00  0.00    -0.648 OA
ENDBRANCH  35  36
ENDBRANCH  32  35
ENDBRANCH  29  32
ENDBRANCH  27  28
ENDBRANCH  26  27
ENDBRANCH  25  26
ENDBRANCH  22  25
ENDBRANCH  21  22
BRANCH   8  39
HETATM   39  C9  UNL     1      38.337  35.479  52.020  1.00  0.00     0.006 C 
BRANCH  39  40
HETATM   40  C10 UNL     1      37.017  35.158  52.681  1.00  0.00     0.005 C 
BRANCH  40  41
HETATM   41  C11 UNL     1      37.084  34.037  53.651  1.00  0.00    -0.011 C 
HETATM   42  C12 UNL     1      35.762  33.656  54.274  1.00  0.00     0.032 C 
HETATM   43  C13 UNL     1      35.223  34.730  55.189  1.00  0.00     0.232 C 
HETATM   44  N1  UNL     1      36.123  34.769  56.335  1.00  0.00    -0.075 N 
HETATM   45  C14 UNL     1      37.412  35.226  55.851  1.00  0.00     0.232 C 
ATOM     46  H12 UNL     1      35.764  35.331  57.106  1.00  0.00     0.277 HD
ATOM     47  H11 UNL     1      36.175  33.880  56.832  1.00  0.00     0.277 HD
HETATM   48  C15 UNL     1      38.022  34.325  54.814  1.00  0.00     0.032 C 
ENDBRANCH  40  41
ENDBRANCH  39  40
ENDBRANCH   8  39
TORSDOF 13
ENDMDL
MODEL 5
REMARK VINA RESULT: -9.472016184      4.736      9.144
REMARK  13 active torsions:
REMARK  status: ('A' for Active; 'I' for Inactive)
REMARK    1  A    between atoms: C8_8  and  C9_9 
REMARK    2  A    between atoms: C9_9  and  C10_10 
REMARK    3  A    between atoms: C10_10  and  C11_11 
REMARK    4  A    between atoms: C25_31  and  C26_32 
REMARK    5  A    between atoms: C26_32  and  C27_33 
REMARK    6  A    between atoms: C26_32  and  C28_35 
REMARK    7  A    between atoms: C28_35  and  C29_36 
REMARK    8  A    between atoms: C29_36  and  C30_37 
REMARK    9  A    between atoms: C30_37  and  N3_38 
REMARK       I    between atoms: N3_38  and  C31_40 
REMARK   10  A    between atoms: C31_40  and  C32_42 
REMARK   11  A    between atoms: C32_42  and  O3_43 
REMARK   12  A    between atoms: C32_42  and  C33_45 
REMARK   13  A    between atoms: C33_45  and  C34_46 
ROOT
HETATM    1  C1  UNL     1      37.928  41.307  53.278  1.00  0.00     0.016 C 
HETATM    2  C2  UNL     1      38.836  40.333  53.997  1.00  0.00    -0.036 C 
HETATM    3  C3  UNL     1      38.047  39.927  55.249  1.00  0.00     0.010 C 
HETATM    4  C4  UNL     1      37.645  38.505  55.297  1.00  0.00     0.007 C 
HETATM    5  C5  UNL     1      37.147  38.070  53.947  1.00  0.00     0.004 C 
HETATM    6  C6  UNL     1      38.335  38.036  53.027  1.00  0.00    -0.004 C 
HETATM    7  C7  UNL     1      38.997  36.670  53.256  1.00  0.00     0.011 C 
HETATM    8  C8  UNL     1      38.096  35.525  52.935  1.00  0.00    -0.005 C 
HETATM    9  C16 UNL     1      36.907  35.539  53.851  1.00  0.00    -0.026 C 
HETATM   10  C17 UNL     1      35.821  34.584  53.321  1.00  0.00     0.016 C 
HETATM   11  C18 UNL     1      37.297  34.938  55.176  1.00  0.00     0.030 C 
HETATM   12  C19 UNL     1      36.154  34.879  56.154  1.00  0.00     0.123 C 
HETATM   13  N2  UNL     1      35.420  36.117  56.223  1.00  0.00    -0.361 N 
ATOM     14  H2  UNL     1      34.947  36.379  57.088  1.00  0.00     0.162 HD
HETATM   15  C20 UNL     1      35.353  36.965  55.108  1.00  0.00     0.223 C 
HETATM   16  O1  UNL     1      34.467  37.867  55.068  1.00  0.00    -0.273 OA
HETATM   17  C21 UNL     1      36.283  36.873  53.928  1.00  0.00     0.091 C 
HETATM   18  C22 UNL     1      39.282  39.162  53.199  1.00  0.00    -0.002 C 
HETATM   19  C23 UNL     1      40.610  38.786  53.763  1.00  0.00     0.006 C 
HETATM   20  C24 UNL     1      40.785  39.674  55.007  1.00  0.00     0.006 C 
HETATM   21  C25 UNL     1      40.117  40.941  54.493  1.00  0.00    -0.001 C 
ENDROOT
BRANCH  21  22
HETATM   22  C26 UNL     1      41.032  41.624  53.618  1.00  0.00     0.000 C 
BRANCH  22  23
HETATM   23  C27 UNL     1      41.286  43.098  53.791  1.00  0.00     0.091 C 
HETATM   24  S1  UNL     1      42.063  43.291  55.445  1.00  0.00    -0.097 SA
ENDBRANCH  22  23
BRANCH  22  25
HETATM   25  C28 UNL     1      42.421  41.014  53.725  1.00  0.00     0.007 C 
BRANCH  25  26
HETATM   26  C29 UNL     1      43.215  41.107  52.443  1.00  0.00     0.020 C 
BRANCH  26  27
HETATM   27  C30 UNL     1      42.291  40.944  51.234  1.00  0.00     0.122 C 
BRANCH  27  28
HETATM   28  N3  UNL     1      42.367  42.037  50.333  1.00  0.00    -0.359 N 
HETATM   29  C31 UNL     1      41.203  42.772  49.998  1.00  0.00     0.246 C 
HETATM   30  O2  UNL     1      40.114  42.427  50.521  1.00  0.00    -0.271 OA
ATOM     31  H3  UNL     1      43.265  42.294  49.923  1.00  0.00     0.162 HD
BRANCH  29  32
HETATM   32  C32 UNL     1      41.218  43.923  49.062  1.00  0.00     0.219 C 
BRANCH  32  33
HETATM   33  O3  UNL     1      40.800  43.581  47.791  1.00  0.00    -0.386 OA
ATOM     34  H3  UNL     1      40.778  44.325  47.200  1.00  0.00     0.210 HD
ENDBRANCH  32  33
BRANCH  32  35
HETATM   35  C33 UNL     1      40.436  45.093  49.556  1.00  0.00     0.154 C 
BRANCH  35  36
HETATM   36  C34 UNL     1      41.358  46.059  50.205  1.00  0.00     0.175 C 
HETATM   37  O4  UNL     1      41.540  46.018  51.445  1.00  0.00    -0.648 OA
HETATM   38  O5  UNL     1      42.042  47.026  49.484  1.00  0.00    -0.648 OA
ENDBRANCH  35  36
ENDBRANCH  32  35
ENDBRANCH  29  32
ENDBRANCH  27  28
ENDBRANCH  26  27
ENDBRANCH  25  26
ENDBRANCH  22  25
ENDBRANCH  21  22
BRANCH   8  39
HETATM   39  C9  UNL     1      37.746  35.359  51.489  1.00  0.00     0.006 C 
BRANCH  39  40
HETATM   40  C10 UNL     1      38.968  35.251  50.608  1.00  0.00     0.005 C 
BRANCH  40  41
HETATM   41  C11 UNL     1      38.832  35.937  49.299  1.00  0.00    -0.011 C 
HETATM   42  C12 UNL     1      39.792  35.468  48.232  1.00  0.00     0.032 C 
HETATM   43  C13 UNL     1      41.225  35.830  48.544  1.00  0.00     0.232 C 
HETATM   44  N1  UNL     1      41.303  37.281  48.435  1.00  0.00    -0.075 N 
HETATM   45  C14 UNL     1      40.482  37.834  49.495  1.00  0.00     0.232 C 
ATOM     46  H12 UNL     1      42.261  37.632  48.447  1.00  0.00     0.277 HD
ATOM     47  H11 UNL     1      41.048  37.627  47.510  1.00  0.00     0.277 HD
HETATM   48  C15 UNL     1      39.034  37.442  49.405  1.00  0.00     0.032 C 
ENDBRANCH  40  41
ENDBRANCH  39  40
ENDBRANCH   8  39
TORSDOF 13
ENDMDL
