MODEL 1
REMARK VINA RESULT: -9.485516435      0.000      0.000
REMARK  3 active torsions:
REMARK  status: ('A' for Active; 'I' for Inactive)
REMARK    1  A    between atoms: C1_2  and  C2_4 
REMARK    2  A    between atoms: N2_12  and  C10_13 
REMARK    3  A    between atoms: C10_13  and  C11_14 
ROOT
HETATM    1  C2  UNL     1      43.860  29.527   1.950  1.00  0.00     0.083 C 
HETATM    2  C3  UNL     1      43.772  29.709   0.459  1.00  0.00     0.014 C 
HETATM    3  C4  UNL     1      44.590  28.771  -0.358  1.00  0.00     0.001 C 
HETATM    4  C5  UNL     1      44.617  27.348   0.071  1.00  0.00     0.001 C 
HETATM    5  C6  UNL     1      44.245  27.181   1.495  1.00  0.00     0.010 C 
HETATM    6  C7  UNL     1      44.590  28.324   2.410  1.00  0.00    -0.025 C 
HETATM    7  C8  UNL     1      46.102  28.565   2.457  1.00  0.00     0.040 C 
HETATM    8  C9  UNL     1      46.783  27.257   2.682  1.00  0.00     0.273 C 
HETATM    9  N2  UNL     1      46.453  26.783   4.028  1.00  0.00     0.091 N 
HETATM   10  C16 UNL     1      45.426  27.510   4.661  1.00  0.00     0.273 C 
HETATM   11  C17 UNL     1      44.238  27.898   3.817  1.00  0.00     0.040 C 
ENDROOT
BRANCH   1  12
HETATM   12  C1  UNL     1      42.474  29.673   2.458  1.00  0.00     0.236 C 
HETATM   13  N1  UNL     1      42.118  30.720   3.337  1.00  0.00    -0.062 NA
HETATM   14  O1  UNL     1      41.598  28.858   2.105  1.00  0.00    -0.276 OA
ENDBRANCH   1  12
BRANCH   9  15
HETATM   15  C10 UNL     1      47.670  26.820   4.796  1.00  0.00     0.306 C 
BRANCH  15  16
HETATM   16  C11 UNL     1      48.949  26.692   4.063  1.00  0.00     0.173 C 
HETATM   17  C12 UNL     1      50.065  27.182   5.003  1.00  0.00     0.201 C 
HETATM   18  O2  UNL     1      50.965  27.988   4.351  1.00  0.00    -0.388 OA
HETATM   19  C13 UNL     1      51.595  27.425   3.272  1.00  0.00     0.169 C 
HETATM   20  C14 UNL     1      51.600  25.922   3.264  1.00  0.00     0.052 C 
HETATM   21  C15 UNL     1      50.296  25.350   2.772  1.00  0.00     0.170 C 
HETATM   22  O3  UNL     1      49.291  25.399   3.732  1.00  0.00    -0.382 OA
ENDBRANCH  15  16
ENDBRANCH   9  15
TORSDOF 3
ENDMDL
MODEL 2
REMARK VINA RESULT: -8.798515383      2.059      6.920
REMARK  3 active torsions:
REMARK  status: ('A' for Active; 'I' for Inactive)
REMARK    1  A    between atoms: C1_2  and  C2_4 
REMARK    2  A    between atoms: N2_12  and  C10_13 
REMARK    3  A    between atoms: C10_13  and  C11_14 
ROOT
HETATM    1  C2  UNL     1      50.415  26.106   2.628  1.00  0.00     0.083 C 
HETATM    2  C3  UNL     1      51.657  26.953   2.678  1.00  0.00     0.014 C 
HETATM    3  C4  UNL     1      51.616  28.109   3.615  1.00  0.00     0.001 C 
HETATM    4  C5  UNL     1      50.994  27.881   4.945  1.00  0.00     0.001 C 
HETATM    5  C6  UNL     1      50.082  26.713   4.948  1.00  0.00     0.010 C 
HETATM    6  C7  UNL     1      49.386  26.411   3.649  1.00  0.00    -0.025 C 
HETATM    7  C8  UNL     1      48.486  27.571   3.214  1.00  0.00     0.040 C 
HETATM    8  C9  UNL     1      47.649  27.983   4.378  1.00  0.00     0.273 C 
HETATM    9  N2  UNL     1      46.714  26.899   4.689  1.00  0.00     0.091 N 
HETATM   10  C16 UNL     1      46.982  25.692   4.013  1.00  0.00     0.273 C 
HETATM   11  C17 UNL     1      48.426  25.271   3.906  1.00  0.00     0.040 C 
ENDROOT
BRANCH   1  12
HETATM   12  C1  UNL     1      50.884  24.700   2.586  1.00  0.00     0.236 C 
HETATM   13  N1  UNL     1      50.098  23.678   2.008  1.00  0.00    -0.062 NA
HETATM   14  O1  UNL     1      51.996  24.405   3.068  1.00  0.00    -0.276 OA
ENDBRANCH   1  12
BRANCH   9  15
HETATM   15  C10 UNL     1      45.393  27.384   4.387  1.00  0.00     0.306 C 
BRANCH  15  16
HETATM   16  C11 UNL     1      45.208  28.129   3.122  1.00  0.00     0.173 C 
HETATM   17  C12 UNL     1      44.330  27.261   2.203  1.00  0.00     0.201 C 
HETATM   18  O2  UNL     1      44.803  27.240   0.915  1.00  0.00    -0.388 OA
HETATM   19  C13 UNL     1      44.907  28.460   0.299  1.00  0.00     0.169 C 
HETATM   20  C14 UNL     1      44.052  29.539   0.900  1.00  0.00     0.052 C 
HETATM   21  C15 UNL     1      44.671  30.136   2.137  1.00  0.00     0.170 C 
HETATM   22  O3  UNL     1      44.529  29.322   3.255  1.00  0.00    -0.382 OA
ENDBRANCH  15  16
ENDBRANCH   9  15
TORSDOF 3
ENDMDL
MODEL 3
REMARK VINA RESULT: -8.427738558      1.554      1.911
REMARK  3 active torsions:
REMARK  status: ('A' for Active; 'I' for Inactive)
REMARK    1  A    between atoms: C1_2  and  C2_4 
REMARK    2  A    between atoms: N2_12  and  C10_13 
REMARK    3  A    between atoms: C10_13  and  C11_14 
ROOT
HETATM    1  C2  UNL     1      43.738  30.058   1.284  1.00  0.00     0.083 C 
HETATM    2  C3  UNL     1      43.430  30.071  -0.188  1.00  0.00     0.014 C 
HETATM    3  C4  UNL     1      43.719  28.809  -0.923  1.00  0.00     0.001 C 
HETATM    4  C5  UNL     1      43.356  27.536  -0.248  1.00  0.00     0.001 C 
HETATM    5  C6  UNL     1      43.232  27.691   1.220  1.00  0.00     0.010 C 
HETATM    6  C7  UNL     1      44.104  28.740   1.853  1.00  0.00    -0.025 C 
HETATM    7  C8  UNL     1      45.590  28.430   1.647  1.00  0.00     0.040 C 
HETATM    8  C9  UNL     1      45.831  27.005   2.013  1.00  0.00     0.273 C 
HETATM    9  N2  UNL     1      45.629  26.851   3.455  1.00  0.00     0.091 N 
HETATM   10  C16 UNL     1      45.041  27.969   4.079  1.00  0.00     0.273 C 
HETATM   11  C17 UNL     1      43.909  28.646   3.350  1.00  0.00     0.040 C 
ENDROOT
BRANCH   1  12
HETATM   12  C1  UNL     1      42.603  30.750   1.942  1.00  0.00     0.236 C 
HETATM   13  N1  UNL     1      42.813  31.832   2.825  1.00  0.00    -0.062 NA
HETATM   14  O1  UNL     1      41.435  30.375   1.714  1.00  0.00    -0.276 OA
ENDBRANCH   1  12
BRANCH   9  15
HETATM   15  C10 UNL     1      46.913  26.547   4.030  1.00  0.00     0.306 C 
BRANCH  15  16
HETATM   16  C11 UNL     1      47.688  25.438   3.430  1.00  0.00     0.173 C 
HETATM   17  C12 UNL     1      49.146  25.592   3.898  1.00  0.00     0.201 C 
HETATM   18  O2  UNL     1      50.036  25.393   2.873  1.00  0.00    -0.388 OA
HETATM   19  C13 UNL     1      49.964  24.173   2.251  1.00  0.00     0.169 C 
HETATM   20  C14 UNL     1      49.310  23.093   3.066  1.00  0.00     0.052 C 
HETATM   21  C15 UNL     1      47.806  23.178   3.026  1.00  0.00     0.170 C 
HETATM   22  O3  UNL     1      47.302  24.181   3.846  1.00  0.00    -0.382 OA
ENDBRANCH  15  16
ENDBRANCH   9  15
TORSDOF 3
ENDMDL
MODEL 4
REMARK VINA RESULT: -8.418163560      1.684      2.509
REMARK  3 active torsions:
REMARK  status: ('A' for Active; 'I' for Inactive)
REMARK    1  A    between atoms: C1_2  and  C2_4 
REMARK    2  A    between atoms: N2_12  and  C10_13 
REMARK    3  A    between atoms: C10_13  and  C11_14 
ROOT
HETATM    1  C2  UNL     1      43.820  28.117   0.819  1.00  0.00     0.083 C 
HETATM    2  C3  UNL     1      42.338  28.301   0.997  1.00  0.00     0.014 C 
HETATM    3  C4  UNL     1      41.880  28.575   2.387  1.00  0.00     0.001 C 
HETATM    4  C5  UNL     1      42.701  29.513   3.196  1.00  0.00     0.001 C 
HETATM    5  C6  UNL     1      44.086  29.636   2.685  1.00  0.00     0.010 C 
HETATM    6  C7  UNL     1      44.653  28.420   2.005  1.00  0.00    -0.025 C 
HETATM    7  C8  UNL     1      44.727  27.227   2.963  1.00  0.00     0.040 C 
HETATM    8  C9  UNL     1      45.362  27.680   4.235  1.00  0.00     0.273 C 
HETATM    9  N2  UNL     1      46.763  28.011   3.965  1.00  0.00     0.091 N 
HETATM   10  C16 UNL     1      47.093  28.062   2.596  1.00  0.00     0.273 C 
HETATM   11  C17 UNL     1      46.098  28.721   1.675  1.00  0.00     0.040 C 
ENDROOT
BRANCH   1  12
HETATM   12  C1  UNL     1      44.174  28.849  -0.421  1.00  0.00     0.236 C 
HETATM   13  N1  UNL     1      45.007  28.272  -1.405  1.00  0.00    -0.062 NA
HETATM   14  O1  UNL     1      43.729  29.999  -0.607  1.00  0.00    -0.276 OA
ENDBRANCH   1  12
BRANCH   9  15
HETATM   15  C10 UNL     1      47.566  27.040   4.660  1.00  0.00     0.306 C 
BRANCH  15  16
HETATM   16  C11 UNL     1      48.945  26.814   4.173  1.00  0.00     0.173 C 
HETATM   17  C12 UNL     1      49.885  26.941   5.385  1.00  0.00     0.201 C 
HETATM   18  O2  UNL     1      51.006  27.674   5.088  1.00  0.00    -0.388 OA
HETATM   19  C13 UNL     1      51.775  27.195   4.060  1.00  0.00     0.169 C 
HETATM   20  C14 UNL     1      51.577  25.736   3.757  1.00  0.00     0.052 C 
HETATM   21  C15 UNL     1      50.347  25.488   2.923  1.00  0.00     0.170 C 
HETATM   22  O3  UNL     1      49.173  25.553   3.665  1.00  0.00    -0.382 OA
ENDBRANCH  15  16
ENDBRANCH   9  15
TORSDOF 3
ENDMDL
MODEL 5
REMARK VINA RESULT: -8.256991833      2.172      7.269
REMARK  3 active torsions:
REMARK  status: ('A' for Active; 'I' for Inactive)
REMARK    1  A    between atoms: C1_2  and  C2_4 
REMARK    2  A    between atoms: N2_12  and  C10_13 
REMARK    3  A    between atoms: C10_13  and  C11_14 
ROOT
HETATM    1  C2  UNL     1      48.713  25.683   3.228  1.00  0.00     0.083 C 
HETATM    2  C3  UNL     1      49.815  25.877   4.234  1.00  0.00     0.014 C 
HETATM    3  C4  UNL     1      49.647  27.023   5.168  1.00  0.00     0.001 C 
HETATM    4  C5  UNL     1      48.286  27.250   5.721  1.00  0.00     0.001 C 
HETATM    5  C6  UNL     1      47.228  26.629   4.890  1.00  0.00     0.010 C 
HETATM    6  C7  UNL     1      47.514  26.530   3.416  1.00  0.00    -0.025 C 
HETATM    7  C8  UNL     1      47.698  27.916   2.790  1.00  0.00     0.040 C 
HETATM    8  C9  UNL     1      46.570  28.788   3.228  1.00  0.00     0.273 C 
HETATM    9  N2  UNL     1      45.331  28.285   2.631  1.00  0.00     0.091 N 
HETATM   10  C16 UNL     1      45.453  27.020   2.023  1.00  0.00     0.273 C 
HETATM   11  C17 UNL     1      46.270  25.984   2.751  1.00  0.00     0.040 C 
ENDROOT
BRANCH   1  12
HETATM   12  C1  UNL     1      48.466  24.221   3.174  1.00  0.00     0.236 C 
HETATM   13  N1  UNL     1      49.199  23.382   2.305  1.00  0.00    -0.062 NA
HETATM   14  O1  UNL     1      47.597  23.714   3.911  1.00  0.00    -0.276 OA
ENDBRANCH   1  12
BRANCH   9  15
HETATM   15  C10 UNL     1      44.885  29.278   1.689  1.00  0.00     0.306 C 
BRANCH  15  16
HETATM   16  C11 UNL     1      43.514  29.810   1.849  1.00  0.00     0.173 C 
HETATM   17  C12 UNL     1      43.610  31.345   1.804  1.00  0.00     0.201 C 
HETATM   18  O2  UNL     1      42.839  31.934   2.774  1.00  0.00    -0.388 OA
HETATM   19  C13 UNL     1      41.502  31.636   2.735  1.00  0.00     0.169 C 
HETATM   20  C14 UNL     1      41.010  31.147   1.402  1.00  0.00     0.052 C 
HETATM   21  C15 UNL     1      41.318  29.689   1.178  1.00  0.00     0.170 C 
HETATM   22  O3  UNL     1      42.647  29.469   0.833  1.00  0.00    -0.382 OA
ENDBRANCH  15  16
ENDBRANCH   9  15
TORSDOF 3
ENDMDL
