MODEL 1
REMARK VINA RESULT: -6.781948976      0.000      0.000
REMARK  9 active torsions:
REMARK  status: ('A' for Active; 'I' for Inactive)
REMARK    1  A    between atoms: C2_2  and  C3_3 
REMARK    2  A    between atoms: C3_3  and  C4_4 
REMARK    3  A    between atoms: C4_4  and  C5_5 
REMARK    4  A    between atoms: C10_16  and  C11_17 
REMARK    5  A    between atoms: C11_17  and  C12_18 
REMARK    6  A    between atoms: C15_23  and  O3_24 
REMARK    7  A    between atoms: C16_26  and  C17_27 
REMARK    8  A    between atoms: C21_34  and  C22_35 
REMARK    9  A    between atoms: C25_40  and  O5_41 
ROOT
HETATM    1  C5  UNL     1       7.038 -36.637   4.512  1.00  0.00     0.082 C 
HETATM    2  N1  UNL     1       6.723 -37.942   4.993  1.00  0.00    -0.322 N 
ATOM      3  H1  UNL     1       6.297 -38.548   4.292  1.00  0.00     0.169 HD
HETATM    4  C6  UNL     1       6.885 -38.546   6.236  1.00  0.00     0.244 C 
HETATM    5  O1  UNL     1       7.216 -39.789   6.242  1.00  0.00    -0.271 OA
HETATM    6  C7  UNL     1       6.734 -37.978   7.596  1.00  0.00     0.172 C 
HETATM    7  C8  UNL     1       7.840 -38.617   8.462  1.00  0.00     0.042 C 
HETATM    8  N2  UNL     1       5.473 -38.382   8.183  1.00  0.00    -0.346 N 
ATOM      9  H2  UNL     1       5.011 -39.175   7.739  1.00  0.00     0.163 HD
HETATM   10  C9  UNL     1       4.809 -37.825   9.275  1.00  0.00     0.241 C 
HETATM   11  O2  UNL     1       4.302 -38.605  10.128  1.00  0.00    -0.271 OA
HETATM   12  C10 UNL     1       4.632 -36.348   9.543  1.00  0.00     0.176 C 
HETATM   13  N3  UNL     1       4.349 -35.698   8.296  1.00  0.00    -0.356 N 
ATOM     14  H3  UNL     1       4.573 -36.259   7.474  1.00  0.00     0.162 HD
HETATM   15  C15 UNL     1       3.819 -34.430   7.997  1.00  0.00     0.160 C 
HETATM   16  C16 UNL     1       4.402 -33.101   8.142  1.00  0.00     0.066 C 
HETATM   17  N4  UNL     1       5.421 -32.627   7.580  1.00  0.00    -0.325 N 
ATOM     18  H4  UNL     1       5.532 -31.673   7.923  1.00  0.00     0.169 HD
HETATM   19  C20 UNL     1       6.435 -32.856   6.707  1.00  0.00     0.245 C 
HETATM   20  O4  UNL     1       6.692 -32.299   5.595  1.00  0.00    -0.271 OA
HETATM   21  C21 UNL     1       7.437 -33.893   7.021  1.00  0.00     0.179 C 
HETATM   22  N5  UNL     1       8.002 -34.623   5.931  1.00  0.00    -0.355 N 
ATOM     23  H5  UNL     1       8.622 -34.019   5.392  1.00  0.00     0.162 HD
HETATM   24  C25 UNL     1       7.977 -35.875   5.380  1.00  0.00     0.163 C 
ENDROOT
BRANCH   1  25
HETATM   25  C4  UNL     1       6.070 -35.881   3.720  1.00  0.00     0.007 C 
BRANCH  25  26
HETATM   26  C3  UNL     1       6.382 -35.246   2.440  1.00  0.00     0.029 C 
BRANCH  26  27
HETATM   27  C2  UNL     1       6.901 -36.190   1.408  1.00  0.00    -0.001 C 
HETATM   28  C1  UNL     1       7.641 -35.487   0.291  1.00  0.00     0.005 C 
ENDBRANCH  26  27
ENDBRANCH  25  26
ENDBRANCH   1  25
BRANCH  24  29
HETATM   29  O5  UNL     1       8.998 -36.643   5.635  1.00  0.00    -0.345 OA
ATOM     30  H5  UNL     1       8.681 -37.399   6.115  1.00  0.00     0.219 HD
ENDBRANCH  24  29
BRANCH  21  31
HETATM   31  C22 UNL     1       8.621 -33.165   7.717  1.00  0.00     0.009 C 
HETATM   32  C23 UNL     1       8.893 -33.692   9.079  1.00  0.00     0.012 C 
HETATM   33  C24 UNL     1       9.847 -33.329   6.853  1.00  0.00     0.012 C 
ENDBRANCH  21  31
BRANCH  12  34
HETATM   34  C11 UNL     1       5.812 -35.851  10.303  1.00  0.00     0.038 C 
BRANCH  34  35
HETATM   35  C12 UNL     1       5.364 -34.994  11.482  1.00  0.00    -0.020 C 
HETATM   36  C13 UNL     1       5.048 -36.002  12.605  1.00  0.00     0.009 C 
HETATM   37  C14 UNL     1       6.449 -34.107  11.998  1.00  0.00     0.009 C 
ENDBRANCH  34  35
ENDBRANCH  12  34
BRANCH  16  38
HETATM   38  C17 UNL     1       3.659 -32.140   9.035  1.00  0.00     0.032 C 
HETATM   39  C18 UNL     1       4.477 -31.253   9.870  1.00  0.00     0.016 C 
HETATM   40  C19 UNL     1       2.652 -31.294   8.303  1.00  0.00     0.016 C 
ENDBRANCH  16  38
BRANCH  15  41
HETATM   41  O3  UNL     1       2.600 -34.366   7.496  1.00  0.00    -0.345 OA
ATOM     42  H3  UNL     1       2.505 -34.270   6.556  1.00  0.00     0.219 HD
ENDBRANCH  15  41
TORSDOF 9
ENDMDL
MODEL 2
REMARK VINA RESULT: -6.541180907      2.599      6.294
REMARK  9 active torsions:
REMARK  status: ('A' for Active; 'I' for Inactive)
REMARK    1  A    between atoms: C2_2  and  C3_3 
REMARK    2  A    between atoms: C3_3  and  C4_4 
REMARK    3  A    between atoms: C4_4  and  C5_5 
REMARK    4  A    between atoms: C10_16  and  C11_17 
REMARK    5  A    between atoms: C11_17  and  C12_18 
REMARK    6  A    between atoms: C15_23  and  O3_24 
REMARK    7  A    between atoms: C16_26  and  C17_27 
REMARK    8  A    between atoms: C21_34  and  C22_35 
REMARK    9  A    between atoms: C25_40  and  O5_41 
ROOT
HETATM    1  C5  UNL     1       6.469 -30.030   8.759  1.00  0.00     0.082 C 
HETATM    2  N1  UNL     1       6.316 -30.060   7.342  1.00  0.00    -0.322 N 
ATOM      3  H1  UNL     1       5.664 -29.363   6.983  1.00  0.00     0.169 HD
HETATM    4  C6  UNL     1       6.886 -30.859   6.356  1.00  0.00     0.244 C 
HETATM    5  O1  UNL     1       7.177 -30.290   5.239  1.00  0.00    -0.271 OA
HETATM    6  C7  UNL     1       7.224 -32.302   6.378  1.00  0.00     0.172 C 
HETATM    7  C8  UNL     1       8.548 -32.453   5.602  1.00  0.00     0.042 C 
HETATM    8  N2  UNL     1       6.235 -33.071   5.649  1.00  0.00    -0.346 N 
ATOM      9  H2  UNL     1       5.634 -32.538   5.021  1.00  0.00     0.163 HD
HETATM   10  C9  UNL     1       5.999 -34.444   5.698  1.00  0.00     0.241 C 
HETATM   11  O2  UNL     1       5.804 -35.056   4.612  1.00  0.00    -0.271 OA
HETATM   12  C10 UNL     1       5.951 -35.288   6.951  1.00  0.00     0.176 C 
HETATM   13  N3  UNL     1       5.267 -34.542   7.967  1.00  0.00    -0.356 N 
ATOM     14  H3  UNL     1       5.184 -33.546   7.767  1.00  0.00     0.162 HD
HETATM   15  C15 UNL     1       4.689 -34.931   9.189  1.00  0.00     0.160 C 
HETATM   16  C16 UNL     1       5.310 -35.367  10.435  1.00  0.00     0.066 C 
HETATM   17  N4  UNL     1       6.080 -34.725  11.191  1.00  0.00    -0.325 N 
ATOM     18  H4  UNL     1       6.320 -35.345  11.966  1.00  0.00     0.169 HD
HETATM   19  C20 UNL     1       6.727 -33.551  11.408  1.00  0.00     0.245 C 
HETATM   20  O4  UNL     1       6.594 -32.712  12.352  1.00  0.00    -0.271 OA
HETATM   21  C21 UNL     1       7.757 -33.108  10.449  1.00  0.00     0.179 C 
HETATM   22  N5  UNL     1       7.898 -31.703  10.227  1.00  0.00    -0.355 N 
ATOM     23  H5  UNL     1       8.305 -31.260  11.051  1.00  0.00     0.162 HD
HETATM   24  C25 UNL     1       7.662 -30.764   9.262  1.00  0.00     0.163 C 
ENDROOT
BRANCH   1  25
HETATM   25  C4  UNL     1       5.301 -29.943   9.633  1.00  0.00     0.007 C 
BRANCH  25  26
HETATM   26  C3  UNL     1       4.317 -31.014   9.789  1.00  0.00     0.029 C 
BRANCH  26  27
HETATM   27  C2  UNL     1       3.009 -30.734   9.128  1.00  0.00    -0.001 C 
HETATM   28  C1  UNL     1       2.128 -29.811   9.942  1.00  0.00     0.005 C 
ENDBRANCH  26  27
ENDBRANCH  25  26
ENDBRANCH   1  25
BRANCH  24  29
HETATM   29  O5  UNL     1       8.695 -30.364   8.575  1.00  0.00    -0.345 OA
ATOM     30  H5  UNL     1       9.471 -30.745   8.969  1.00  0.00     0.219 HD
ENDBRANCH  24  29
BRANCH  21  31
HETATM   31  C22 UNL     1       9.121 -33.599  11.010  1.00  0.00     0.009 C 
HETATM   32  C23 UNL     1       9.657 -34.767  10.265  1.00  0.00     0.012 C 
HETATM   33  C24 UNL     1      10.100 -32.454  10.935  1.00  0.00     0.012 C 
ENDBRANCH  21  31
BRANCH  12  34
HETATM   34  C11 UNL     1       7.330 -35.749   7.274  1.00  0.00     0.038 C 
BRANCH  34  35
HETATM   35  C12 UNL     1       7.470 -37.243   6.998  1.00  0.00    -0.020 C 
HETATM   36  C13 UNL     1       8.491 -37.743   8.039  1.00  0.00     0.009 C 
HETATM   37  C14 UNL     1       6.206 -37.997   7.244  1.00  0.00     0.009 C 
ENDBRANCH  34  35
ENDBRANCH  12  34
BRANCH  16  38
HETATM   38  C17 UNL     1       4.937 -36.744  10.921  1.00  0.00     0.032 C 
HETATM   39  C18 UNL     1       5.987 -37.768  10.861  1.00  0.00     0.016 C 
HETATM   40  C19 UNL     1       4.353 -36.757  12.308  1.00  0.00     0.016 C 
ENDBRANCH  16  38
BRANCH  15  41
HETATM   41  O3  UNL     1       3.373 -34.919   9.288  1.00  0.00    -0.345 OA
ATOM     42  H3  UNL     1       2.945 -35.676   9.671  1.00  0.00     0.219 HD
ENDBRANCH  15  41
TORSDOF 9
ENDMDL
MODEL 3
REMARK VINA RESULT: -6.435397900      2.445      6.291
REMARK  9 active torsions:
REMARK  status: ('A' for Active; 'I' for Inactive)
REMARK    1  A    between atoms: C2_2  and  C3_3 
REMARK    2  A    between atoms: C3_3  and  C4_4 
REMARK    3  A    between atoms: C4_4  and  C5_5 
REMARK    4  A    between atoms: C10_16  and  C11_17 
REMARK    5  A    between atoms: C11_17  and  C12_18 
REMARK    6  A    between atoms: C15_23  and  O3_24 
REMARK    7  A    between atoms: C16_26  and  C17_27 
REMARK    8  A    between atoms: C21_34  and  C22_35 
REMARK    9  A    between atoms: C25_40  and  O5_41 
ROOT
HETATM    1  C5  UNL     1       6.354 -30.742   9.235  1.00  0.00     0.082 C 
HETATM    2  N1  UNL     1       6.281 -30.564   7.822  1.00  0.00    -0.322 N 
ATOM      3  H1  UNL     1       5.684 -29.790   7.535  1.00  0.00     0.169 HD
HETATM    4  C6  UNL     1       6.868 -31.247   6.762  1.00  0.00     0.244 C 
HETATM    5  O1  UNL     1       7.249 -30.542   5.754  1.00  0.00    -0.271 OA
HETATM    6  C7  UNL     1       7.137 -32.694   6.593  1.00  0.00     0.172 C 
HETATM    7  C8  UNL     1       8.495 -32.806   5.870  1.00  0.00     0.042 C 
HETATM    8  N2  UNL     1       6.157 -33.298   5.714  1.00  0.00    -0.346 N 
ATOM      9  H2  UNL     1       5.618 -32.651   5.138  1.00  0.00     0.163 HD
HETATM   10  C9  UNL     1       5.854 -34.649   5.553  1.00  0.00     0.241 C 
HETATM   11  O2  UNL     1       5.694 -35.091   4.382  1.00  0.00    -0.271 OA
HETATM   12  C10 UNL     1       5.696 -35.658   6.668  1.00  0.00     0.176 C 
HETATM   13  N3  UNL     1       4.990 -35.026   7.745  1.00  0.00    -0.356 N 
ATOM     14  H3  UNL     1       4.965 -34.009   7.686  1.00  0.00     0.162 HD
HETATM   15  C15 UNL     1       4.326 -35.552   8.868  1.00  0.00     0.160 C 
HETATM   16  C16 UNL     1       4.854 -36.191  10.069  1.00  0.00     0.066 C 
HETATM   17  N4  UNL     1       5.609 -35.705  10.947  1.00  0.00    -0.325 N 
ATOM     18  H4  UNL     1       5.775 -36.439  11.636  1.00  0.00     0.169 HD
HETATM   19  C20 UNL     1       6.296 -34.610  11.361  1.00  0.00     0.245 C 
HETATM   20  O4  UNL     1       6.149 -33.906  12.408  1.00  0.00    -0.271 OA
HETATM   21  C21 UNL     1       7.399 -34.092  10.529  1.00  0.00     0.179 C 
HETATM   22  N5  UNL     1       7.618 -32.681  10.517  1.00  0.00    -0.355 N 
ATOM     23  H5  UNL     1       7.997 -32.380  11.416  1.00  0.00     0.162 HD
HETATM   24  C25 UNL     1       7.482 -31.603   9.686  1.00  0.00     0.163 C 
ENDROOT
BRANCH   1  25
HETATM   25  C4  UNL     1       5.143 -30.715  10.053  1.00  0.00     0.007 C 
BRANCH  25  26
HETATM   26  C3  UNL     1       3.996 -29.849   9.783  1.00  0.00     0.029 C 
BRANCH  26  27
HETATM   27  C2  UNL     1       2.754 -30.589   9.416  1.00  0.00    -0.001 C 
HETATM   28  C1  UNL     1       3.032 -31.832   8.599  1.00  0.00     0.005 C 
ENDBRANCH  26  27
ENDBRANCH  25  26
ENDBRANCH   1  25
BRANCH  24  29
HETATM   29  O5  UNL     1       8.570 -31.167   9.117  1.00  0.00    -0.345 OA
ATOM     30  H5  UNL     1       8.421 -30.265   8.858  1.00  0.00     0.219 HD
ENDBRANCH  24  29
BRANCH  21  31
HETATM   31  C22 UNL     1       8.705 -34.731  11.080  1.00  0.00     0.009 C 
HETATM   32  C23 UNL     1       9.457 -35.479  10.041  1.00  0.00     0.012 C 
HETATM   33  C24 UNL     1       9.568 -33.627  11.639  1.00  0.00     0.012 C 
ENDBRANCH  21  31
BRANCH  12  34
HETATM   34  C11 UNL     1       7.031 -36.234   6.990  1.00  0.00     0.038 C 
BRANCH  34  35
HETATM   35  C12 UNL     1       7.009 -37.751   6.831  1.00  0.00    -0.020 C 
HETATM   36  C13 UNL     1       7.510 -38.005   5.396  1.00  0.00     0.009 C 
HETATM   37  C14 UNL     1       7.966 -38.441   7.746  1.00  0.00     0.009 C 
ENDBRANCH  34  35
ENDBRANCH  12  34
BRANCH  16  38
HETATM   38  C17 UNL     1       4.391 -37.601  10.333  1.00  0.00     0.032 C 
HETATM   39  C18 UNL     1       4.557 -38.563   9.238  1.00  0.00     0.016 C 
HETATM   40  C19 UNL     1       4.981 -38.206  11.578  1.00  0.00     0.016 C 
ENDBRANCH  16  38
BRANCH  15  41
HETATM   41  O3  UNL     1       3.009 -35.482   8.903  1.00  0.00    -0.345 OA
ATOM     42  H3  UNL     1       2.598 -34.650   8.699  1.00  0.00     0.219 HD
ENDBRANCH  15  41
TORSDOF 9
ENDMDL
MODEL 4
REMARK VINA RESULT: -6.385097988      2.289      5.707
REMARK  9 active torsions:
REMARK  status: ('A' for Active; 'I' for Inactive)
REMARK    1  A    between atoms: C2_2  and  C3_3 
REMARK    2  A    between atoms: C3_3  and  C4_4 
REMARK    3  A    between atoms: C4_4  and  C5_5 
REMARK    4  A    between atoms: C10_16  and  C11_17 
REMARK    5  A    between atoms: C11_17  and  C12_18 
REMARK    6  A    between atoms: C15_23  and  O3_24 
REMARK    7  A    between atoms: C16_26  and  C17_27 
REMARK    8  A    between atoms: C21_34  and  C22_35 
REMARK    9  A    between atoms: C25_40  and  O5_41 
ROOT
HETATM    1  C5  UNL     1       6.120 -31.034   7.278  1.00  0.00     0.082 C 
HETATM    2  N1  UNL     1       6.129 -31.603   5.971  1.00  0.00    -0.322 N 
ATOM      3  H1  UNL     1       5.435 -31.201   5.341  1.00  0.00     0.169 HD
HETATM    4  C6  UNL     1       6.903 -32.603   5.391  1.00  0.00     0.244 C 
HETATM    5  O1  UNL     1       7.239 -32.441   4.159  1.00  0.00    -0.271 OA
HETATM    6  C7  UNL     1       7.423 -33.863   5.973  1.00  0.00     0.172 C 
HETATM    7  C8  UNL     1       8.833 -34.069   5.383  1.00  0.00     0.042 C 
HETATM    8  N2  UNL     1       6.629 -34.994   5.537  1.00  0.00    -0.346 N 
ATOM      9  H2  UNL     1       6.037 -34.832   4.723  1.00  0.00     0.163 HD
HETATM   10  C9  UNL     1       6.571 -36.273   6.088  1.00  0.00     0.241 C 
HETATM   11  O2  UNL     1       6.578 -37.262   5.304  1.00  0.00    -0.271 OA
HETATM   12  C10 UNL     1       6.496 -36.598   7.562  1.00  0.00     0.176 C 
HETATM   13  N3  UNL     1       5.613 -35.655   8.184  1.00  0.00    -0.356 N 
ATOM     14  H3  UNL     1       5.423 -34.828   7.619  1.00  0.00     0.162 HD
HETATM   15  C15 UNL     1       4.960 -35.660   9.429  1.00  0.00     0.160 C 
HETATM   16  C16 UNL     1       5.491 -35.504  10.779  1.00  0.00     0.066 C 
HETATM   17  N4  UNL     1       6.083 -34.515  11.277  1.00  0.00    -0.325 N 
ATOM     18  H4  UNL     1       6.315 -34.761  12.240  1.00  0.00     0.169 HD
HETATM   19  C20 UNL     1       6.543 -33.254  11.069  1.00  0.00     0.245 C 
HETATM   20  O4  UNL     1       6.199 -32.162  11.618  1.00  0.00    -0.271 OA
HETATM   21  C21 UNL     1       7.606 -33.030  10.070  1.00  0.00     0.179 C 
HETATM   22  N5  UNL     1       7.586 -31.801   9.343  1.00  0.00    -0.355 N 
ATOM     23  H5  UNL     1       7.838 -31.028   9.959  1.00  0.00     0.162 HD
HETATM   24  C25 UNL     1       7.336 -31.329   8.083  1.00  0.00     0.163 C 
ENDROOT
BRANCH   1  25
HETATM   25  C4  UNL     1       4.861 -30.825   7.991  1.00  0.00     0.007 C 
BRANCH  25  26
HETATM   26  C3  UNL     1       4.646 -29.762   8.972  1.00  0.00     0.029 C 
BRANCH  26  27
HETATM   27  C2  UNL     1       3.735 -30.147  10.089  1.00  0.00    -0.001 C 
HETATM   28  C1  UNL     1       2.287 -29.806   9.808  1.00  0.00     0.005 C 
ENDBRANCH  26  27
ENDBRANCH  25  26
ENDBRANCH   1  25
BRANCH  24  29
HETATM   29  O5  UNL     1       8.377 -31.045   7.352  1.00  0.00    -0.345 OA
ATOM     30  H5  UNL     1       9.102 -30.860   7.938  1.00  0.00     0.219 HD
ENDBRANCH  24  29
BRANCH  21  31
HETATM   31  C22 UNL     1       8.953 -33.054  10.847  1.00  0.00     0.009 C 
HETATM   32  C23 UNL     1       9.898 -34.069  10.315  1.00  0.00     0.012 C 
HETATM   33  C24 UNL     1       9.572 -31.682  10.755  1.00  0.00     0.012 C 
ENDBRANCH  21  31
BRANCH  12  34
HETATM   34  C11 UNL     1       7.879 -36.679   8.108  1.00  0.00     0.038 C 
BRANCH  34  35
HETATM   35  C12 UNL     1       8.217 -38.116   8.491  1.00  0.00    -0.020 C 
HETATM   36  C13 UNL     1       8.504 -38.065  10.004  1.00  0.00     0.009 C 
HETATM   37  C14 UNL     1       7.066 -39.049   8.307  1.00  0.00     0.009 C 
ENDBRANCH  34  35
ENDBRANCH  12  34
BRANCH  16  38
HETATM   38  C17 UNL     1       5.251 -36.650  11.728  1.00  0.00     0.032 C 
HETATM   39  C18 UNL     1       4.188 -36.469  12.722  1.00  0.00     0.016 C 
HETATM   40  C19 UNL     1       5.023 -37.967  11.036  1.00  0.00     0.016 C 
ENDBRANCH  16  38
BRANCH  15  41
HETATM   41  O3  UNL     1       3.651 -35.826   9.447  1.00  0.00    -0.345 OA
ATOM     42  H3  UNL     1       3.112 -35.195   8.984  1.00  0.00     0.219 HD
ENDBRANCH  15  41
TORSDOF 9
ENDMDL
MODEL 5
REMARK VINA RESULT: -6.315539709      3.270      6.559
REMARK  9 active torsions:
REMARK  status: ('A' for Active; 'I' for Inactive)
REMARK    1  A    between atoms: C2_2  and  C3_3 
REMARK    2  A    between atoms: C3_3  and  C4_4 
REMARK    3  A    between atoms: C4_4  and  C5_5 
REMARK    4  A    between atoms: C10_16  and  C11_17 
REMARK    5  A    between atoms: C11_17  and  C12_18 
REMARK    6  A    between atoms: C15_23  and  O3_24 
REMARK    7  A    between atoms: C16_26  and  C17_27 
REMARK    8  A    between atoms: C21_34  and  C22_35 
REMARK    9  A    between atoms: C25_40  and  O5_41 
ROOT
HETATM    1  C5  UNL     1       6.545 -35.303  11.151  1.00  0.00     0.082 C 
HETATM    2  N1  UNL     1       7.488 -34.726  12.051  1.00  0.00    -0.322 N 
ATOM      3  H1  UNL     1       7.378 -35.034  13.017  1.00  0.00     0.169 HD
HETATM    4  C6  UNL     1       8.530 -33.824  11.862  1.00  0.00     0.244 C 
HETATM    5  O1  UNL     1       9.599 -34.014  12.554  1.00  0.00    -0.271 OA
HETATM    6  C7  UNL     1       8.617 -32.643  10.971  1.00  0.00     0.172 C 
HETATM    7  C8  UNL     1      10.063 -32.606  10.433  1.00  0.00     0.042 C 
HETATM    8  N2  UNL     1       8.431 -31.419  11.723  1.00  0.00    -0.346 N 
ATOM      9  H2  UNL     1       8.540 -31.498  12.734  1.00  0.00     0.163 HD
HETATM   10  C9  UNL     1       8.120 -30.148  11.243  1.00  0.00     0.241 C 
HETATM   11  O2  UNL     1       8.741 -29.159  11.722  1.00  0.00    -0.271 OA
HETATM   12  C10 UNL     1       7.090 -29.830  10.183  1.00  0.00     0.176 C 
HETATM   13  N3  UNL     1       5.945 -30.664  10.409  1.00  0.00    -0.356 N 
ATOM     14  H3  UNL     1       6.122 -31.455  11.027  1.00  0.00     0.162 HD
HETATM   15  C15 UNL     1       4.622 -30.591   9.937  1.00  0.00     0.160 C 
HETATM   16  C16 UNL     1       4.078 -30.825   8.603  1.00  0.00     0.066 C 
HETATM   17  N4  UNL     1       4.087 -31.884   7.929  1.00  0.00    -0.325 N 
ATOM     18  H4  UNL     1       3.621 -31.677   7.045  1.00  0.00     0.169 HD
HETATM   19  C20 UNL     1       4.459 -33.189   7.886  1.00  0.00     0.245 C 
HETATM   20  O4  UNL     1       3.744 -34.236   7.815  1.00  0.00    -0.271 OA
HETATM   21  C21 UNL     1       5.893 -33.532   7.922  1.00  0.00     0.179 C 
HETATM   22  N5  UNL     1       6.271 -34.743   8.580  1.00  0.00    -0.355 N 
ATOM     23  H5  UNL     1       5.971 -35.547   8.028  1.00  0.00     0.162 HD
HETATM   24  C25 UNL     1       6.907 -35.167   9.713  1.00  0.00     0.163 C 
ENDROOT
BRANCH   1  25
HETATM   25  C4  UNL     1       5.126 -35.363  11.497  1.00  0.00     0.007 C 
BRANCH  25  26
HETATM   26  C3  UNL     1       4.418 -36.599  11.826  1.00  0.00     0.029 C 
BRANCH  26  27
HETATM   27  C2  UNL     1       5.223 -37.835  11.597  1.00  0.00    -0.001 C 
HETATM   28  C1  UNL     1       4.372 -39.024  11.207  1.00  0.00     0.005 C 
ENDBRANCH  26  27
ENDBRANCH  25  26
ENDBRANCH   1  25
BRANCH  24  29
HETATM   29  O5  UNL     1       8.139 -35.570   9.573  1.00  0.00    -0.345 OA
ATOM     30  H5  UNL     1       8.448 -35.270   8.726  1.00  0.00     0.219 HD
ENDBRANCH  24  29
BRANCH  21  31
HETATM   31  C22 UNL     1       6.347 -33.681   6.442  1.00  0.00     0.009 C 
HETATM   32  C23 UNL     1       7.409 -32.712   6.071  1.00  0.00     0.012 C 
HETATM   33  C24 UNL     1       6.852 -35.089   6.245  1.00  0.00     0.012 C 
ENDBRANCH  21  31
BRANCH  12  34
HETATM   34  C11 UNL     1       7.732 -29.925   8.843  1.00  0.00     0.038 C 
BRANCH  34  35
HETATM   35  C12 UNL     1       7.787 -28.553   8.180  1.00  0.00    -0.020 C 
HETATM   36  C13 UNL     1       7.532 -28.825   6.685  1.00  0.00     0.009 C 
HETATM   37  C14 UNL     1       6.696 -27.644   8.641  1.00  0.00     0.009 C 
ENDBRANCH  34  35
ENDBRANCH  12  34
BRANCH  16  38
HETATM   38  C17 UNL     1       3.353 -29.667   7.966  1.00  0.00     0.032 C 
HETATM   39  C18 UNL     1       3.878 -29.190   6.682  1.00  0.00     0.016 C 
HETATM   40  C19 UNL     1       1.874 -29.895   7.808  1.00  0.00     0.016 C 
ENDBRANCH  16  38
BRANCH  15  41
HETATM   41  O3  UNL     1       3.672 -30.265  10.791  1.00  0.00    -0.345 OA
ATOM     42  H3  UNL     1       3.854 -30.351  11.720  1.00  0.00     0.219 HD
ENDBRANCH  15  41
TORSDOF 9
ENDMDL
