MODEL 1
REMARK VINA RESULT: -7.486464262      0.000      0.000
REMARK  7 active torsions:
REMARK  status: ('A' for Active; 'I' for Inactive)
REMARK    1  A    between atoms: C2_2  and  C4_4 
REMARK    2  A    between atoms: C4_4  and  N1_5 
REMARK    3  A    between atoms: N2_10  and  C8_12 
REMARK    4  A    between atoms: N3_15  and  C11_16 
REMARK    5  A    between atoms: C11_16  and  C12_17 
REMARK    6  A    between atoms: C12_17  and  C13_18 
REMARK    7  A    between atoms: C13_18  and  N4_19 
ROOT
HETATM    1  N1  UNL     1      70.944  -2.671  52.460  1.00  0.00    -0.343 N 
HETATM    2  C5  UNL     1      70.219  -3.553  53.207  1.00  0.00     0.112 A 
HETATM    3  C6  UNL     1      69.864  -4.634  52.435  1.00  0.00     0.043 A 
HETATM    4  S1  UNL     1      68.996  -6.098  52.619  1.00  0.00    -0.052 SA
HETATM    5  C7  UNL     1      68.928  -7.028  51.203  1.00  0.00     0.150 A 
HETATM    6  N2  UNL     1      68.313  -8.182  51.101  1.00  0.00    -0.366 N 
ATOM      7  H2  UNL     1      68.305  -8.699  50.223  1.00  0.00     0.162 HD
HETATM    8  N3  UNL     1      69.575  -6.474  50.130  1.00  0.00    -0.290 N 
HETATM    9  C19 UNL     1      70.212  -5.319  50.132  1.00  0.00     0.264 A 
HETATM   10  O1  UNL     1      70.757  -4.944  49.038  1.00  0.00    -0.267 OA
HETATM   11  C20 UNL     1      70.370  -4.436  51.183  1.00  0.00     0.092 A 
HETATM   12  C21 UNL     1      71.036  -3.201  51.237  1.00  0.00     0.135 A 
HETATM   13  N6  UNL     1      71.718  -2.549  50.155  1.00  0.00    -0.081 NA
ENDROOT
BRANCH   8  14
HETATM   14  C11 UNL     1      69.478  -7.293  48.906  1.00  0.00     0.163 C 
BRANCH  14  15
HETATM   15  C12 UNL     1      70.738  -7.902  48.454  1.00  0.00     0.010 C 
BRANCH  15  16
HETATM   16  C13 UNL     1      71.633  -8.610  49.370  1.00  0.00     0.088 C 
BRANCH  16  17
HETATM   17  N4  UNL     1      72.002  -9.930  49.142  1.00  0.00    -0.367 N 
HETATM   18  C14 UNL     1      72.005 -10.430  47.835  1.00  0.00     0.082 C 
HETATM   19  C15 UNL     1      72.191 -11.929  47.826  1.00  0.00     0.161 C 
HETATM   20  N5  UNL     1      73.450 -12.248  48.409  1.00  0.00    -0.411 N 
HETATM   21  C16 UNL     1      74.506 -12.490  47.476  1.00  0.00     0.143 C 
HETATM   22  C17 UNL     1      73.857 -11.452  49.513  1.00  0.00     0.137 C 
HETATM   23  C18 UNL     1      72.759 -10.615  50.121  1.00  0.00     0.146 C 
ENDBRANCH  16  17
ENDBRANCH  15  16
ENDBRANCH  14  15
ENDBRANCH   8  14
BRANCH   6  24
HETATM   24  C8  UNL     1      67.641  -8.699  52.289  1.00  0.00     0.075 C 
HETATM   25  C9  UNL     1      66.488  -9.582  51.946  1.00  0.00     0.032 C 
HETATM   26  C10 UNL     1      68.588  -9.425  53.189  1.00  0.00     0.032 C 
ENDBRANCH   6  24
BRANCH   1  27
HETATM   27  C4  UNL     1      71.485  -1.439  52.975  1.00  0.00     0.133 C 
BRANCH  27  28
HETATM   28  C2  UNL     1      72.528  -1.618  54.015  1.00  0.00    -0.004 C 
HETATM   29  C1  UNL     1      72.852  -0.230  54.592  1.00  0.00     0.011 C 
HETATM   30  C3  UNL     1      73.824  -2.138  53.452  1.00  0.00     0.011 C 
ENDBRANCH  27  28
ENDBRANCH   1  27
TORSDOF 7
ENDMDL
MODEL 2
REMARK VINA RESULT: -7.422435417      3.477      4.215
REMARK  7 active torsions:
REMARK  status: ('A' for Active; 'I' for Inactive)
REMARK    1  A    between atoms: C2_2  and  C4_4 
REMARK    2  A    between atoms: C4_4  and  N1_5 
REMARK    3  A    between atoms: N2_10  and  C8_12 
REMARK    4  A    between atoms: N3_15  and  C11_16 
REMARK    5  A    between atoms: C11_16  and  C12_17 
REMARK    6  A    between atoms: C12_17  and  C13_18 
REMARK    7  A    between atoms: C13_18  and  N4_19 
ROOT
HETATM    1  N1  UNL     1      71.115  -5.345  47.094  1.00  0.00    -0.343 N 
HETATM    2  C5  UNL     1      69.866  -5.537  47.611  1.00  0.00     0.112 A 
HETATM    3  C6  UNL     1      69.954  -6.239  48.790  1.00  0.00     0.043 A 
HETATM    4  S1  UNL     1      68.894  -6.849  49.988  1.00  0.00    -0.052 SA
HETATM    5  C7  UNL     1      69.689  -7.660  51.246  1.00  0.00     0.150 A 
HETATM    6  N2  UNL     1      69.086  -8.217  52.269  1.00  0.00    -0.366 N 
ATOM      7  H2  UNL     1      69.616  -8.693  52.998  1.00  0.00     0.162 HD
HETATM    8  N3  UNL     1      71.053  -7.707  51.117  1.00  0.00    -0.290 N 
HETATM    9  C19 UNL     1      71.747  -7.187  50.123  1.00  0.00     0.264 A 
HETATM   10  O1  UNL     1      73.017  -7.328  50.154  1.00  0.00    -0.267 OA
HETATM   11  C20 UNL     1      71.273  -6.496  49.025  1.00  0.00     0.092 A 
HETATM   12  C21 UNL     1      71.967  -5.924  47.946  1.00  0.00     0.135 A 
HETATM   13  N6  UNL     1      73.386  -5.948  47.732  1.00  0.00    -0.081 NA
ENDROOT
BRANCH   8  14
HETATM   14  C11 UNL     1      71.715  -8.441  52.213  1.00  0.00     0.163 C 
BRANCH  14  15
HETATM   15  C12 UNL     1      71.777  -9.901  52.045  1.00  0.00     0.010 C 
BRANCH  15  16
HETATM   16  C13 UNL     1      72.873 -10.557  51.332  1.00  0.00     0.088 C 
BRANCH  16  17
HETATM   17  N4  UNL     1      72.657 -11.221  50.132  1.00  0.00    -0.367 N 
HETATM   18  C14 UNL     1      72.454 -10.483  48.960  1.00  0.00     0.082 C 
HETATM   19  C15 UNL     1      71.996 -11.371  47.828  1.00  0.00     0.161 C 
HETATM   20  N5  UNL     1      73.006 -12.338  47.554  1.00  0.00    -0.411 N 
HETATM   21  C16 UNL     1      73.866 -12.021  46.457  1.00  0.00     0.143 C 
HETATM   22  C17 UNL     1      73.706 -12.857  48.676  1.00  0.00     0.137 C 
HETATM   23  C18 UNL     1      73.056 -12.573  50.007  1.00  0.00     0.146 C 
ENDBRANCH  16  17
ENDBRANCH  15  16
ENDBRANCH  14  15
ENDBRANCH   8  14
BRANCH   6  24
HETATM   24  C8  UNL     1      67.631  -8.130  52.327  1.00  0.00     0.075 C 
HETATM   25  C9  UNL     1      67.011  -9.381  52.853  1.00  0.00     0.032 C 
HETATM   26  C10 UNL     1      67.179  -6.958  53.138  1.00  0.00     0.032 C 
ENDBRANCH   6  24
BRANCH   1  27
HETATM   27  C4  UNL     1      71.376  -4.629  45.872  1.00  0.00     0.133 C 
BRANCH  27  28
HETATM   28  C2  UNL     1      72.180  -3.394  46.050  1.00  0.00    -0.004 C 
HETATM   29  C1  UNL     1      71.211  -2.260  46.424  1.00  0.00     0.011 C 
HETATM   30  C3  UNL     1      72.851  -2.952  44.777  1.00  0.00     0.011 C 
ENDBRANCH  27  28
ENDBRANCH   1  27
TORSDOF 7
ENDMDL
MODEL 3
REMARK VINA RESULT: -7.416746483      3.507      5.794
REMARK  7 active torsions:
REMARK  status: ('A' for Active; 'I' for Inactive)
REMARK    1  A    between atoms: C2_2  and  C4_4 
REMARK    2  A    between atoms: C4_4  and  N1_5 
REMARK    3  A    between atoms: N2_10  and  C8_12 
REMARK    4  A    between atoms: N3_15  and  C11_16 
REMARK    5  A    between atoms: C11_16  and  C12_17 
REMARK    6  A    between atoms: C12_17  and  C13_18 
REMARK    7  A    between atoms: C13_18  and  N4_19 
ROOT
HETATM    1  N1  UNL     1      69.664  -7.412  51.672  1.00  0.00    -0.343 N 
HETATM    2  C5  UNL     1      69.380  -6.479  50.717  1.00  0.00     0.112 A 
HETATM    3  C6  UNL     1      70.393  -6.442  49.788  1.00  0.00     0.043 A 
HETATM    4  S1  UNL     1      70.773  -5.587  48.355  1.00  0.00    -0.052 SA
HETATM    5  C7  UNL     1      72.250  -6.047  47.663  1.00  0.00     0.150 A 
HETATM    6  N2  UNL     1      72.752  -5.526  46.569  1.00  0.00    -0.366 N 
ATOM      7  H2  UNL     1      73.648  -5.843  46.197  1.00  0.00     0.162 HD
HETATM    8  N3  UNL     1      72.916  -7.029  48.349  1.00  0.00    -0.290 N 
HETATM    9  C19 UNL     1      72.498  -7.606  49.459  1.00  0.00     0.264 A 
HETATM   10  O1  UNL     1      73.248  -8.502  49.976  1.00  0.00    -0.267 OA
HETATM   11  C20 UNL     1      71.331  -7.362  50.158  1.00  0.00     0.092 A 
HETATM   12  C21 UNL     1      70.842  -7.946  51.337  1.00  0.00     0.135 A 
HETATM   13  N6  UNL     1      71.487  -8.962  52.120  1.00  0.00    -0.081 NA
ENDROOT
BRANCH   8  14
HETATM   14  C11 UNL     1      74.209  -7.391  47.738  1.00  0.00     0.163 C 
BRANCH  14  15
HETATM   15  C12 UNL     1      74.128  -8.285  46.572  1.00  0.00     0.010 C 
BRANCH  15  16
HETATM   16  C13 UNL     1      74.800  -9.584  46.541  1.00  0.00     0.088 C 
BRANCH  16  17
HETATM   17  N4  UNL     1      74.223 -10.709  47.115  1.00  0.00    -0.367 N 
HETATM   18  C14 UNL     1      74.922 -11.419  48.097  1.00  0.00     0.082 C 
HETATM   19  C15 UNL     1      74.242 -12.730  48.411  1.00  0.00     0.161 C 
HETATM   20  N5  UNL     1      72.937 -12.470  48.920  1.00  0.00    -0.411 N 
HETATM   21  C16 UNL     1      72.825 -12.503  50.345  1.00  0.00     0.143 C 
HETATM   22  C17 UNL     1      72.234 -11.385  48.333  1.00  0.00     0.137 C 
HETATM   23  C18 UNL     1      72.821 -10.884  47.037  1.00  0.00     0.146 C 
ENDBRANCH  16  17
ENDBRANCH  15  16
ENDBRANCH  14  15
ENDBRANCH   8  14
BRANCH   6  24
HETATM   24  C8  UNL     1      71.985  -4.479  45.902  1.00  0.00     0.075 C 
HETATM   25  C9  UNL     1      72.430  -3.112  46.301  1.00  0.00     0.032 C 
HETATM   26  C10 UNL     1      72.036  -4.618  44.415  1.00  0.00     0.032 C 
ENDBRANCH   6  24
BRANCH   1  27
HETATM   27  C4  UNL     1      68.796  -7.713  52.782  1.00  0.00     0.133 C 
BRANCH  27  28
HETATM   28  C2  UNL     1      67.373  -7.904  52.409  1.00  0.00    -0.004 C 
HETATM   29  C1  UNL     1      66.558  -6.805  53.112  1.00  0.00     0.011 C 
HETATM   30  C3  UNL     1      66.813  -9.209  52.909  1.00  0.00     0.011 C 
ENDBRANCH  27  28
ENDBRANCH   1  27
TORSDOF 7
ENDMDL
MODEL 4
REMARK VINA RESULT: -7.388593633      3.579      6.587
REMARK  7 active torsions:
REMARK  status: ('A' for Active; 'I' for Inactive)
REMARK    1  A    between atoms: C2_2  and  C4_4 
REMARK    2  A    between atoms: C4_4  and  N1_5 
REMARK    3  A    between atoms: N2_10  and  C8_12 
REMARK    4  A    between atoms: N3_15  and  C11_16 
REMARK    5  A    between atoms: C11_16  and  C12_17 
REMARK    6  A    between atoms: C12_17  and  C13_18 
REMARK    7  A    between atoms: C13_18  and  N4_19 
ROOT
HETATM    1  N1  UNL     1      72.535  -3.761  46.494  1.00  0.00    -0.343 N 
HETATM    2  C5  UNL     1      73.373  -4.478  47.297  1.00  0.00     0.112 A 
HETATM    3  C6  UNL     1      72.700  -5.552  47.830  1.00  0.00     0.043 A 
HETATM    4  S1  UNL     1      73.027  -6.864  48.881  1.00  0.00    -0.052 SA
HETATM    5  C7  UNL     1      71.691  -7.874  49.139  1.00  0.00     0.150 A 
HETATM    6  N2  UNL     1      71.701  -8.935  49.910  1.00  0.00    -0.366 N 
ATOM      7  H2  UNL     1      70.865  -9.509  50.029  1.00  0.00     0.162 HD
HETATM    8  N3  UNL     1      70.556  -7.494  48.473  1.00  0.00    -0.290 N 
HETATM    9  C19 UNL     1      70.446  -6.441  47.685  1.00  0.00     0.264 A 
HETATM   10  O1  UNL     1      69.307  -6.225  47.145  1.00  0.00    -0.267 OA
HETATM   11  C20 UNL     1      71.419  -5.516  47.361  1.00  0.00     0.092 A 
HETATM   12  C21 UNL     1      71.353  -4.385  46.531  1.00  0.00     0.135 A 
HETATM   13  N6  UNL     1      70.201  -3.913  45.817  1.00  0.00    -0.081 NA
ENDROOT
BRANCH   8  14
HETATM   14  C11 UNL     1      69.403  -8.377  48.737  1.00  0.00     0.163 C 
BRANCH  14  15
HETATM   15  C12 UNL     1      68.385  -7.829  49.645  1.00  0.00     0.010 C 
BRANCH  15  16
HETATM   16  C13 UNL     1      68.395  -8.103  51.082  1.00  0.00     0.088 C 
BRANCH  16  17
HETATM   17  N4  UNL     1      68.762  -7.127  52.000  1.00  0.00    -0.367 N 
HETATM   18  C14 UNL     1      69.849  -6.291  51.723  1.00  0.00     0.082 C 
HETATM   19  C15 UNL     1      70.235  -5.477  52.934  1.00  0.00     0.161 C 
HETATM   20  N5  UNL     1      69.141  -4.645  53.307  1.00  0.00    -0.411 N 
HETATM   21  C16 UNL     1      69.221  -3.295  52.843  1.00  0.00     0.143 C 
HETATM   22  C17 UNL     1      67.843  -5.205  53.164  1.00  0.00     0.137 C 
HETATM   23  C18 UNL     1      67.823  -6.700  52.968  1.00  0.00     0.146 C 
ENDBRANCH  16  17
ENDBRANCH  15  16
ENDBRANCH  14  15
ENDBRANCH   8  14
BRANCH   6  24
HETATM   24  C8  UNL     1      72.948  -9.268  50.591  1.00  0.00     0.075 C 
HETATM   25  C9  UNL     1      72.840  -9.119  52.071  1.00  0.00     0.032 C 
HETATM   26  C10 UNL     1      73.413 -10.647  50.250  1.00  0.00     0.032 C 
ENDBRANCH   6  24
BRANCH   1  27
HETATM   27  C4  UNL     1      72.933  -2.582  45.768  1.00  0.00     0.133 C 
BRANCH  27  28
HETATM   28  C2  UNL     1      73.848  -2.848  44.629  1.00  0.00    -0.004 C 
HETATM   29  C1  UNL     1      74.221  -1.492  44.008  1.00  0.00     0.011 C 
HETATM   30  C3  UNL     1      73.188  -3.633  43.527  1.00  0.00     0.011 C 
ENDBRANCH  27  28
ENDBRANCH   1  27
TORSDOF 7
ENDMDL
MODEL 5
REMARK VINA RESULT: -7.361710042      3.915      9.064
REMARK  7 active torsions:
REMARK  status: ('A' for Active; 'I' for Inactive)
REMARK    1  A    between atoms: C2_2  and  C4_4 
REMARK    2  A    between atoms: C4_4  and  N1_5 
REMARK    3  A    between atoms: N2_10  and  C8_12 
REMARK    4  A    between atoms: N3_15  and  C11_16 
REMARK    5  A    between atoms: C11_16  and  C12_17 
REMARK    6  A    between atoms: C12_17  and  C13_18 
REMARK    7  A    between atoms: C13_18  and  N4_19 
ROOT
HETATM    1  N1  UNL     1      69.416  -6.517  51.953  1.00  0.00    -0.343 N 
HETATM    2  C5  UNL     1      69.796  -6.905  50.701  1.00  0.00     0.112 A 
HETATM    3  C6  UNL     1      70.461  -5.876  50.077  1.00  0.00     0.043 A 
HETATM    4  S1  UNL     1      71.215  -5.579  48.569  1.00  0.00    -0.052 SA
HETATM    5  C7  UNL     1      71.877  -4.024  48.438  1.00  0.00     0.150 A 
HETATM    6  N2  UNL     1      72.497  -3.568  47.375  1.00  0.00    -0.366 N 
ATOM      7  H2  UNL     1      72.877  -2.622  47.352  1.00  0.00     0.162 HD
HETATM    8  N3  UNL     1      71.712  -3.242  49.550  1.00  0.00    -0.290 N 
HETATM    9  C19 UNL     1      71.097  -3.607  50.659  1.00  0.00     0.264 A 
HETATM   10  O1  UNL     1      71.024  -2.748  51.603  1.00  0.00    -0.267 OA
HETATM   11  C20 UNL     1      70.505  -4.822  50.943  1.00  0.00     0.092 A 
HETATM   12  C21 UNL     1      69.843  -5.259  52.102  1.00  0.00     0.135 A 
HETATM   13  N6  UNL     1      69.614  -4.495  53.296  1.00  0.00    -0.081 NA
ENDROOT
BRANCH   8  14
HETATM   14  C11 UNL     1      72.275  -1.886  49.397  1.00  0.00     0.163 C 
BRANCH  14  15
HETATM   15  C12 UNL     1      71.295  -0.790  49.421  1.00  0.00     0.010 C 
BRANCH  15  16
HETATM   16  C13 UNL     1      70.879  -0.092  48.205  1.00  0.00     0.088 C 
BRANCH  16  17
HETATM   17  N4  UNL     1      70.094   1.052  48.263  1.00  0.00    -0.367 N 
HETATM   18  C14 UNL     1      68.744   0.982  47.902  1.00  0.00     0.082 C 
HETATM   19  C15 UNL     1      68.135   2.360  47.795  1.00  0.00     0.161 C 
HETATM   20  N5  UNL     1      68.206   3.003  49.064  1.00  0.00    -0.411 N 
HETATM   21  C16 UNL     1      67.005   2.945  49.840  1.00  0.00     0.143 C 
HETATM   22  C17 UNL     1      69.375   2.759  49.832  1.00  0.00     0.137 C 
HETATM   23  C18 UNL     1      70.515   2.141  49.062  1.00  0.00     0.146 C 
ENDBRANCH  16  17
ENDBRANCH  15  16
ENDBRANCH  14  15
ENDBRANCH   8  14
BRANCH   6  24
HETATM   24  C8  UNL     1      72.624  -4.462  46.229  1.00  0.00     0.075 C 
HETATM   25  C9  UNL     1      71.781  -4.027  45.078  1.00  0.00     0.032 C 
HETATM   26  C10 UNL     1      74.047  -4.603  45.793  1.00  0.00     0.032 C 
ENDBRANCH   6  24
BRANCH   1  27
HETATM   27  C4  UNL     1      68.713  -7.368  52.878  1.00  0.00     0.133 C 
BRANCH  27  28
HETATM   28  C2  UNL     1      67.315  -7.672  52.483  1.00  0.00    -0.004 C 
HETATM   29  C1  UNL     1      66.403  -6.642  53.171  1.00  0.00     0.011 C 
HETATM   30  C3  UNL     1      66.854  -9.017  52.978  1.00  0.00     0.011 C 
ENDBRANCH  27  28
ENDBRANCH   1  27
TORSDOF 7
ENDMDL
