MODEL 1
REMARK VINA RESULT: -8.998453327      0.000      0.000
REMARK  7 active torsions:
REMARK  status: ('A' for Active; 'I' for Inactive)
REMARK    1  A    between atoms: C2_2  and  O2_4 
REMARK    2  A    between atoms: O2_4  and  C3_5 
REMARK    3  A    between atoms: C4_7  and  C5_8 
REMARK    4  A    between atoms: C5_8  and  C6_9 
REMARK    5  A    between atoms: C11_17  and  O7_18 
REMARK    6  A    between atoms: O7_18  and  C12_19 
REMARK    7  A    between atoms: C12_19  and  C13_20 
ROOT
HETATM    1  C3  UNL     1      69.289  -7.783  52.308  1.00  0.00     0.299 C 
HETATM    2  O3  UNL     1      70.532  -7.872  52.912  1.00  0.00    -0.352 OA
HETATM    3  C4  UNL     1      71.561  -8.119  52.032  1.00  0.00     0.135 C 
HETATM    4  C7  UNL     1      71.515  -7.439  50.737  1.00  0.00     0.040 C 
HETATM    5  C8  UNL     1      70.269  -6.767  50.329  1.00  0.00     0.033 C 
HETATM    6  C9  UNL     1      70.446  -5.298  49.992  1.00  0.00     0.072 C 
HETATM    7  C10 UNL     1      71.620  -4.970  49.179  1.00  0.00     0.183 C 
HETATM    8  O6  UNL     1      72.331  -3.962  49.875  1.00  0.00    -0.338 OA
HETATM    9  C11 UNL     1      71.352  -3.008  50.234  1.00  0.00     0.415 C 
HETATM   10  O8  UNL     1      70.650  -3.435  51.384  1.00  0.00    -0.308 OA
HETATM   11  C20 UNL     1      70.663  -4.796  51.429  1.00  0.00     0.272 C 
HETATM   12  O9  UNL     1      69.644  -5.398  52.113  1.00  0.00    -0.350 OA
HETATM   13  C21 UNL     1      69.276  -6.556  51.475  1.00  0.00     0.185 C 
ENDROOT
BRANCH   9  14
HETATM   14  O7  UNL     1      71.899  -1.760  50.405  1.00  0.00    -0.335 OA
BRANCH  14  15
HETATM   15  C12 UNL     1      71.460  -0.926  49.390  1.00  0.00     0.201 C 
BRANCH  15  16
HETATM   16  C13 UNL     1      70.741   0.265  49.911  1.00  0.00     0.002 C 
HETATM   17  C14 UNL     1      70.002   0.994  49.091  1.00  0.00    -0.082 C 
HETATM   18  C15 UNL     1      69.268   2.193  49.575  1.00  0.00     0.034 C 
HETATM   19  C19 UNL     1      69.883   0.633  47.657  1.00  0.00     0.034 C 
HETATM   20  C16 UNL     1      67.801   2.036  49.212  1.00  0.00     0.004 C 
HETATM   21  C17 UNL     1      67.650   1.664  47.768  1.00  0.00     0.001 C 
HETATM   22  C18 UNL     1      68.955   1.640  47.016  1.00  0.00     0.004 C 
ENDBRANCH  15  16
ENDBRANCH  14  15
ENDBRANCH   9  14
BRANCH   1  23
HETATM   23  O2  UNL     1      68.275  -7.844  53.259  1.00  0.00    -0.287 OA
BRANCH  23  24
HETATM   24  C2  UNL     1      66.968  -8.098  52.898  1.00  0.00     0.257 C 
HETATM   25  C1  UNL     1      66.592  -9.477  52.470  1.00  0.00     0.126 C 
HETATM   26  O1  UNL     1      66.149  -7.146  52.947  1.00  0.00    -0.266 OA
ENDBRANCH  23  24
ENDBRANCH   1  23
BRANCH   3  27
HETATM   27  C5  UNL     1      71.641  -9.635  51.856  1.00  0.00     0.145 C 
BRANCH  27  28
HETATM   28  C6  UNL     1      72.976 -10.155  52.124  1.00  0.00     0.175 C 
HETATM   29  O4  UNL     1      73.821  -9.458  52.723  1.00  0.00    -0.648 OA
HETATM   30  O5  UNL     1      73.322 -11.426  51.716  1.00  0.00    -0.648 OA
ENDBRANCH  27  28
ENDBRANCH   3  27
TORSDOF 7
ENDMDL
MODEL 2
REMARK VINA RESULT: -8.737547575      1.800      3.839
REMARK  7 active torsions:
REMARK  status: ('A' for Active; 'I' for Inactive)
REMARK    1  A    between atoms: C2_2  and  O2_4 
REMARK    2  A    between atoms: O2_4  and  C3_5 
REMARK    3  A    between atoms: C4_7  and  C5_8 
REMARK    4  A    between atoms: C5_8  and  C6_9 
REMARK    5  A    between atoms: C11_17  and  O7_18 
REMARK    6  A    between atoms: O7_18  and  C12_19 
REMARK    7  A    between atoms: C12_19  and  C13_20 
ROOT
HETATM    1  C3  UNL     1      70.592  -7.319  50.530  1.00  0.00     0.299 C 
HETATM    2  O3  UNL     1      69.302  -7.059  50.096  1.00  0.00    -0.352 OA
HETATM    3  C4  UNL     1      68.381  -6.966  51.113  1.00  0.00     0.135 C 
HETATM    4  C7  UNL     1      68.801  -6.287  52.340  1.00  0.00     0.040 C 
HETATM    5  C8  UNL     1      70.232  -5.997  52.539  1.00  0.00     0.033 C 
HETATM    6  C9  UNL     1      70.532  -4.531  52.789  1.00  0.00     0.072 C 
HETATM    7  C10 UNL     1      69.628  -3.847  53.718  1.00  0.00     0.183 C 
HETATM    8  O6  UNL     1      69.143  -2.698  53.046  1.00  0.00    -0.338 OA
HETATM    9  C11 UNL     1      70.293  -2.084  52.499  1.00  0.00     0.415 C 
HETATM   10  O8  UNL     1      70.674  -2.735  51.304  1.00  0.00    -0.308 OA
HETATM   11  C20 UNL     1      70.267  -4.034  51.358  1.00  0.00     0.272 C 
HETATM   12  O9  UNL     1      70.964  -4.930  50.596  1.00  0.00    -0.350 OA
HETATM   13  C21 UNL     1      71.072  -6.123  51.265  1.00  0.00     0.185 C 
ENDROOT
BRANCH   9  14
HETATM   14  O7  UNL     1      70.106  -0.737  52.308  1.00  0.00    -0.335 OA
BRANCH  14  15
HETATM   15  C12 UNL     1      70.882  -0.317  51.240  1.00  0.00     0.201 C 
BRANCH  15  16
HETATM   16  C13 UNL     1      70.548   1.066  50.811  1.00  0.00     0.002 C 
HETATM   17  C14 UNL     1      70.132   1.285  49.575  1.00  0.00    -0.082 C 
HETATM   18  C15 UNL     1      69.789   2.655  49.109  1.00  0.00     0.034 C 
HETATM   19  C19 UNL     1      69.994   0.165  48.613  1.00  0.00     0.034 C 
HETATM   20  C16 UNL     1      68.374   2.632  48.556  1.00  0.00     0.004 C 
HETATM   21  C17 UNL     1      68.203   1.504  47.585  1.00  0.00     0.001 C 
HETATM   22  C18 UNL     1      69.477   0.747  47.317  1.00  0.00     0.004 C 
ENDBRANCH  15  16
ENDBRANCH  14  15
ENDBRANCH   9  14
BRANCH   1  23
HETATM   23  O2  UNL     1      71.401  -7.705  49.467  1.00  0.00    -0.287 OA
BRANCH  23  24
HETATM   24  C2  UNL     1      71.835  -9.007  49.332  1.00  0.00     0.257 C 
HETATM   25  C1  UNL     1      71.674  -9.688  48.014  1.00  0.00     0.126 C 
HETATM   26  O1  UNL     1      72.350  -9.563  50.334  1.00  0.00    -0.266 OA
ENDBRANCH  23  24
ENDBRANCH   1  23
BRANCH   3  27
HETATM   27  C5  UNL     1      67.897  -8.385  51.407  1.00  0.00     0.145 C 
BRANCH  27  28
HETATM   28  C6  UNL     1      67.389  -8.529  52.765  1.00  0.00     0.175 C 
HETATM   29  O4  UNL     1      68.048  -9.147  53.628  1.00  0.00    -0.648 OA
HETATM   30  O5  UNL     1      66.172  -7.983  53.115  1.00  0.00    -0.648 OA
ENDBRANCH  27  28
ENDBRANCH   3  27
TORSDOF 7
ENDMDL
MODEL 3
REMARK VINA RESULT: -8.670174887      2.399      3.916
REMARK  7 active torsions:
REMARK  status: ('A' for Active; 'I' for Inactive)
REMARK    1  A    between atoms: C2_2  and  O2_4 
REMARK    2  A    between atoms: O2_4  and  C3_5 
REMARK    3  A    between atoms: C4_7  and  C5_8 
REMARK    4  A    between atoms: C5_8  and  C6_9 
REMARK    5  A    between atoms: C11_17  and  O7_18 
REMARK    6  A    between atoms: O7_18  and  C12_19 
REMARK    7  A    between atoms: C12_19  and  C13_20 
ROOT
HETATM    1  C3  UNL     1      70.344  -6.210  50.368  1.00  0.00     0.299 C 
HETATM    2  O3  UNL     1      69.022  -5.897  50.639  1.00  0.00    -0.352 OA
HETATM    3  C4  UNL     1      68.741  -5.786  51.981  1.00  0.00     0.135 C 
HETATM    4  C7  UNL     1      69.747  -5.143  52.827  1.00  0.00     0.040 C 
HETATM    5  C8  UNL     1      71.094  -4.907  52.279  1.00  0.00     0.033 C 
HETATM    6  C9  UNL     1      71.536  -3.457  52.337  1.00  0.00     0.072 C 
HETATM    7  C10 UNL     1      71.248  -2.755  53.591  1.00  0.00     0.183 C 
HETATM    8  O6  UNL     1      70.537  -1.580  53.249  1.00  0.00    -0.338 OA
HETATM    9  C11 UNL     1      71.280  -0.999  52.195  1.00  0.00     0.415 C 
HETATM   10  O8  UNL     1      70.983  -1.645  50.973  1.00  0.00    -0.308 OA
HETATM   11  C20 UNL     1      70.608  -2.929  51.231  1.00  0.00     0.272 C 
HETATM   12  O9  UNL     1      70.792  -3.837  50.226  1.00  0.00    -0.350 OA
HETATM   13  C21 UNL     1      71.175  -5.044  50.756  1.00  0.00     0.185 C 
ENDROOT
BRANCH   9  14
HETATM   14  O7  UNL     1      71.076   0.356  52.117  1.00  0.00    -0.335 OA
BRANCH  14  15
HETATM   15  C12 UNL     1      71.570   0.823  50.910  1.00  0.00     0.201 C 
BRANCH  15  16
HETATM   16  C13 UNL     1      70.852   2.035  50.438  1.00  0.00     0.002 C 
HETATM   17  C14 UNL     1      70.111   1.972  49.344  1.00  0.00    -0.082 C 
HETATM   18  C15 UNL     1      69.378   3.163  48.840  1.00  0.00     0.034 C 
HETATM   19  C19 UNL     1      69.990   0.704  48.584  1.00  0.00     0.034 C 
HETATM   20  C16 UNL     1      67.910   2.797  48.696  1.00  0.00     0.004 C 
HETATM   21  C17 UNL     1      67.757   1.514  47.938  1.00  0.00     0.001 C 
HETATM   22  C18 UNL     1      69.060   0.965  47.420  1.00  0.00     0.004 C 
ENDBRANCH  15  16
ENDBRANCH  14  15
ENDBRANCH   9  14
BRANCH   1  23
HETATM   23  O2  UNL     1      70.494  -6.608  49.044  1.00  0.00    -0.287 OA
BRANCH  23  24
HETATM   24  C2  UNL     1      69.402  -6.777  48.218  1.00  0.00     0.257 C 
HETATM   25  C1  UNL     1      68.697  -8.093  48.213  1.00  0.00     0.126 C 
HETATM   26  O1  UNL     1      69.050  -5.807  47.501  1.00  0.00    -0.266 OA
ENDBRANCH  23  24
ENDBRANCH   1  23
BRANCH   3  27
HETATM   27  C5  UNL     1      68.415  -7.191  52.485  1.00  0.00     0.145 C 
BRANCH  27  28
HETATM   28  C6  UNL     1      67.037  -7.310  52.946  1.00  0.00     0.175 C 
HETATM   29  O4  UNL     1      66.393  -6.296  53.289  1.00  0.00    -0.648 OA
HETATM   30  O5  UNL     1      66.429  -8.546  53.010  1.00  0.00    -0.648 OA
ENDBRANCH  27  28
ENDBRANCH   3  27
TORSDOF 7
ENDMDL
MODEL 4
REMARK VINA RESULT: -8.660840201      3.603      7.685
REMARK  7 active torsions:
REMARK  status: ('A' for Active; 'I' for Inactive)
REMARK    1  A    between atoms: C2_2  and  O2_4 
REMARK    2  A    between atoms: O2_4  and  C3_5 
REMARK    3  A    between atoms: C4_7  and  C5_8 
REMARK    4  A    between atoms: C5_8  and  C6_9 
REMARK    5  A    between atoms: C11_17  and  O7_18 
REMARK    6  A    between atoms: O7_18  and  C12_19 
REMARK    7  A    between atoms: C12_19  and  C13_20 
ROOT
HETATM    1  C3  UNL     1      69.857  -4.828  52.507  1.00  0.00     0.299 C 
HETATM    2  O3  UNL     1      70.016  -6.104  53.021  1.00  0.00    -0.352 OA
HETATM    3  C4  UNL     1      69.248  -7.057  52.391  1.00  0.00     0.135 C 
HETATM    4  C7  UNL     1      69.112  -6.956  50.937  1.00  0.00     0.040 C 
HETATM    5  C8  UNL     1      69.547  -5.719  50.265  1.00  0.00     0.033 C 
HETATM    6  C9  UNL     1      70.574  -5.943  49.172  1.00  0.00     0.072 C 
HETATM    7  C10 UNL     1      70.311  -7.073  48.276  1.00  0.00     0.183 C 
HETATM    8  O6  UNL     1      71.476  -7.878  48.281  1.00  0.00    -0.338 OA
HETATM    9  C11 UNL     1      72.545  -6.974  48.086  1.00  0.00     0.415 C 
HETATM   10  O8  UNL     1      72.872  -6.332  49.303  1.00  0.00    -0.308 OA
HETATM   11  C20 UNL     1      71.760  -6.282  50.089  1.00  0.00     0.272 C 
HETATM   12  O9  UNL     1      71.712  -5.284  51.022  1.00  0.00    -0.350 OA
HETATM   13  C21 UNL     1      70.427  -4.818  51.137  1.00  0.00     0.185 C 
ENDROOT
BRANCH   9  14
HETATM   14  O7  UNL     1      73.636  -7.592  47.527  1.00  0.00    -0.335 OA
BRANCH  14  15
HETATM   15  C12 UNL     1      74.479  -8.029  48.536  1.00  0.00     0.201 C 
BRANCH  15  16
HETATM   16  C13 UNL     1      74.536  -9.511  48.621  1.00  0.00     0.002 C 
HETATM   17  C14 UNL     1      74.244 -10.113  49.761  1.00  0.00    -0.082 C 
HETATM   18  C15 UNL     1      74.289 -11.594  49.885  1.00  0.00     0.034 C 
HETATM   19  C19 UNL     1      73.860  -9.323  50.958  1.00  0.00     0.034 C 
HETATM   20  C16 UNL     1      72.943 -12.074  50.398  1.00  0.00     0.004 C 
HETATM   21  C17 UNL     1      72.525 -11.288  51.604  1.00  0.00     0.001 C 
HETATM   22  C18 UNL     1      73.567 -10.306  52.069  1.00  0.00     0.004 C 
ENDBRANCH  15  16
ENDBRANCH  14  15
ENDBRANCH   9  14
BRANCH   1  23
HETATM   23  O2  UNL     1      70.405  -3.880  53.365  1.00  0.00    -0.287 OA
BRANCH  23  24
HETATM   24  C2  UNL     1      70.640  -2.587  52.948  1.00  0.00     0.257 C 
HETATM   25  C1  UNL     1      72.050  -2.104  52.854  1.00  0.00     0.126 C 
HETATM   26  O1  UNL     1      69.649  -1.869  52.665  1.00  0.00    -0.266 OA
ENDBRANCH  23  24
ENDBRANCH   1  23
BRANCH   3  27
HETATM   27  C5  UNL     1      67.882  -7.051  53.075  1.00  0.00     0.145 C 
BRANCH  27  28
HETATM   28  C6  UNL     1      67.347  -8.394  53.257  1.00  0.00     0.175 C 
HETATM   29  O4  UNL     1      66.120  -8.609  53.152  1.00  0.00    -0.648 OA
HETATM   30  O5  UNL     1      68.190  -9.445  53.550  1.00  0.00    -0.648 OA
ENDBRANCH  27  28
ENDBRANCH   3  27
TORSDOF 7
ENDMDL
MODEL 5
REMARK VINA RESULT: -8.660106010      0.746      1.193
REMARK  7 active torsions:
REMARK  status: ('A' for Active; 'I' for Inactive)
REMARK    1  A    between atoms: C2_2  and  O2_4 
REMARK    2  A    between atoms: O2_4  and  C3_5 
REMARK    3  A    between atoms: C4_7  and  C5_8 
REMARK    4  A    between atoms: C5_8  and  C6_9 
REMARK    5  A    between atoms: C11_17  and  O7_18 
REMARK    6  A    between atoms: O7_18  and  C12_19 
REMARK    7  A    between atoms: C12_19  and  C13_20 
ROOT
HETATM    1  C3  UNL     1      69.198  -7.103  52.295  1.00  0.00     0.299 C 
HETATM    2  O3  UNL     1      70.468  -7.346  52.792  1.00  0.00    -0.352 OA
HETATM    3  C4  UNL     1      71.416  -7.554  51.817  1.00  0.00     0.135 C 
HETATM    4  C7  UNL     1      71.339  -6.722  50.616  1.00  0.00     0.040 C 
HETATM    5  C8  UNL     1      70.123  -5.924  50.379  1.00  0.00     0.033 C 
HETATM    6  C9  UNL     1      70.387  -4.440  50.203  1.00  0.00     0.072 C 
HETATM    7  C10 UNL     1      71.528  -4.095  49.349  1.00  0.00     0.183 C 
HETATM    8  O6  UNL     1      72.356  -3.229  50.103  1.00  0.00    -0.338 OA
HETATM    9  C11 UNL     1      71.477  -2.261  50.640  1.00  0.00     0.415 C 
HETATM   10  O8  UNL     1      70.820  -2.776  51.781  1.00  0.00    -0.308 OA
HETATM   11  C20 UNL     1      70.733  -4.130  51.668  1.00  0.00     0.272 C 
HETATM   12  O9  UNL     1      69.718  -4.741  52.351  1.00  0.00    -0.350 OA
HETATM   13  C21 UNL     1      69.224  -5.786  51.612  1.00  0.00     0.185 C 
ENDROOT
BRANCH   9  14
HETATM   14  O7  UNL     1      72.126  -1.083  50.914  1.00  0.00    -0.335 OA
BRANCH  14  15
HETATM   15  C12 UNL     1      71.299  -0.020  50.589  1.00  0.00     0.201 C 
BRANCH  15  16
HETATM   16  C13 UNL     1      70.894  -0.039  49.160  1.00  0.00     0.002 C 
HETATM   17  C14 UNL     1      69.832   0.649  48.772  1.00  0.00    -0.082 C 
HETATM   18  C15 UNL     1      69.395   0.655  47.351  1.00  0.00     0.034 C 
HETATM   19  C19 UNL     1      69.042   1.438  49.749  1.00  0.00     0.034 C 
HETATM   20  C16 UNL     1      69.305   2.097  46.883  1.00  0.00     0.004 C 
HETATM   21  C17 UNL     1      68.518   2.921  47.856  1.00  0.00     0.001 C 
HETATM   22  C18 UNL     1      67.929   2.116  48.984  1.00  0.00     0.004 C 
ENDBRANCH  15  16
ENDBRANCH  14  15
ENDBRANCH   9  14
BRANCH   1  23
HETATM   23  O2  UNL     1      68.246  -7.209  53.303  1.00  0.00    -0.287 OA
BRANCH  23  24
HETATM   24  C2  UNL     1      66.990  -7.719  53.051  1.00  0.00     0.257 C 
HETATM   25  C1  UNL     1      66.818  -9.199  52.951  1.00  0.00     0.126 C 
HETATM   26  O1  UNL     1      66.040  -6.907  52.917  1.00  0.00    -0.266 OA
ENDBRANCH  23  24
ENDBRANCH   1  23
BRANCH   3  27
HETATM   27  C5  UNL     1      71.371  -9.040  51.462  1.00  0.00     0.145 C 
BRANCH  27  28
HETATM   28  C6  UNL     1      72.481  -9.783  52.042  1.00  0.00     0.175 C 
HETATM   29  O4  UNL     1      73.359  -9.197  52.710  1.00  0.00    -0.648 OA
HETATM   30  O5  UNL     1      72.577 -11.147  51.858  1.00  0.00    -0.648 OA
ENDBRANCH  27  28
ENDBRANCH   3  27
TORSDOF 7
ENDMDL
