MODEL 1
REMARK VINA RESULT: -5.852291981      0.000      0.000
REMARK  1 active torsions:
REMARK  status: ('A' for Active; 'I' for Inactive)
REMARK    1  A    between atoms: C11_16  and  O1_18 
ROOT
HETATM    1  C1  UNL     1      22.074   4.446  20.667  1.00  0.00     0.043 C 
HETATM    2  C2  UNL     1      22.398   3.007  20.550  1.00  0.00    -0.079 C 
HETATM    3  C3  UNL     1      23.283   2.614  19.422  1.00  0.00     0.043 C 
HETATM    4  C4  UNL     1      21.930   2.044  21.341  1.00  0.00    -0.017 C 
HETATM    5  C5  UNL     1      22.343   0.664  21.104  1.00  0.00     0.237 C 
HETATM    6  N1  UNL     1      23.168  -0.049  22.011  1.00  0.00     0.031 N 
HETATM    7  C6  UNL     1      23.554  -1.276  21.227  1.00  0.00     0.308 C 
HETATM    8  C7  UNL     1      24.400   0.508  22.417  1.00  0.00     0.271 C 
HETATM    9  C8  UNL     1      24.710   0.632  23.861  1.00  0.00     0.046 C 
HETATM   10  C9  UNL     1      23.898  -0.170  24.822  1.00  0.00     0.120 C 
HETATM   11  C10 UNL     1      23.052  -1.173  24.116  1.00  0.00     0.347 C 
HETATM   12  F1  UNL     1      23.923  -2.171  23.606  1.00  0.00    -0.181 F 
HETATM   13  F2  UNL     1      22.203  -1.901  24.906  1.00  0.00    -0.181 F 
HETATM   14  N2  UNL     1      22.365  -0.576  23.021  1.00  0.00    -0.182 N 
ATOM     15  H2  UNL     1      21.347  -0.538  22.978  1.00  0.00     0.194 HD
HETATM   16  C11 UNL     1      23.272   0.585  25.960  1.00  0.00     0.086 C 
HETATM   17  C12 UNL     1      24.199   1.767  26.245  1.00  0.00     0.048 C 
HETATM   18  C13 UNL     1      21.848   0.817  25.998  1.00  0.00     0.146 C 
HETATM   19 CL1  UNL     1      21.037  -0.130  27.331  1.00  0.00    -0.117 Cl
HETATM   20  C14 UNL     1      21.219   2.146  26.075  1.00  0.00    -0.057 C 
HETATM   21  C15 UNL     1      21.077   2.842  27.169  1.00  0.00    -0.084 C 
HETATM   22  C16 UNL     1      20.423   4.189  27.096  1.00  0.00     0.043 C 
HETATM   23  C17 UNL     1      21.443   2.374  28.513  1.00  0.00     0.043 C 
HETATM   24  C18 UNL     1      20.571   2.722  24.829  1.00  0.00     0.037 C 
HETATM   25  C19 UNL     1      21.456   2.932  23.668  1.00  0.00     0.025 C 
HETATM   26  C20 UNL     1      20.936   2.470  22.357  1.00  0.00     0.092 C 
HETATM   27 BR1  UNL     1      19.519   1.127  22.518  1.00  0.00    -0.086 Br
ENDROOT
BRANCH  16  28
HETATM   28  O1  UNL     1      23.581  -0.262  27.104  1.00  0.00    -0.388 OA
ATOM     29  H1  UNL     1      22.809  -0.160  27.647  1.00  0.00     0.210 HD
ENDBRANCH  16  28
TORSDOF 1
ENDMDL
MODEL 2
REMARK VINA RESULT: -5.760120176      1.229      1.419
REMARK  1 active torsions:
REMARK  status: ('A' for Active; 'I' for Inactive)
REMARK    1  A    between atoms: C11_16  and  O1_18 
ROOT
HETATM    1  C1  UNL     1      21.777   5.420  22.245  1.00  0.00     0.043 C 
HETATM    2  C2  UNL     1      22.099   4.189  21.489  1.00  0.00    -0.079 C 
HETATM    3  C3  UNL     1      22.882   4.363  20.237  1.00  0.00     0.043 C 
HETATM    4  C4  UNL     1      21.709   2.959  21.815  1.00  0.00    -0.017 C 
HETATM    5  C5  UNL     1      22.108   1.838  20.971  1.00  0.00     0.237 C 
HETATM    6  N1  UNL     1      23.015   0.840  21.410  1.00  0.00     0.031 N 
HETATM    7  C6  UNL     1      23.338   0.092  20.143  1.00  0.00     0.308 C 
HETATM    8  C7  UNL     1      24.275   1.220  21.921  1.00  0.00     0.271 C 
HETATM    9  C8  UNL     1      24.711   0.720  23.246  1.00  0.00     0.046 C 
HETATM   10  C9  UNL     1      23.994  -0.453  23.822  1.00  0.00     0.120 C 
HETATM   11  C10 UNL     1      23.095  -1.088  22.818  1.00  0.00     0.347 C 
HETATM   12  F1  UNL     1      23.923  -1.727  21.858  1.00  0.00    -0.181 F 
HETATM   13  F2  UNL     1      22.324  -2.124  23.276  1.00  0.00    -0.181 F 
HETATM   14  N2  UNL     1      22.309  -0.108  22.149  1.00  0.00    -0.182 N 
ATOM     15  H2  UNL     1      21.291  -0.100  22.206  1.00  0.00     0.194 HD
HETATM   16  C11 UNL     1      23.467  -0.294  25.220  1.00  0.00     0.086 C 
HETATM   17  C12 UNL     1      24.408   0.688  25.918  1.00  0.00     0.048 C 
HETATM   18  C13 UNL     1      22.050  -0.165  25.465  1.00  0.00     0.146 C 
HETATM   19 CL1  UNL     1      21.367  -1.631  26.312  1.00  0.00    -0.117 Cl
HETATM   20  C14 UNL     1      21.422   0.970  26.161  1.00  0.00    -0.057 C 
HETATM   21  C15 UNL     1      21.374   1.117  27.457  1.00  0.00    -0.084 C 
HETATM   22  C16 UNL     1      20.708   2.332  28.028  1.00  0.00     0.043 C 
HETATM   23  C17 UNL     1      21.862   0.129  28.430  1.00  0.00     0.043 C 
HETATM   24  C18 UNL     1      20.662   1.999  25.345  1.00  0.00     0.037 C 
HETATM   25  C19 UNL     1      21.438   2.730  24.326  1.00  0.00     0.025 C 
HETATM   26  C20 UNL     1      20.807   2.859  22.990  1.00  0.00     0.092 C 
HETATM   27 BR1  UNL     1      19.419   1.517  22.659  1.00  0.00    -0.086 Br
ENDROOT
BRANCH  16  28
HETATM   28  O1  UNL     1      23.882  -1.538  25.854  1.00  0.00    -0.388 OA
ATOM     29  H1  UNL     1      23.078  -2.044  25.854  1.00  0.00     0.210 HD
ENDBRANCH  16  28
TORSDOF 1
ENDMDL
MODEL 3
REMARK VINA RESULT: -5.321521575      1.119      1.294
REMARK  1 active torsions:
REMARK  status: ('A' for Active; 'I' for Inactive)
REMARK    1  A    between atoms: C11_16  and  O1_18 
ROOT
HETATM    1  C1  UNL     1      22.756   3.217  20.286  1.00  0.00     0.043 C 
HETATM    2  C2  UNL     1      22.822   1.789  20.671  1.00  0.00    -0.079 C 
HETATM    3  C3  UNL     1      23.722   0.923  19.865  1.00  0.00     0.043 C 
HETATM    4  C4  UNL     1      22.115   1.220  21.644  1.00  0.00    -0.017 C 
HETATM    5  C5  UNL     1      22.291  -0.204  21.912  1.00  0.00     0.237 C 
HETATM    6  N1  UNL     1      22.884  -0.686  23.106  1.00  0.00     0.031 N 
HETATM    7  C6  UNL     1      23.111  -2.145  22.809  1.00  0.00     0.308 C 
HETATM    8  C7  UNL     1      24.153  -0.208  23.496  1.00  0.00     0.271 C 
HETATM    9  C8  UNL     1      24.344   0.342  24.859  1.00  0.00     0.046 C 
HETATM   10  C9  UNL     1      23.314   0.028  25.891  1.00  0.00     0.120 C 
HETATM   11  C10 UNL     1      22.370  -1.022  25.415  1.00  0.00     0.347 C 
HETATM   12  F1  UNL     1      23.088  -2.245  25.375  1.00  0.00    -0.181 F 
HETATM   13  F2  UNL     1      21.332  -1.319  26.259  1.00  0.00    -0.181 F 
HETATM   14  N2  UNL     1      21.908  -0.730  24.101  1.00  0.00    -0.182 N 
ATOM     15  H2  UNL     1      20.922  -0.564  23.898  1.00  0.00     0.194 HD
HETATM   16  C11 UNL     1      22.733   1.198  26.633  1.00  0.00     0.086 C 
HETATM   17  C12 UNL     1      23.829   2.263  26.670  1.00  0.00     0.048 C 
HETATM   18  C13 UNL     1      21.378   1.629  26.386  1.00  0.00     0.146 C 
HETATM   19 CL1  UNL     1      20.287   1.302  27.813  1.00  0.00    -0.117 Cl
HETATM   20  C14 UNL     1      20.997   2.984  25.953  1.00  0.00    -0.057 C 
HETATM   21  C15 UNL     1      20.882   4.015  26.743  1.00  0.00    -0.084 C 
HETATM   22  C16 UNL     1      20.495   5.340  26.160  1.00  0.00     0.043 C 
HETATM   23  C17 UNL     1      21.031   3.971  28.205  1.00  0.00     0.043 C 
HETATM   24  C18 UNL     1      20.583   3.200  24.509  1.00  0.00     0.037 C 
HETATM   25  C19 UNL     1      21.596   2.886  23.484  1.00  0.00     0.025 C 
HETATM   26  C20 UNL     1      21.125   2.095  22.320  1.00  0.00     0.092 C 
HETATM   27 BR1  UNL     1      19.479   1.097  22.680  1.00  0.00    -0.086 Br
ENDROOT
BRANCH  16  28
HETATM   28  O1  UNL     1      22.775   0.743  28.015  1.00  0.00    -0.388 OA
ATOM     29  H1  UNL     1      23.691   0.519  28.128  1.00  0.00     0.210 HD
ENDBRANCH  16  28
TORSDOF 1
ENDMDL
MODEL 4
REMARK VINA RESULT: -4.647775008      3.895      6.764
REMARK  1 active torsions:
REMARK  status: ('A' for Active; 'I' for Inactive)
REMARK    1  A    between atoms: C11_16  and  O1_18 
ROOT
HETATM    1  C1  UNL     1      23.874   0.236  25.754  1.00  0.00     0.043 C 
HETATM    2  C2  UNL     1      23.013   1.307  25.204  1.00  0.00    -0.079 C 
HETATM    3  C3  UNL     1      22.718   2.452  26.104  1.00  0.00     0.043 C 
HETATM    4  C4  UNL     1      22.454   1.302  23.996  1.00  0.00    -0.017 C 
HETATM    5  C5  UNL     1      21.628   2.435  23.590  1.00  0.00     0.237 C 
HETATM    6  N1  UNL     1      22.019   3.332  22.563  1.00  0.00     0.031 N 
HETATM    7  C6  UNL     1      21.030   4.460  22.702  1.00  0.00     0.308 C 
HETATM    8  C7  UNL     1      23.280   3.963  22.633  1.00  0.00     0.271 C 
HETATM    9  C8  UNL     1      24.205   3.884  21.478  1.00  0.00     0.046 C 
HETATM   10  C9  UNL     1      23.643   3.480  20.157  1.00  0.00     0.120 C 
HETATM   11  C10 UNL     1      22.154   3.463  20.181  1.00  0.00     0.347 C 
HETATM   12  F1  UNL     1      21.720   4.813  20.254  1.00  0.00    -0.181 F 
HETATM   13  F2  UNL     1      21.542   3.020  19.039  1.00  0.00    -0.181 F 
HETATM   14  N2  UNL     1      21.673   2.777  21.332  1.00  0.00    -0.182 N 
ATOM     15  H2  UNL     1      21.108   1.930  21.261  1.00  0.00     0.194 HD
HETATM   16  C11 UNL     1      24.337   2.347  19.454  1.00  0.00     0.086 C 
HETATM   17  C12 UNL     1      25.801   2.411  19.891  1.00  0.00     0.048 C 
HETATM   18  C13 UNL     1      23.715   1.049  19.355  1.00  0.00     0.146 C 
HETATM   19 CL1  UNL     1      23.226   0.655  17.641  1.00  0.00    -0.117 Cl
HETATM   20  C14 UNL     1      24.312  -0.204  19.848  1.00  0.00    -0.057 C 
HETATM   21  C15 UNL     1      25.216  -0.900  19.215  1.00  0.00    -0.084 C 
HETATM   22  C16 UNL     1      25.742  -2.154  19.844  1.00  0.00     0.043 C 
HETATM   23  C17 UNL     1      25.720  -0.591  17.870  1.00  0.00     0.043 C 
HETATM   24  C18 UNL     1      23.769  -0.819  21.125  1.00  0.00     0.037 C 
HETATM   25  C19 UNL     1      23.873   0.004  22.344  1.00  0.00     0.025 C 
HETATM   26  C20 UNL     1      22.659   0.070  23.194  1.00  0.00     0.092 C 
HETATM   27 BR1  UNL     1      21.016  -0.388  22.231  1.00  0.00    -0.086 Br
ENDROOT
BRANCH  16  28
HETATM   28  O1  UNL     1      24.456   2.852  18.093  1.00  0.00    -0.388 OA
ATOM     29  H1  UNL     1      24.138   2.121  17.577  1.00  0.00     0.210 HD
ENDBRANCH  16  28
TORSDOF 1
ENDMDL
MODEL 5
REMARK VINA RESULT: -4.619283496      1.471      1.742
REMARK  1 active torsions:
REMARK  status: ('A' for Active; 'I' for Inactive)
REMARK    1  A    between atoms: C11_16  and  O1_18 
ROOT
HETATM    1  C1  UNL     1      22.755   2.316  20.371  1.00  0.00     0.043 C 
HETATM    2  C2  UNL     1      23.370   1.065  20.871  1.00  0.00    -0.079 C 
HETATM    3  C3  UNL     1      24.569   0.576  20.142  1.00  0.00     0.043 C 
HETATM    4  C4  UNL     1      22.911   0.331  21.881  1.00  0.00    -0.017 C 
HETATM    5  C5  UNL     1      23.629  -0.881  22.264  1.00  0.00     0.237 C 
HETATM    6  N1  UNL     1      24.319  -0.999  23.497  1.00  0.00     0.031 N 
HETATM    7  C6  UNL     1      25.120  -2.262  23.319  1.00  0.00     0.308 C 
HETATM    8  C7  UNL     1      25.278  -0.026  23.854  1.00  0.00     0.271 C 
HETATM    9  C8  UNL     1      25.183   0.650  25.170  1.00  0.00     0.046 C 
HETATM   10  C9  UNL     1      24.325   0.024  26.218  1.00  0.00     0.120 C 
HETATM   11  C10 UNL     1      23.895  -1.346  25.822  1.00  0.00     0.347 C 
HETATM   12  F1  UNL     1      25.042  -2.180  25.885  1.00  0.00    -0.181 F 
HETATM   13  F2  UNL     1      23.031  -1.973  26.681  1.00  0.00    -0.181 F 
HETATM   14  N2  UNL     1      23.405  -1.358  24.486  1.00  0.00    -0.182 N 
ATOM     15  H2  UNL     1      22.443  -1.615  24.265  1.00  0.00     0.194 HD
HETATM   16  C11 UNL     1      23.298   0.914  26.859  1.00  0.00     0.086 C 
HETATM   17  C12 UNL     1      23.877   2.328  26.817  1.00  0.00     0.048 C 
HETATM   18  C13 UNL     1      21.894   0.748  26.571  1.00  0.00     0.146 C 
HETATM   19 CL1  UNL     1      20.971   0.116  28.013  1.00  0.00    -0.117 Cl
HETATM   20  C14 UNL     1      21.022   1.803  26.028  1.00  0.00    -0.057 C 
HETATM   21  C15 UNL     1      20.476   2.757  26.732  1.00  0.00    -0.084 C 
HETATM   22  C16 UNL     1      19.616   3.771  26.041  1.00  0.00     0.043 C 
HETATM   23  C17 UNL     1      20.575   2.880  28.193  1.00  0.00     0.043 C 
HETATM   24  C18 UNL     1      20.611   1.733  24.569  1.00  0.00     0.037 C 
HETATM   25  C19 UNL     1      21.703   1.777  23.578  1.00  0.00     0.025 C 
HETATM   26  C20 UNL     1      21.630   0.783  22.479  1.00  0.00     0.092 C 
HETATM   27 BR1  UNL     1      20.505  -0.761  22.908  1.00  0.00    -0.086 Br
ENDROOT
BRANCH  16  28
HETATM   28  O1  UNL     1      23.466   0.613  28.274  1.00  0.00    -0.388 OA
ATOM     29  H1  UNL     1      22.617   0.843  28.633  1.00  0.00     0.210 HD
ENDBRANCH  16  28
TORSDOF 1
ENDMDL
