MODEL 1
REMARK VINA RESULT: -7.284684099      0.000      0.000
REMARK  9 active torsions:
REMARK  status: ('A' for Active; 'I' for Inactive)
REMARK    1  A    between atoms: N1_2  and  C2_3 
REMARK    2  A    between atoms: N1_2  and  C7_21 
REMARK    3  A    between atoms: C4_9  and  N4_10 
REMARK    4  A    between atoms: C5_13  and  C6_14 
REMARK       I    between atoms: C6_14  and  N5_16 
REMARK    5  A    between atoms: N5_16  and  N6_18 
REMARK    6  A    between atoms: C8_22  and  N7_23 
REMARK    7  A    between atoms: N7_23  and  O2_24 
REMARK    8  A    between atoms: N7_23  and  C9_26 
REMARK    9  A    between atoms: C11_31  and  O3_32 
ROOT
HETATM    1  C1  UNL     1      28.460  63.364 -27.243  1.00  0.00     0.158 C 
HETATM    2  N1  UNL     1      29.130  62.303 -26.523  1.00  0.00    -0.331 N 
ENDROOT
BRANCH   2   3
HETATM    3  C2  UNL     1      30.326  62.598 -25.820  1.00  0.00     0.128 A 
HETATM    4  N2  UNL     1      31.528  62.281 -26.367  1.00  0.00    -0.337 N 
HETATM    5  C3  UNL     1      32.707  62.544 -25.805  1.00  0.00     0.183 A 
ATOM      6  H2  UNL     1      31.528  61.809 -27.271  1.00  0.00     0.168 HD
HETATM    7  N3  UNL     1      32.702  63.164 -24.618  1.00  0.00    -0.338 N 
HETATM    8  C4  UNL     1      31.569  63.526 -23.980  1.00  0.00     0.119 A 
ATOM      9  H3  UNL     1      33.597  63.374 -24.175  1.00  0.00     0.168 HD
HETATM   10  C5  UNL     1      30.361  63.248 -24.575  1.00  0.00     0.121 A 
BRANCH   8  11
HETATM   11  N4  UNL     1      31.631  64.096 -22.822  1.00  0.00    -0.385 N 
ATOM     12  H42 UNL     1      32.285  64.858 -22.641  1.00  0.00     0.157 HD
ATOM     13  H41 UNL     1      31.005  63.802 -22.073  1.00  0.00     0.157 HD
ENDBRANCH   8  11
BRANCH  10  14
HETATM   14  C6  UNL     1      29.086  63.548 -23.973  1.00  0.00     0.277 C 
HETATM   15  O1  UNL     1      28.502  62.683 -23.232  1.00  0.00    -0.266 OA
HETATM   16  N5  UNL     1      28.428  64.776 -24.169  1.00  0.00    -0.272 N 
ATOM     17  H5  UNL     1      28.858  65.482 -24.767  1.00  0.00     0.189 HD
BRANCH  16  18
HETATM   18  N6  UNL     1      27.178  65.055 -23.551  1.00  0.00    -0.342 N 
ATOM     19  H62 UNL     1      26.513  64.290 -23.439  1.00  0.00     0.176 HD
ATOM     20  H61 UNL     1      26.943  65.993 -23.225  1.00  0.00     0.176 HD
ENDBRANCH  16  18
ENDBRANCH  10  14
ENDBRANCH   2   3
BRANCH   2  21
HETATM   21  C7  UNL     1      28.627  60.975 -26.553  1.00  0.00     0.124 A 
HETATM   22  C8  UNL     1      27.743  60.289 -27.401  1.00  0.00     0.144 A 
HETATM   23  C12 UNL     1      27.869  59.138 -26.674  1.00  0.00     0.255 A 
HETATM   24  O4  UNL     1      27.396  57.953 -26.731  1.00  0.00    -0.281 OA
HETATM   25  C13 UNL     1      28.738  59.805 -25.837  1.00  0.00     0.253 A 
HETATM   26  O5  UNL     1      29.390  59.481 -24.806  1.00  0.00    -0.281 OA
BRANCH  22  27
HETATM   27  N7  UNL     1      27.020  60.691 -28.557  1.00  0.00    -0.220 N 
BRANCH  27  28
HETATM   28  O2  UNL     1      27.677  60.810 -29.730  1.00  0.00    -0.285 OA
ATOM     29  H2  UNL     1      27.198  61.097 -30.498  1.00  0.00     0.245 HD
ENDBRANCH  27  28
BRANCH  27  30
HETATM   30  C9  UNL     1      25.609  60.979 -28.513  1.00  0.00     0.343 C 
HETATM   31  N8  UNL     1      24.926  60.099 -27.560  1.00  0.00    -0.047 N 
HETATM   32  C10 UNL     1      24.599  59.132 -28.623  1.00  0.00     0.270 C 
ATOM     33  H82 UNL     1      25.426  59.779 -26.730  1.00  0.00     0.279 HD
ATOM     34  H81 UNL     1      24.177  60.477 -26.981  1.00  0.00     0.279 HD
HETATM   35  C11 UNL     1      24.838  60.296 -29.595  1.00  0.00     0.196 C 
BRANCH  35  36
HETATM   36  O3  UNL     1      25.526  59.902 -30.735  1.00  0.00    -0.390 OA
ATOM     37  H3  UNL     1      25.789  58.991 -30.804  1.00  0.00     0.210 HD
ENDBRANCH  35  36
ENDBRANCH  27  30
ENDBRANCH  22  27
ENDBRANCH   2  21
TORSDOF 9
ENDMDL
MODEL 2
REMARK VINA RESULT: -7.025733295      3.965      5.654
REMARK  9 active torsions:
REMARK  status: ('A' for Active; 'I' for Inactive)
REMARK    1  A    between atoms: N1_2  and  C2_3 
REMARK    2  A    between atoms: N1_2  and  C7_21 
REMARK    3  A    between atoms: C4_9  and  N4_10 
REMARK    4  A    between atoms: C5_13  and  C6_14 
REMARK       I    between atoms: C6_14  and  N5_16 
REMARK    5  A    between atoms: N5_16  and  N6_18 
REMARK    6  A    between atoms: C8_22  and  N7_23 
REMARK    7  A    between atoms: N7_23  and  O2_24 
REMARK    8  A    between atoms: N7_23  and  C9_26 
REMARK    9  A    between atoms: C11_31  and  O3_32 
ROOT
HETATM    1  C1  UNL     1      32.838  59.485 -27.194  1.00  0.00     0.158 C 
HETATM    2  N1  UNL     1      31.793  58.990 -26.324  1.00  0.00    -0.331 N 
ENDROOT
BRANCH   2   3
HETATM    3  C2  UNL     1      31.614  57.589 -26.193  1.00  0.00     0.128 A 
HETATM    4  N2  UNL     1      30.944  56.901 -27.153  1.00  0.00    -0.337 N 
HETATM    5  C3  UNL     1      30.749  55.583 -27.142  1.00  0.00     0.183 A 
ATOM      6  H2  UNL     1      30.563  57.430 -27.938  1.00  0.00     0.168 HD
HETATM    7  N3  UNL     1      31.251  54.892 -26.110  1.00  0.00    -0.338 N 
HETATM    8  C4  UNL     1      31.933  55.470 -25.099  1.00  0.00     0.119 A 
ATOM      9  H3  UNL     1      31.112  53.882 -26.086  1.00  0.00     0.168 HD
HETATM   10  C5  UNL     1      32.125  56.831 -25.127  1.00  0.00     0.121 A 
BRANCH   8  11
HETATM   11  N4  UNL     1      32.367  54.751 -24.116  1.00  0.00    -0.385 N 
ATOM     12  H42 UNL     1      31.951  54.818 -23.187  1.00  0.00     0.157 HD
ATOM     13  H41 UNL     1      33.126  54.086 -24.265  1.00  0.00     0.157 HD
ENDBRANCH   8  11
BRANCH  10  14
HETATM   14  C6  UNL     1      32.801  57.565 -24.085  1.00  0.00     0.277 C 
HETATM   15  O1  UNL     1      34.064  57.760 -24.147  1.00  0.00    -0.266 OA
HETATM   16  N5  UNL     1      32.122  58.087 -22.968  1.00  0.00    -0.272 N 
ATOM     17  H5  UNL     1      31.118  57.936 -22.879  1.00  0.00     0.189 HD
BRANCH  16  18
HETATM   18  N6  UNL     1      32.808  58.821 -21.961  1.00  0.00    -0.342 N 
ATOM     19  H62 UNL     1      33.520  58.340 -21.412  1.00  0.00     0.176 HD
ATOM     20  H61 UNL     1      32.600  59.805 -21.785  1.00  0.00     0.176 HD
ENDBRANCH  16  18
ENDBRANCH  10  14
ENDBRANCH   2   3
BRANCH   2  21
HETATM   21  C7  UNL     1      30.930  59.888 -25.641  1.00  0.00     0.124 A 
HETATM   22  C8  UNL     1      29.570  60.214 -25.768  1.00  0.00     0.144 A 
HETATM   23  C12 UNL     1      29.648  61.119 -24.745  1.00  0.00     0.255 A 
HETATM   24  O4  UNL     1      28.843  61.916 -24.154  1.00  0.00    -0.281 OA
HETATM   25  C13 UNL     1      30.983  60.803 -24.615  1.00  0.00     0.253 A 
HETATM   26  O5  UNL     1      31.910  61.196 -23.854  1.00  0.00    -0.281 OA
BRANCH  22  27
HETATM   27  N7  UNL     1      28.552  59.752 -26.645  1.00  0.00    -0.220 N 
BRANCH  27  28
HETATM   28  O2  UNL     1      27.717  58.779 -26.222  1.00  0.00    -0.285 OA
ATOM     29  H2  UNL     1      26.799  58.985 -26.094  1.00  0.00     0.245 HD
ENDBRANCH  27  28
BRANCH  27  30
HETATM   30  C9  UNL     1      28.388  60.285 -27.973  1.00  0.00     0.343 C 
HETATM   31  N8  UNL     1      28.963  61.631 -28.069  1.00  0.00    -0.047 N 
HETATM   32  C10 UNL     1      27.664  62.254 -27.760  1.00  0.00     0.270 C 
ATOM     33  H82 UNL     1      29.777  61.867 -27.502  1.00  0.00     0.279 HD
ATOM     34  H81 UNL     1      29.458  61.902 -28.918  1.00  0.00     0.279 HD
HETATM   35  C11 UNL     1      27.050  60.913 -28.190  1.00  0.00     0.196 C 
BRANCH  35  36
HETATM   36  O3  UNL     1      26.005  60.520 -27.365  1.00  0.00    -0.390 OA
ATOM     37  H3  UNL     1      25.232  61.071 -27.332  1.00  0.00     0.210 HD
ENDBRANCH  35  36
ENDBRANCH  27  30
ENDBRANCH  22  27
ENDBRANCH   2  21
TORSDOF 9
ENDMDL
MODEL 3
REMARK VINA RESULT: -6.959686523      6.743      8.563
REMARK  9 active torsions:
REMARK  status: ('A' for Active; 'I' for Inactive)
REMARK    1  A    between atoms: N1_2  and  C2_3 
REMARK    2  A    between atoms: N1_2  and  C7_21 
REMARK    3  A    between atoms: C4_9  and  N4_10 
REMARK    4  A    between atoms: C5_13  and  C6_14 
REMARK       I    between atoms: C6_14  and  N5_16 
REMARK    5  A    between atoms: N5_16  and  N6_18 
REMARK    6  A    between atoms: C8_22  and  N7_23 
REMARK    7  A    between atoms: N7_23  and  O2_24 
REMARK    8  A    between atoms: N7_23  and  C9_26 
REMARK    9  A    between atoms: C11_31  and  O3_32 
ROOT
HETATM    1  C1  UNL     1      25.238  60.694 -34.836  1.00  0.00     0.158 C 
HETATM    2  N1  UNL     1      24.865  61.300 -33.576  1.00  0.00    -0.331 N 
ENDROOT
BRANCH   2   3
HETATM    3  C2  UNL     1      24.835  62.715 -33.477  1.00  0.00     0.128 A 
HETATM    4  N2  UNL     1      23.652  63.374 -33.574  1.00  0.00    -0.337 N 
HETATM    5  C3  UNL     1      23.510  64.695 -33.463  1.00  0.00     0.183 A 
ATOM      6  H2  UNL     1      22.812  62.820 -33.744  1.00  0.00     0.168 HD
HETATM    7  N3  UNL     1      24.615  65.418 -33.239  1.00  0.00    -0.338 N 
HETATM    8  C4  UNL     1      25.844  64.871 -33.125  1.00  0.00     0.119 A 
ATOM      9  H3  UNL     1      24.524  66.430 -33.150  1.00  0.00     0.168 HD
HETATM   10  C5  UNL     1      25.971  63.507 -33.242  1.00  0.00     0.121 A 
BRANCH   8  11
HETATM   11  N4  UNL     1      26.875  65.627 -32.938  1.00  0.00    -0.385 N 
ATOM     12  H42 UNL     1      27.573  65.405 -32.228  1.00  0.00     0.157 HD
ATOM     13  H41 UNL     1      27.016  66.453 -33.521  1.00  0.00     0.157 HD
ENDBRANCH   8  11
BRANCH  10  14
HETATM   14  C6  UNL     1      27.234  62.813 -33.181  1.00  0.00     0.277 C 
HETATM   15  O1  UNL     1      27.985  62.748 -34.214  1.00  0.00    -0.266 OA
HETATM   16  N5  UNL     1      27.691  62.181 -32.010  1.00  0.00    -0.272 N 
ATOM     17  H5  UNL     1      27.109  62.200 -31.172  1.00  0.00     0.189 HD
BRANCH  16  18
HETATM   18  N6  UNL     1      28.948  61.517 -31.969  1.00  0.00    -0.342 N 
ATOM     19  H62 UNL     1      29.676  61.895 -31.362  1.00  0.00     0.176 HD
ATOM     20  H61 UNL     1      29.128  60.683 -32.528  1.00  0.00     0.176 HD
ENDBRANCH  16  18
ENDBRANCH  10  14
ENDBRANCH   2   3
BRANCH   2  21
HETATM   21  C7  UNL     1      24.574  60.497 -32.442  1.00  0.00     0.124 A 
HETATM   22  C8  UNL     1      24.037  59.210 -32.274  1.00  0.00     0.144 A 
HETATM   23  C12 UNL     1      24.132  59.300 -30.913  1.00  0.00     0.255 A 
HETATM   24  O4  UNL     1      23.858  58.551 -29.916  1.00  0.00    -0.281 OA
HETATM   25  C13 UNL     1      24.660  60.564 -31.070  1.00  0.00     0.253 A 
HETATM   26  O5  UNL     1      25.068  61.453 -30.272  1.00  0.00    -0.281 OA
BRANCH  22  27
HETATM   27  N7  UNL     1      23.582  58.234 -33.202  1.00  0.00    -0.220 N 
BRANCH  27  28
HETATM   28  O2  UNL     1      22.380  58.402 -33.791  1.00  0.00    -0.285 OA
ATOM     29  H2  UNL     1      21.977  57.665 -34.233  1.00  0.00     0.245 HD
ENDBRANCH  27  28
BRANCH  27  30
HETATM   30  C9  UNL     1      24.364  57.068 -33.528  1.00  0.00     0.343 C 
HETATM   31  N8  UNL     1      24.521  56.935 -34.979  1.00  0.00    -0.047 N 
HETATM   32  C10 UNL     1      23.343  56.054 -35.068  1.00  0.00     0.270 C 
ATOM     33  H82 UNL     1      24.560  57.775 -35.557  1.00  0.00     0.279 HD
ATOM     34  H81 UNL     1      25.413  56.616 -35.357  1.00  0.00     0.279 HD
HETATM   35  C11 UNL     1      23.554  55.813 -33.567  1.00  0.00     0.196 C 
BRANCH  35  36
HETATM   36  O3  UNL     1      22.359  55.787 -32.860  1.00  0.00    -0.390 OA
ATOM     37  H3  UNL     1      22.209  55.062 -32.265  1.00  0.00     0.210 HD
ENDBRANCH  35  36
ENDBRANCH  27  30
ENDBRANCH  22  27
ENDBRANCH   2  21
TORSDOF 9
ENDMDL
MODEL 4
REMARK VINA RESULT: -6.948439070      3.751      5.550
REMARK  9 active torsions:
REMARK  status: ('A' for Active; 'I' for Inactive)
REMARK    1  A    between atoms: N1_2  and  C2_3 
REMARK    2  A    between atoms: N1_2  and  C7_21 
REMARK    3  A    between atoms: C4_9  and  N4_10 
REMARK    4  A    between atoms: C5_13  and  C6_14 
REMARK       I    between atoms: C6_14  and  N5_16 
REMARK    5  A    between atoms: N5_16  and  N6_18 
REMARK    6  A    between atoms: C8_22  and  N7_23 
REMARK    7  A    between atoms: N7_23  and  O2_24 
REMARK    8  A    between atoms: N7_23  and  C9_26 
REMARK    9  A    between atoms: C11_31  and  O3_32 
ROOT
HETATM    1  C1  UNL     1      33.708  61.571 -24.152  1.00  0.00     0.158 C 
HETATM    2  N1  UNL     1      32.534  60.958 -23.569  1.00  0.00    -0.331 N 
ENDROOT
BRANCH   2   3
HETATM    3  C2  UNL     1      32.617  59.623 -23.100  1.00  0.00     0.128 A 
HETATM    4  N2  UNL     1      32.295  58.594 -23.927  1.00  0.00    -0.337 N 
HETATM    5  C3  UNL     1      32.369  57.306 -23.596  1.00  0.00     0.183 A 
ATOM      6  H2  UNL     1      31.975  58.825 -24.868  1.00  0.00     0.168 HD
HETATM    7  N3  UNL     1      32.791  57.008 -22.360  1.00  0.00    -0.338 N 
HETATM    8  C4  UNL     1      33.136  57.946 -21.453  1.00  0.00     0.119 A 
ATOM      9  H3  UNL     1      32.854  56.027 -22.091  1.00  0.00     0.168 HD
HETATM   10  C5  UNL     1      33.054  59.271 -21.812  1.00  0.00     0.121 A 
BRANCH   8  11
HETATM   11  N4  UNL     1      33.507  57.595 -20.266  1.00  0.00    -0.385 N 
ATOM     12  H42 UNL     1      32.840  57.214 -19.594  1.00  0.00     0.157 HD
ATOM     13  H41 UNL     1      34.486  57.675 -19.991  1.00  0.00     0.157 HD
ENDBRANCH   8  11
BRANCH  10  14
HETATM   14  C6  UNL     1      33.355  60.362 -20.918  1.00  0.00     0.277 C 
HETATM   15  O1  UNL     1      34.565  60.738 -20.744  1.00  0.00    -0.266 OA
HETATM   16  N5  UNL     1      32.357  61.049 -20.202  1.00  0.00    -0.272 N 
ATOM     17  H5  UNL     1      31.383  60.764 -20.305  1.00  0.00     0.189 HD
BRANCH  16  18
HETATM   18  N6  UNL     1      32.677  62.132 -19.338  1.00  0.00    -0.342 N 
ATOM     19  H62 UNL     1      32.009  62.384 -18.610  1.00  0.00     0.176 HD
ATOM     20  H61 UNL     1      33.550  62.651 -19.436  1.00  0.00     0.176 HD
ENDBRANCH  16  18
ENDBRANCH  10  14
ENDBRANCH   2   3
BRANCH   2  21
HETATM   21  C7  UNL     1      31.303  61.665 -23.504  1.00  0.00     0.124 A 
HETATM   22  C8  UNL     1      30.093  61.576 -24.212  1.00  0.00     0.144 A 
HETATM   23  C12 UNL     1      29.545  62.598 -23.488  1.00  0.00     0.255 A 
HETATM   24  O4  UNL     1      28.425  63.212 -23.458  1.00  0.00    -0.281 OA
HETATM   25  C13 UNL     1      30.730  62.690 -22.789  1.00  0.00     0.253 A 
HETATM   26  O5  UNL     1      31.143  63.428 -21.853  1.00  0.00    -0.281 OA
BRANCH  22  27
HETATM   27  N7  UNL     1      29.663  60.730 -25.270  1.00  0.00    -0.220 N 
BRANCH  27  28
HETATM   28  O2  UNL     1      29.111  59.536 -24.969  1.00  0.00    -0.285 OA
ATOM     29  H2  UNL     1      28.689  59.038 -25.658  1.00  0.00     0.245 HD
ENDBRANCH  27  28
BRANCH  27  30
HETATM   30  C9  UNL     1      29.803  61.107 -26.654  1.00  0.00     0.343 C 
HETATM   31  N8  UNL     1      29.899  62.563 -26.791  1.00  0.00    -0.047 N 
HETATM   32  C10 UNL     1      28.445  62.681 -27.004  1.00  0.00     0.270 C 
ATOM     33  H82 UNL     1      30.340  63.107 -26.049  1.00  0.00     0.279 HD
ATOM     34  H81 UNL     1      30.538  62.958 -27.480  1.00  0.00     0.279 HD
HETATM   35  C11 UNL     1      28.496  61.192 -27.372  1.00  0.00     0.196 C 
BRANCH  35  36
HETATM   36  O3  UNL     1      27.421  60.481 -26.855  1.00  0.00    -0.390 OA
ATOM     37  H3  UNL     1      27.594  59.629 -26.470  1.00  0.00     0.210 HD
ENDBRANCH  35  36
ENDBRANCH  27  30
ENDBRANCH  22  27
ENDBRANCH   2  21
TORSDOF 9
ENDMDL
MODEL 5
REMARK VINA RESULT: -6.908234956      1.468      2.563
REMARK  9 active torsions:
REMARK  status: ('A' for Active; 'I' for Inactive)
REMARK    1  A    between atoms: N1_2  and  C2_3 
REMARK    2  A    between atoms: N1_2  and  C7_21 
REMARK    3  A    between atoms: C4_9  and  N4_10 
REMARK    4  A    between atoms: C5_13  and  C6_14 
REMARK       I    between atoms: C6_14  and  N5_16 
REMARK    5  A    between atoms: N5_16  and  N6_18 
REMARK    6  A    between atoms: C8_22  and  N7_23 
REMARK    7  A    between atoms: N7_23  and  O2_24 
REMARK    8  A    between atoms: N7_23  and  C9_26 
REMARK    9  A    between atoms: C11_31  and  O3_32 
ROOT
HETATM    1  C1  UNL     1      30.640  62.064 -27.809  1.00  0.00     0.158 C 
HETATM    2  N1  UNL     1      29.666  61.883 -26.754  1.00  0.00    -0.331 N 
ENDROOT
BRANCH   2   3
HETATM    3  C2  UNL     1      29.546  62.878 -25.751  1.00  0.00     0.128 A 
HETATM    4  N2  UNL     1      28.575  63.822 -25.848  1.00  0.00    -0.337 N 
HETATM    5  C3  UNL     1      28.357  64.779 -24.946  1.00  0.00     0.183 A 
ATOM      6  H2  UNL     1      27.968  63.797 -26.668  1.00  0.00     0.168 HD
HETATM    7  N3  UNL     1      29.155  64.808 -23.871  1.00  0.00    -0.338 N 
HETATM    8  C4  UNL     1      30.154  63.922 -23.670  1.00  0.00     0.119 A 
ATOM      9  H3  UNL     1      29.002  65.533 -23.171  1.00  0.00     0.168 HD
HETATM   10  C5  UNL     1      30.363  62.941 -24.610  1.00  0.00     0.121 A 
BRANCH   8  11
HETATM   11  N4  UNL     1      30.908  64.022 -22.625  1.00  0.00    -0.385 N 
ATOM     12  H42 UNL     1      30.696  64.687 -21.881  1.00  0.00     0.157 HD
ATOM     13  H41 UNL     1      31.721  63.415 -22.521  1.00  0.00     0.157 HD
ENDBRANCH   8  11
BRANCH  10  14
HETATM   14  C6  UNL     1      31.423  61.967 -24.526  1.00  0.00     0.277 C 
HETATM   15  O1  UNL     1      32.550  62.188 -25.089  1.00  0.00    -0.266 OA
HETATM   16  N5  UNL     1      31.273  60.746 -23.842  1.00  0.00    -0.272 N 
ATOM     17  H5  UNL     1      30.381  60.530 -23.396  1.00  0.00     0.189 HD
BRANCH  16  18
HETATM   18  N6  UNL     1      32.338  59.807 -23.759  1.00  0.00    -0.342 N 
ATOM     19  H62 UNL     1      32.205  58.974 -23.186  1.00  0.00     0.176 HD
ATOM     20  H61 UNL     1      33.217  59.954 -24.256  1.00  0.00     0.176 HD
ENDBRANCH  16  18
ENDBRANCH  10  14
ENDBRANCH   2   3
BRANCH   2  21
HETATM   21  C7  UNL     1      28.870  60.708 -26.695  1.00  0.00     0.124 A 
HETATM   22  C8  UNL     1      27.807  60.214 -27.469  1.00  0.00     0.144 A 
HETATM   23  C12 UNL     1      27.703  59.095 -26.692  1.00  0.00     0.255 A 
HETATM   24  O4  UNL     1      26.968  58.051 -26.669  1.00  0.00    -0.281 OA
HETATM   25  C13 UNL     1      28.746  59.573 -25.928  1.00  0.00     0.253 A 
HETATM   26  O5  UNL     1      29.361  59.146 -24.912  1.00  0.00    -0.281 OA
BRANCH  22  27
HETATM   27  N7  UNL     1      27.134  60.729 -28.611  1.00  0.00    -0.220 N 
BRANCH  27  28
HETATM   28  O2  UNL     1      27.811  60.836 -29.774  1.00  0.00    -0.285 OA
ATOM     29  H2  UNL     1      28.202  61.671 -30.002  1.00  0.00     0.245 HD
ENDBRANCH  27  28
BRANCH  27  30
HETATM   30  C9  UNL     1      25.755  61.143 -28.563  1.00  0.00     0.343 C 
HETATM   31  N8  UNL     1      24.981  60.276 -27.670  1.00  0.00    -0.047 N 
HETATM   32  C10 UNL     1      24.582  59.406 -28.790  1.00  0.00     0.270 C 
ATOM     33  H82 UNL     1      25.437  59.863 -26.855  1.00  0.00     0.279 HD
ATOM     34  H81 UNL     1      24.261  60.687 -27.076  1.00  0.00     0.279 HD
HETATM   35  C11 UNL     1      24.941  60.598 -29.690  1.00  0.00     0.196 C 
BRANCH  35  36
HETATM   36  O3  UNL     1      25.606  60.209 -30.845  1.00  0.00    -0.390 OA
ATOM     37  H3  UNL     1      25.295  60.552 -31.675  1.00  0.00     0.210 HD
ENDBRANCH  35  36
ENDBRANCH  27  30
ENDBRANCH  22  27
ENDBRANCH   2  21
TORSDOF 9
ENDMDL
