MODEL 1
REMARK VINA RESULT: -2.648377788      0.000      0.000
REMARK  8 active torsions:
REMARK  status: ('A' for Active; 'I' for Inactive)
REMARK    1  A    between atoms: O1_2  and  C2_3 
REMARK    2  A    between atoms: C3_5  and  C4_6 
REMARK    3  A    between atoms: C5_8  and  C6_9 
REMARK    4  A    between atoms: C6_9  and  O4_10 
REMARK    5  A    between atoms: C7_12  and  O5_13 
REMARK    6  A    between atoms: C9_15  and  O6_16 
REMARK    7  A    between atoms: C10_18  and  N1_19 
REMARK       I    between atoms: N1_19  and  C11_21 
REMARK    8  A    between atoms: C13_24  and  O8_25 
ROOT
HETATM    1  C2  UNL     1       6.201  25.793  24.382  1.00  0.00     0.290 C 
HETATM    2  O2  UNL     1       5.534  25.916  23.198  1.00  0.00    -0.348 OA
HETATM    3  C3  UNL     1       6.160  25.506  22.074  1.00  0.00     0.187 C 
HETATM    4  C9  UNL     1       7.644  25.490  22.090  1.00  0.00     0.175 C 
HETATM    5  C10 UNL     1       8.148  26.558  23.001  1.00  0.00     0.149 C 
HETATM    6  C13 UNL     1       7.614  26.286  24.385  1.00  0.00     0.201 C 
ENDROOT
BRANCH   3   7
HETATM    7  C4  UNL     1       5.698  24.119  21.606  1.00  0.00     0.185 C 
HETATM    8  O3  UNL     1       4.441  23.816  22.143  1.00  0.00    -0.370 OA
HETATM    9  C5  UNL     1       4.148  23.134  20.988  1.00  0.00     0.177 C 
HETATM   10  C7  UNL     1       5.095  24.087  20.251  1.00  0.00     0.183 C 
BRANCH   9  11
HETATM   11  C6  UNL     1       2.722  23.241  20.503  1.00  0.00     0.198 C 
BRANCH  11  12
HETATM   12  O4  UNL     1       1.842  22.668  21.422  1.00  0.00    -0.398 OA
ATOM     13  H4  UNL     1       1.492  21.850  21.088  1.00  0.00     0.209 HD
ENDBRANCH  11  12
ENDBRANCH   9  11
BRANCH  10  14
HETATM   14  O5  UNL     1       5.783  23.426  19.257  1.00  0.00    -0.385 OA
HETATM   15  C8  UNL     1       6.332  24.254  18.308  1.00  0.00     0.202 C 
ENDBRANCH  10  14
ENDBRANCH   3   7
BRANCH   4  16
HETATM   16  O6  UNL     1       8.135  25.787  20.797  1.00  0.00    -0.391 OA
ATOM     17  H6  UNL     1       8.403  24.984  20.365  1.00  0.00     0.210 HD
ENDBRANCH   4  16
BRANCH   1  18
HETATM   18  O1  UNL     1       5.497  26.537  25.331  1.00  0.00    -0.363 OA
HETATM   19  C1  UNL     1       6.313  27.477  25.959  1.00  0.00     0.204 C 
ENDBRANCH   1  18
BRANCH   5  20
HETATM   20  N1  UNL     1       9.594  26.486  23.004  1.00  0.00    -0.352 N 
HETATM   21  C11 UNL     1      10.419  27.622  22.906  1.00  0.00     0.214 C 
HETATM   22  C12 UNL     1      11.886  27.552  22.909  1.00  0.00     0.117 C 
HETATM   23  O7  UNL     1       9.905  28.787  22.805  1.00  0.00    -0.274 OA
ATOM     24  H1  UNL     1      10.036  25.570  23.082  1.00  0.00     0.163 HD
ENDBRANCH   5  20
BRANCH   6  25
HETATM   25  O8  UNL     1       8.416  25.313  24.958  1.00  0.00    -0.384 OA
HETATM   26  C14 UNL     1       8.947  25.686  26.175  1.00  0.00     0.202 C 
ENDBRANCH   6  25
TORSDOF 8
ENDMDL
MODEL 2
REMARK VINA RESULT: -2.413121772      2.368      6.543
REMARK  8 active torsions:
REMARK  status: ('A' for Active; 'I' for Inactive)
REMARK    1  A    between atoms: O1_2  and  C2_3 
REMARK    2  A    between atoms: C3_5  and  C4_6 
REMARK    3  A    between atoms: C5_8  and  C6_9 
REMARK    4  A    between atoms: C6_9  and  O4_10 
REMARK    5  A    between atoms: C7_12  and  O5_13 
REMARK    6  A    between atoms: C9_15  and  O6_16 
REMARK    7  A    between atoms: C10_18  and  N1_19 
REMARK       I    between atoms: N1_19  and  C11_21 
REMARK    8  A    between atoms: C13_24  and  O8_25 
ROOT
HETATM    1  C2  UNL     1       7.114  25.481  23.125  1.00  0.00     0.290 C 
HETATM    2  O2  UNL     1       8.352  25.575  23.691  1.00  0.00    -0.348 OA
HETATM    3  C3  UNL     1       9.316  26.221  23.000  1.00  0.00     0.187 C 
HETATM    4  C9  UNL     1       9.170  26.282  21.524  1.00  0.00     0.175 C 
HETATM    5  C10 UNL     1       8.446  25.071  21.041  1.00  0.00     0.149 C 
HETATM    6  C13 UNL     1       7.087  25.043  21.694  1.00  0.00     0.201 C 
ENDROOT
BRANCH   3   7
HETATM    7  C4  UNL     1       9.541  27.658  23.492  1.00  0.00     0.185 C 
HETATM    8  O3  UNL     1      10.266  27.656  24.690  1.00  0.00    -0.370 OA
HETATM    9  C5  UNL     1      10.861  28.827  24.293  1.00  0.00     0.177 C 
HETATM   10  C7  UNL     1      10.669  28.370  22.844  1.00  0.00     0.183 C 
BRANCH   9  11
HETATM   11  C6  UNL     1      12.317  28.985  24.665  1.00  0.00     0.198 C 
BRANCH  11  12
HETATM   12  O4  UNL     1      12.462  29.869  25.734  1.00  0.00    -0.398 OA
ATOM     13  H4  UNL     1      13.165  29.590  26.309  1.00  0.00     0.209 HD
ENDBRANCH  11  12
ENDBRANCH   9  11
BRANCH  10  14
HETATM   14  O5  UNL     1      10.369  29.437  22.026  1.00  0.00    -0.385 OA
HETATM   15  C8  UNL     1      11.467  30.021  21.439  1.00  0.00     0.202 C 
ENDBRANCH  10  14
ENDBRANCH   3   7
BRANCH   4  16
HETATM   16  O6  UNL     1      10.449  26.265  20.921  1.00  0.00    -0.391 OA
ATOM     17  H6  UNL     1      11.046  25.751  21.452  1.00  0.00     0.210 HD
ENDBRANCH   4  16
BRANCH   1  18
HETATM   18  O1  UNL     1       6.394  24.539  23.863  1.00  0.00    -0.363 OA
HETATM   19  C1  UNL     1       5.061  24.918  24.022  1.00  0.00     0.204 C 
ENDBRANCH   1  18
BRANCH   5  20
HETATM   20  N1  UNL     1       8.305  25.187  19.605  1.00  0.00    -0.352 N 
HETATM   21  C11 UNL     1       7.907  24.117  18.784  1.00  0.00     0.214 C 
HETATM   22  C12 UNL     1       7.762  24.232  17.326  1.00  0.00     0.117 C 
HETATM   23  O7  UNL     1       7.651  22.972  19.292  1.00  0.00    -0.274 OA
ATOM     24  H1  UNL     1       8.503  26.087  19.168  1.00  0.00     0.163 HD
ENDBRANCH   5  20
BRANCH   6  25
HETATM   25  O8  UNL     1       6.268  25.908  20.987  1.00  0.00    -0.384 OA
HETATM   26  C14 UNL     1       5.176  25.286  20.418  1.00  0.00     0.202 C 
ENDBRANCH   6  25
TORSDOF 8
ENDMDL
MODEL 3
REMARK VINA RESULT: -2.345082601      2.130      6.578
REMARK  8 active torsions:
REMARK  status: ('A' for Active; 'I' for Inactive)
REMARK    1  A    between atoms: O1_2  and  C2_3 
REMARK    2  A    between atoms: C3_5  and  C4_6 
REMARK    3  A    between atoms: C5_8  and  C6_9 
REMARK    4  A    between atoms: C6_9  and  O4_10 
REMARK    5  A    between atoms: C7_12  and  O5_13 
REMARK    6  A    between atoms: C9_15  and  O6_16 
REMARK    7  A    between atoms: C10_18  and  N1_19 
REMARK       I    between atoms: N1_19  and  C11_21 
REMARK    8  A    between atoms: C13_24  and  O8_25 
ROOT
HETATM    1  C2  UNL     1       6.975  24.336  19.882  1.00  0.00     0.290 C 
HETATM    2  O2  UNL     1       7.371  25.610  20.164  1.00  0.00    -0.348 OA
HETATM    3  C3  UNL     1       7.508  25.957  21.462  1.00  0.00     0.187 C 
HETATM    4  C9  UNL     1       6.720  25.188  22.458  1.00  0.00     0.175 C 
HETATM    5  C10 UNL     1       5.450  24.714  21.835  1.00  0.00     0.149 C 
HETATM    6  C13 UNL     1       5.802  23.833  20.663  1.00  0.00     0.201 C 
ENDROOT
BRANCH   3   7
HETATM    7  C4  UNL     1       8.969  25.941  21.934  1.00  0.00     0.185 C 
HETATM    8  O3  UNL     1       9.680  26.998  21.354  1.00  0.00    -0.370 OA
HETATM    9  C5  UNL     1      10.420  27.090  22.506  1.00  0.00     0.177 C 
HETATM   10  C7  UNL     1       9.202  26.552  23.265  1.00  0.00     0.183 C 
BRANCH   9  11
HETATM   11  C6  UNL     1      10.801  28.487  22.936  1.00  0.00     0.198 C 
BRANCH  11  12
HETATM   12  O4  UNL     1      10.828  29.352  21.842  1.00  0.00    -0.398 OA
ATOM     13  H4  UNL     1       9.948  29.523  21.526  1.00  0.00     0.209 HD
ENDBRANCH  11  12
ENDBRANCH   9  11
BRANCH  10  14
HETATM   14  O5  UNL     1       9.590  25.721  24.293  1.00  0.00    -0.385 OA
HETATM   15  C8  UNL     1       8.812  25.823  25.421  1.00  0.00     0.202 C 
ENDBRANCH  10  14
ENDBRANCH   3   7
BRANCH   4  16
HETATM   16  O6  UNL     1       6.360  26.035  23.533  1.00  0.00    -0.391 OA
ATOM     17  H6  UNL     1       7.102  26.141  24.117  1.00  0.00     0.210 HD
ENDBRANCH   4  16
BRANCH   1  18
HETATM   18  O1  UNL     1       6.622  24.304  18.531  1.00  0.00    -0.363 OA
HETATM   19  C1  UNL     1       7.716  24.008  17.718  1.00  0.00     0.204 C 
ENDBRANCH   1  18
BRANCH   5  20
HETATM   20  N1  UNL     1       4.730  23.951  22.832  1.00  0.00    -0.352 N 
HETATM   21  C11 UNL     1       3.881  24.541  23.785  1.00  0.00     0.214 C 
HETATM   22  C12 UNL     1       3.149  23.768  24.798  1.00  0.00     0.117 C 
HETATM   23  O7  UNL     1       3.714  25.807  23.807  1.00  0.00    -0.274 OA
ATOM     24  H1  UNL     1       4.843  22.937  22.843  1.00  0.00     0.163 HD
ENDBRANCH   5  20
BRANCH   6  25
HETATM   25  O8  UNL     1       6.113  22.579  21.163  1.00  0.00    -0.384 OA
HETATM   26  C14 UNL     1       6.954  21.855  20.343  1.00  0.00     0.202 C 
ENDBRANCH   6  25
TORSDOF 8
ENDMDL
MODEL 4
REMARK VINA RESULT: -2.235144859      2.203      6.711
REMARK  8 active torsions:
REMARK  status: ('A' for Active; 'I' for Inactive)
REMARK    1  A    between atoms: O1_2  and  C2_3 
REMARK    2  A    between atoms: C3_5  and  C4_6 
REMARK    3  A    between atoms: C5_8  and  C6_9 
REMARK    4  A    between atoms: C6_9  and  O4_10 
REMARK    5  A    between atoms: C7_12  and  O5_13 
REMARK    6  A    between atoms: C9_15  and  O6_16 
REMARK    7  A    between atoms: C10_18  and  N1_19 
REMARK       I    between atoms: N1_19  and  C11_21 
REMARK    8  A    between atoms: C13_24  and  O8_25 
ROOT
HETATM    1  C2  UNL     1       8.391  26.342  23.825  1.00  0.00     0.290 C 
HETATM    2  O2  UNL     1       9.733  26.099  23.761  1.00  0.00    -0.348 OA
HETATM    3  C3  UNL     1      10.366  26.355  22.596  1.00  0.00     0.187 C 
HETATM    4  C9  UNL     1       9.549  26.331  21.357  1.00  0.00     0.175 C 
HETATM    5  C10 UNL     1       8.425  25.364  21.517  1.00  0.00     0.149 C 
HETATM    6  C13 UNL     1       7.581  25.812  22.684  1.00  0.00     0.201 C 
ENDROOT
BRANCH   3   7
HETATM    7  C4  UNL     1      11.125  27.690  22.610  1.00  0.00     0.185 C 
HETATM    8  O3  UNL     1      10.237  28.758  22.432  1.00  0.00    -0.370 OA
HETATM    9  C5  UNL     1      11.031  29.513  23.258  1.00  0.00     0.177 C 
HETATM   10  C7  UNL     1      11.440  28.215  23.961  1.00  0.00     0.183 C 
BRANCH   9  11
HETATM   11  C6  UNL     1      10.306  30.468  24.177  1.00  0.00     0.198 C 
BRANCH  11  12
HETATM   12  O4  UNL     1      10.796  31.766  24.029  1.00  0.00    -0.398 OA
ATOM     13  H4  UNL     1      10.110  32.352  23.730  1.00  0.00     0.209 HD
ENDBRANCH  11  12
ENDBRANCH   9  11
BRANCH  10  14
HETATM   14  O5  UNL     1      12.764  28.256  24.341  1.00  0.00    -0.385 OA
HETATM   15  C8  UNL     1      12.993  28.952  25.504  1.00  0.00     0.202 C 
ENDBRANCH  10  14
ENDBRANCH   3   7
BRANCH   4  16
HETATM   16  O6  UNL     1      10.339  25.869  20.278  1.00  0.00    -0.391 OA
ATOM     17  H6  UNL     1      11.017  25.288  20.604  1.00  0.00     0.210 HD
ENDBRANCH   4  16
BRANCH   1  18
HETATM   18  O1  UNL     1       7.918  25.735  24.990  1.00  0.00    -0.363 OA
HETATM   19  C1  UNL     1       6.742  26.333  25.442  1.00  0.00     0.204 C 
ENDBRANCH   1  18
BRANCH   5  20
HETATM   20  N1  UNL     1       7.644  25.393  20.299  1.00  0.00    -0.352 N 
HETATM   21  C11 UNL     1       6.835  24.322  19.880  1.00  0.00     0.214 C 
HETATM   22  C12 UNL     1       6.040  24.349  18.644  1.00  0.00     0.117 C 
HETATM   23  O7  UNL     1       6.762  23.255  20.578  1.00  0.00    -0.274 OA
ATOM     24  H1  UNL     1       7.681  26.231  19.717  1.00  0.00     0.163 HD
ENDBRANCH   5  20
BRANCH   6  25
HETATM   25  O8  UNL     1       6.748  26.822  22.232  1.00  0.00    -0.384 OA
HETATM   26  C14 UNL     1       5.409  26.500  22.299  1.00  0.00     0.202 C 
ENDBRANCH   6  25
TORSDOF 8
ENDMDL
MODEL 5
REMARK VINA RESULT: -1.893477375      1.246      1.377
REMARK  8 active torsions:
REMARK  status: ('A' for Active; 'I' for Inactive)
REMARK    1  A    between atoms: O1_2  and  C2_3 
REMARK    2  A    between atoms: C3_5  and  C4_6 
REMARK    3  A    between atoms: C5_8  and  C6_9 
REMARK    4  A    between atoms: C6_9  and  O4_10 
REMARK    5  A    between atoms: C7_12  and  O5_13 
REMARK    6  A    between atoms: C9_15  and  O6_16 
REMARK    7  A    between atoms: C10_18  and  N1_19 
REMARK       I    between atoms: N1_19  and  C11_21 
REMARK    8  A    between atoms: C13_24  and  O8_25 
ROOT
HETATM    1  C2  UNL     1       6.843  26.043  23.645  1.00  0.00     0.290 C 
HETATM    2  O2  UNL     1       6.494  26.268  22.345  1.00  0.00    -0.348 OA
HETATM    3  C3  UNL     1       7.380  25.927  21.385  1.00  0.00     0.187 C 
HETATM    4  C9  UNL     1       8.813  25.876  21.769  1.00  0.00     0.175 C 
HETATM    5  C10 UNL     1       9.077  26.863  22.855  1.00  0.00     0.149 C 
HETATM    6  C13 UNL     1       8.212  26.503  24.038  1.00  0.00     0.201 C 
ENDROOT
BRANCH   3   7
HETATM    7  C4  UNL     1       7.045  24.588  20.711  1.00  0.00     0.185 C 
HETATM    8  O3  UNL     1       6.236  23.810  21.548  1.00  0.00    -0.370 OA
HETATM    9  C5  UNL     1       5.611  23.317  20.429  1.00  0.00     0.177 C 
HETATM   10  C7  UNL     1       5.933  24.643  19.733  1.00  0.00     0.183 C 
BRANCH   9  11
HETATM   11  C6  UNL     1       4.126  23.073  20.558  1.00  0.00     0.198 C 
BRANCH  11  12
HETATM   12  O4  UNL     1       3.661  23.491  21.805  1.00  0.00    -0.398 OA
ATOM     13  H4  UNL     1       2.748  23.255  21.921  1.00  0.00     0.209 HD
ENDBRANCH  11  12
ENDBRANCH   9  11
BRANCH  10  14
HETATM   14  O5  UNL     1       6.235  24.441  18.404  1.00  0.00    -0.385 OA
HETATM   15  C8  UNL     1       7.526  24.026  18.179  1.00  0.00     0.202 C 
ENDBRANCH  10  14
ENDBRANCH   3   7
BRANCH   4  16
HETATM   16  O6  UNL     1       9.613  26.255  20.665  1.00  0.00    -0.391 OA
ATOM     17  H6  UNL     1       9.191  25.986  19.858  1.00  0.00     0.210 HD
ENDBRANCH   4  16
BRANCH   1  18
HETATM   18  O1  UNL     1       5.927  26.732  24.442  1.00  0.00    -0.363 OA
HETATM   19  C1  UNL     1       4.717  26.047  24.547  1.00  0.00     0.204 C 
ENDBRANCH   1  18
BRANCH   5  20
HETATM   20  N1  UNL     1      10.476  26.759  23.213  1.00  0.00    -0.352 N 
HETATM   21  C11 UNL     1      11.251  27.864  23.609  1.00  0.00     0.214 C 
HETATM   22  C12 UNL     1      12.671  27.761  23.974  1.00  0.00     0.117 C 
HETATM   23  O7  UNL     1      10.733  29.030  23.666  1.00  0.00    -0.274 OA
ATOM     24  H1  UNL     1      10.920  25.841  23.177  1.00  0.00     0.163 HD
ENDBRANCH   5  20
BRANCH   6  25
HETATM   25  O8  UNL     1       8.842  25.473  24.716  1.00  0.00    -0.384 OA
HETATM   26  C14 UNL     1       8.771  25.595  26.088  1.00  0.00     0.202 C 
ENDBRANCH   6  25
TORSDOF 8
ENDMDL
