MODEL 1
REMARK VINA RESULT: -6.627247723      0.000      0.000
REMARK  4 active torsions:
REMARK  status: ('A' for Active; 'I' for Inactive)
REMARK       I    between atoms: N1_2  and  C2_4 
REMARK    1  A    between atoms: C2_4  and  C3_6 
REMARK    2  A    between atoms: C3_6  and  N2_8 
REMARK       I    between atoms: N2_8  and  C5_10 
REMARK       I    between atoms: C5_10  and  N4_14 
REMARK    3  A    between atoms: C8_17  and  N5_18 
REMARK    4  A    between atoms: C8_17  and  C9_22 
ROOT
HETATM    1  N2  UNL     1      39.058   1.575 103.064  1.00  0.00    -0.214 N 
ATOM      2  H2  UNL     1      39.246   1.324 104.034  1.00  0.00     0.178 HD
HETATM    3  C5  UNL     1      38.397   2.804 102.816  1.00  0.00     0.670 C 
HETATM    4  N3  UNL     1      38.814   3.542 101.854  1.00  0.00    -0.235 N 
ATOM      5  H31 UNL     1      38.338   4.426 101.676  1.00  0.00     0.174 HD
ATOM      6  H32 UNL     1      39.605   3.238 101.288  1.00  0.00     0.174 HD
HETATM    7  N4  UNL     1      37.310   3.222 103.593  1.00  0.00    -0.215 N 
HETATM    8  C6  UNL     1      36.551   2.389 104.530  1.00  0.00     0.144 C 
HETATM    9  C7  UNL     1      35.662   3.305 105.297  1.00  0.00     0.070 C 
HETATM   10  C8  UNL     1      36.277   4.665 105.047  1.00  0.00     0.218 C 
HETATM   11  C10 UNL     1      36.726   4.547 103.626  1.00  0.00     0.189 C 
ENDROOT
BRANCH   1  12
HETATM   12  C3  UNL     1      39.478   0.663 102.045  1.00  0.00     0.187 C 
HETATM   13  C4  UNL     1      39.104  -0.753 102.493  1.00  0.00     0.043 C 
BRANCH  12  14
HETATM   14  C2  UNL     1      40.895   0.747 101.705  1.00  0.00     0.240 C 
HETATM   15  N1  UNL     1      41.633  -0.414 101.389  1.00  0.00    -0.364 N 
HETATM   16  C1  UNL     1      43.041  -0.377 101.044  1.00  0.00     0.149 C 
ATOM     17  H1  UNL     1      41.157  -1.316 101.403  1.00  0.00     0.161 HD
HETATM   18  O1  UNL     1      41.476   1.850 101.687  1.00  0.00    -0.271 OA
ENDBRANCH  12  14
ENDBRANCH   1  12
BRANCH  10  19
HETATM   19  N5  UNL     1      35.256   5.661 105.241  1.00  0.00    -0.060 N 
ATOM     20  H53 UNL     1      35.172   5.954 106.214  1.00  0.00     0.275 HD
ATOM     21  H52 UNL     1      35.510   6.567 104.846  1.00  0.00     0.275 HD
ATOM     22  H51 UNL     1      34.382   5.298 104.862  1.00  0.00     0.275 HD
ENDBRANCH  10  19
BRANCH  10  23
HETATM   23  C9  UNL     1      37.397   4.832 106.002  1.00  0.00     0.269 C 
HETATM   24  N6  UNL     1      38.604   5.477 105.704  1.00  0.00    -0.060 NA
HETATM   25  O2  UNL     1      37.251   4.363 107.161  1.00  0.00    -0.274 OA
ENDBRANCH  10  23
TORSDOF 4
ENDMDL
MODEL 2
REMARK VINA RESULT: -5.755615740      1.351      1.464
REMARK  4 active torsions:
REMARK  status: ('A' for Active; 'I' for Inactive)
REMARK       I    between atoms: N1_2  and  C2_4 
REMARK    1  A    between atoms: C2_4  and  C3_6 
REMARK    2  A    between atoms: C3_6  and  N2_8 
REMARK       I    between atoms: N2_8  and  C5_10 
REMARK       I    between atoms: C5_10  and  N4_14 
REMARK    3  A    between atoms: C8_17  and  N5_18 
REMARK    4  A    between atoms: C8_17  and  C9_22 
ROOT
HETATM    1  N2  UNL     1      39.524   1.662 102.703  1.00  0.00    -0.214 N 
ATOM      2  H2  UNL     1      40.302   2.173 103.120  1.00  0.00     0.178 HD
HETATM    3  C5  UNL     1      38.213   2.136 102.954  1.00  0.00     0.670 C 
HETATM    4  N3  UNL     1      37.376   2.166 101.983  1.00  0.00    -0.235 N 
ATOM      5  H31 UNL     1      36.432   2.508 102.164  1.00  0.00     0.174 HD
ATOM      6  H32 UNL     1      37.662   1.852 101.056  1.00  0.00     0.174 HD
HETATM    7  N4  UNL     1      37.819   2.567 104.226  1.00  0.00    -0.215 N 
HETATM    8  C6  UNL     1      38.551   2.342 105.475  1.00  0.00     0.144 C 
HETATM    9  C7  UNL     1      37.890   3.176 106.517  1.00  0.00     0.070 C 
HETATM   10  C8  UNL     1      37.079   4.160 105.701  1.00  0.00     0.218 C 
HETATM   11  C10 UNL     1      36.622   3.314 104.557  1.00  0.00     0.189 C 
ENDROOT
BRANCH   1  12
HETATM   12  C3  UNL     1      39.831   0.514 101.906  1.00  0.00     0.187 C 
HETATM   13  C4  UNL     1      39.534  -0.735 102.740  1.00  0.00     0.043 C 
BRANCH  12  14
HETATM   14  C2  UNL     1      41.195   0.485 101.388  1.00  0.00     0.240 C 
HETATM   15  N1  UNL     1      41.743  -0.704 100.859  1.00  0.00    -0.364 N 
HETATM   16  C1  UNL     1      43.092  -0.778 100.333  1.00  0.00     0.149 C 
ATOM     17  H1  UNL     1      41.167  -1.546 100.846  1.00  0.00     0.161 HD
HETATM   18  O1  UNL     1      41.899   1.515 101.403  1.00  0.00    -0.271 OA
ENDBRANCH  12  14
ENDBRANCH   1  12
BRANCH  10  19
HETATM   19  N5  UNL     1      35.997   4.639 106.522  1.00  0.00    -0.060 N 
ATOM     20  H53 UNL     1      35.827   5.638 106.407  1.00  0.00     0.275 HD
ATOM     21  H52 UNL     1      35.086   4.306 106.206  1.00  0.00     0.275 HD
ATOM     22  H51 UNL     1      36.196   4.382 107.490  1.00  0.00     0.275 HD
ENDBRANCH  10  19
BRANCH  10  23
HETATM   23  C9  UNL     1      37.985   5.258 105.292  1.00  0.00     0.269 C 
HETATM   24  N6  UNL     1      39.210   5.545 105.908  1.00  0.00    -0.060 NA
HETATM   25  O2  UNL     1      37.628   5.981 104.326  1.00  0.00    -0.274 OA
ENDBRANCH  10  23
TORSDOF 4
ENDMDL
MODEL 3
REMARK VINA RESULT: -5.374157553      1.895      2.694
REMARK  4 active torsions:
REMARK  status: ('A' for Active; 'I' for Inactive)
REMARK       I    between atoms: N1_2  and  C2_4 
REMARK    1  A    between atoms: C2_4  and  C3_6 
REMARK    2  A    between atoms: C3_6  and  N2_8 
REMARK       I    between atoms: N2_8  and  C5_10 
REMARK       I    between atoms: C5_10  and  N4_14 
REMARK    3  A    between atoms: C8_17  and  N5_18 
REMARK    4  A    between atoms: C8_17  and  C9_22 
ROOT
HETATM    1  N2  UNL     1      38.574   2.129 103.208  1.00  0.00    -0.214 N 
ATOM      2  H2  UNL     1      37.835   1.857 102.559  1.00  0.00     0.178 HD
HETATM    3  C5  UNL     1      38.198   2.842 104.374  1.00  0.00     0.670 C 
HETATM    4  N3  UNL     1      38.744   2.523 105.489  1.00  0.00    -0.235 N 
ATOM      5  H31 UNL     1      38.473   3.036 106.328  1.00  0.00     0.174 HD
ATOM      6  H32 UNL     1      39.431   1.771 105.521  1.00  0.00     0.174 HD
HETATM    7  N4  UNL     1      37.254   3.874 104.330  1.00  0.00    -0.215 N 
HETATM    8  C6  UNL     1      36.755   4.532 103.120  1.00  0.00     0.144 C 
HETATM    9  C7  UNL     1      35.605   5.384 103.537  1.00  0.00     0.070 C 
HETATM   10  C8  UNL     1      35.247   4.828 104.899  1.00  0.00     0.218 C 
HETATM   11  C10 UNL     1      36.590   4.490 105.461  1.00  0.00     0.189 C 
ENDROOT
BRANCH   1  12
HETATM   12  C3  UNL     1      39.918   1.766 102.879  1.00  0.00     0.187 C 
HETATM   13  C4  UNL     1      40.536   2.914 102.075  1.00  0.00     0.043 C 
BRANCH  12  14
HETATM   14  C2  UNL     1      40.045   0.499 102.165  1.00  0.00     0.240 C 
HETATM   15  N1  UNL     1      41.044   0.318 101.184  1.00  0.00    -0.364 N 
HETATM   16  C1  UNL     1      41.207  -0.923 100.452  1.00  0.00     0.149 C 
ATOM     17  H1  UNL     1      41.677   1.092 100.982  1.00  0.00     0.161 HD
HETATM   18  O1  UNL     1      39.270  -0.447 102.414  1.00  0.00    -0.271 OA
ENDBRANCH  12  14
ENDBRANCH   1  12
BRANCH  10  19
HETATM   19  N5  UNL     1      34.563   5.857 105.637  1.00  0.00    -0.060 N 
ATOM     20  H53 UNL     1      34.159   5.515 106.509  1.00  0.00     0.275 HD
ATOM     21  H52 UNL     1      35.202   6.542 106.041  1.00  0.00     0.275 HD
ATOM     22  H51 UNL     1      33.869   6.282 105.022  1.00  0.00     0.275 HD
ENDBRANCH  10  19
BRANCH  10  23
HETATM   23  C9  UNL     1      34.386   3.641 104.686  1.00  0.00     0.269 C 
HETATM   24  N6  UNL     1      33.858   3.257 103.447  1.00  0.00    -0.060 NA
HETATM   25  O2  UNL     1      34.113   2.930 105.688  1.00  0.00    -0.274 OA
ENDBRANCH  10  23
TORSDOF 4
ENDMDL
MODEL 4
REMARK VINA RESULT: -5.309599126      1.615      1.818
REMARK  4 active torsions:
REMARK  status: ('A' for Active; 'I' for Inactive)
REMARK       I    between atoms: N1_2  and  C2_4 
REMARK    1  A    between atoms: C2_4  and  C3_6 
REMARK    2  A    between atoms: C3_6  and  N2_8 
REMARK       I    between atoms: N2_8  and  C5_10 
REMARK       I    between atoms: C5_10  and  N4_14 
REMARK    3  A    between atoms: C8_17  and  N5_18 
REMARK    4  A    between atoms: C8_17  and  C9_22 
ROOT
HETATM    1  N2  UNL     1      40.723   1.393 102.367  1.00  0.00    -0.214 N 
ATOM      2  H2  UNL     1      40.947   1.026 103.292  1.00  0.00     0.178 HD
HETATM    3  C5  UNL     1      40.051   2.639 102.296  1.00  0.00     0.670 C 
HETATM    4  N3  UNL     1      40.432   3.491 101.418  1.00  0.00    -0.235 N 
ATOM      5  H31 UNL     1      39.948   4.388 101.367  1.00  0.00     0.174 HD
ATOM      6  H32 UNL     1      41.203   3.264 100.791  1.00  0.00     0.174 HD
HETATM    7  N4  UNL     1      38.993   2.951 103.157  1.00  0.00    -0.215 N 
HETATM    8  C6  UNL     1      38.270   2.005 104.011  1.00  0.00     0.144 C 
HETATM    9  C7  UNL     1      37.407   2.815 104.915  1.00  0.00     0.070 C 
HETATM   10  C8  UNL     1      38.011   4.200 104.812  1.00  0.00     0.218 C 
HETATM   11  C10 UNL     1      38.408   4.260 103.373  1.00  0.00     0.189 C 
ENDROOT
BRANCH   1  12
HETATM   12  C3  UNL     1      41.108   0.615 101.230  1.00  0.00     0.187 C 
HETATM   13  C4  UNL     1      40.083  -0.510 101.057  1.00  0.00     0.043 C 
BRANCH  12  14
HETATM   14  C2  UNL     1      42.464   0.082 101.293  1.00  0.00     0.240 C 
HETATM   15  N1  UNL     1      42.814  -1.092 100.591  1.00  0.00    -0.364 N 
HETATM   16  C1  UNL     1      44.150  -1.656 100.625  1.00  0.00     0.149 C 
ATOM     17  H1  UNL     1      42.099  -1.564 100.038  1.00  0.00     0.161 HD
HETATM   18  O1  UNL     1      43.340   0.659 101.969  1.00  0.00    -0.271 OA
ENDBRANCH  12  14
ENDBRANCH   1  12
BRANCH  10  19
HETATM   19  N5  UNL     1      36.995   5.158 105.163  1.00  0.00    -0.060 N 
ATOM     20  H53 UNL     1      36.610   5.639 104.351  1.00  0.00     0.275 HD
ATOM     21  H52 UNL     1      36.133   4.718 105.484  1.00  0.00     0.275 HD
ATOM     22  H51 UNL     1      37.390   5.800 105.851  1.00  0.00     0.275 HD
ENDBRANCH  10  19
BRANCH  10  23
HETATM   23  C9  UNL     1      39.163   4.256 105.741  1.00  0.00     0.269 C 
HETATM   24  N6  UNL     1      40.277   5.088 105.572  1.00  0.00    -0.060 NA
HETATM   25  O2  UNL     1      39.139   3.503 106.749  1.00  0.00    -0.274 OA
ENDBRANCH  10  23
TORSDOF 4
ENDMDL
MODEL 5
REMARK VINA RESULT: -5.037080074      1.692      1.961
REMARK  4 active torsions:
REMARK  status: ('A' for Active; 'I' for Inactive)
REMARK       I    between atoms: N1_2  and  C2_4 
REMARK    1  A    between atoms: C2_4  and  C3_6 
REMARK    2  A    between atoms: C3_6  and  N2_8 
REMARK       I    between atoms: N2_8  and  C5_10 
REMARK       I    between atoms: C5_10  and  N4_14 
REMARK    3  A    between atoms: C8_17  and  N5_18 
REMARK    4  A    between atoms: C8_17  and  C9_22 
ROOT
HETATM    1  N2  UNL     1      39.193   2.654 103.497  1.00  0.00    -0.214 N 
ATOM      2  H2  UNL     1      38.872   1.955 104.167  1.00  0.00     0.178 HD
HETATM    3  C5  UNL     1      38.547   3.915 103.499  1.00  0.00     0.670 C 
HETATM    4  N3  UNL     1      39.266   4.972 103.393  1.00  0.00    -0.235 N 
ATOM      5  H31 UNL     1      38.800   5.879 103.394  1.00  0.00     0.174 HD
ATOM      6  H32 UNL     1      40.278   4.891 103.310  1.00  0.00     0.174 HD
HETATM    7  N4  UNL     1      37.157   4.027 103.612  1.00  0.00    -0.215 N 
HETATM    8  C6  UNL     1      36.191   2.935 103.465  1.00  0.00     0.144 C 
HETATM    9  C7  UNL     1      34.871   3.467 103.904  1.00  0.00     0.070 C 
HETATM   10  C8  UNL     1      35.246   4.710 104.683  1.00  0.00     0.218 C 
HETATM   11  C10 UNL     1      36.404   5.232 103.895  1.00  0.00     0.189 C 
ENDROOT
BRANCH   1  12
HETATM   12  C3  UNL     1      40.265   2.294 102.620  1.00  0.00     0.187 C 
HETATM   13  C4  UNL     1      40.319   3.327 101.490  1.00  0.00     0.043 C 
BRANCH  12  14
HETATM   14  C2  UNL     1      40.181   0.939 102.086  1.00  0.00     0.240 C 
HETATM   15  N1  UNL     1      41.129   0.468 101.152  1.00  0.00    -0.364 N 
HETATM   16  C1  UNL     1      41.084  -0.871 100.597  1.00  0.00     0.149 C 
ATOM     17  H1  UNL     1      41.876   1.096 100.854  1.00  0.00     0.161 HD
HETATM   18  O1  UNL     1      39.267   0.171 102.451  1.00  0.00    -0.271 OA
ENDBRANCH  12  14
ENDBRANCH   1  12
BRANCH  10  19
HETATM   19  N5  UNL     1      34.112   5.596 104.685  1.00  0.00    -0.060 N 
ATOM     20  H53 UNL     1      33.483   5.433 103.898  1.00  0.00     0.275 HD
ATOM     21  H52 UNL     1      33.452   5.389 105.434  1.00  0.00     0.275 HD
ATOM     22  H51 UNL     1      34.459   6.555 104.719  1.00  0.00     0.275 HD
ENDBRANCH  10  19
BRANCH  10  23
HETATM   23  C9  UNL     1      35.614   4.286 106.053  1.00  0.00     0.269 C 
HETATM   24  N6  UNL     1      36.425   5.027 106.921  1.00  0.00    -0.060 NA
HETATM   25  O2  UNL     1      35.167   3.183 106.464  1.00  0.00    -0.274 OA
ENDBRANCH  10  23
TORSDOF 4
ENDMDL
