MODEL 1
REMARK VINA RESULT: -7.138624030      0.000      0.000
REMARK  6 active torsions:
REMARK  status: ('A' for Active; 'I' for Inactive)
REMARK       I    between atoms: N1_2  and  C2_4 
REMARK    1  A    between atoms: C2_4  and  C3_6 
REMARK    2  A    between atoms: C3_6  and  N4_12 
REMARK       I    between atoms: N2_7  and  C4_9 
REMARK    3  A    between atoms: N4_12  and  C5_14 
REMARK    4  A    between atoms: C5_14  and  N5_16 
REMARK    5  A    between atoms: N5_16  and  C6_18 
REMARK    6  A    between atoms: C6_18  and  C7_19 
ROOT
HETATM    1  C3  UNL     1      36.932   4.794 104.338  1.00  0.00     0.180 C 
HETATM    2  N2  UNL     1      35.811   5.254 104.778  1.00  0.00    -0.292 N 
ATOM      3  H2  UNL     1      35.812   5.669 105.710  1.00  0.00     0.172 HD
HETATM    4  C4  UNL     1      34.585   5.232 104.086  1.00  0.00     0.334 C 
HETATM    5  N3  UNL     1      34.164   4.060 103.435  1.00  0.00    -0.040 NA
HETATM    6  O2  UNL     1      33.882   6.261 104.059  1.00  0.00    -0.251 OA
ENDROOT
BRANCH   1   7
HETATM    7  C2  UNL     1      38.097   4.909 105.202  1.00  0.00     0.285 C 
HETATM    8  N1  UNL     1      38.612   3.808 105.945  1.00  0.00    -0.359 N 
HETATM    9  C1  UNL     1      39.759   3.905 106.802  1.00  0.00     0.149 C 
ATOM     10  H1  UNL     1      38.143   2.906 105.864  1.00  0.00     0.162 HD
HETATM   11  O1  UNL     1      38.709   6.020 105.329  1.00  0.00    -0.264 OA
ENDBRANCH   1   7
BRANCH   1  12
HETATM   12  N4  UNL     1      37.072   4.180 103.080  1.00  0.00    -0.315 N 
ATOM     13  H4  UNL     1      36.392   4.442 102.367  1.00  0.00     0.170 HD
BRANCH  12  14
HETATM   14  C5  UNL     1      38.053   3.242 102.699  1.00  0.00     0.173 C 
HETATM   15  S1  UNL     1      39.445   3.691 101.983  1.00  0.00    -0.041 SA
BRANCH  14  16
HETATM   16  N5  UNL     1      37.832   1.861 102.929  1.00  0.00    -0.357 N 
ATOM     17  H5  UNL     1      36.937   1.455 102.655  1.00  0.00     0.162 HD
BRANCH  16  18
HETATM   18  C6  UNL     1      38.826   1.007 103.535  1.00  0.00     0.235 C 
BRANCH  18  19
HETATM   19  C7  UNL     1      39.211  -0.148 102.711  1.00  0.00     0.191 C 
HETATM   20  O3  UNL     1      38.522  -1.208 102.756  1.00  0.00    -0.647 OA
HETATM   21  O4  UNL     1      40.304  -0.118 101.887  1.00  0.00    -0.647 OA
ENDBRANCH  18  19
ENDBRANCH  16  18
ENDBRANCH  14  16
ENDBRANCH  12  14
ENDBRANCH   1  12
TORSDOF 6
ENDMDL
MODEL 2
REMARK VINA RESULT: -7.064544496      1.037      1.327
REMARK  6 active torsions:
REMARK  status: ('A' for Active; 'I' for Inactive)
REMARK       I    between atoms: N1_2  and  C2_4 
REMARK    1  A    between atoms: C2_4  and  C3_6 
REMARK    2  A    between atoms: C3_6  and  N4_12 
REMARK       I    between atoms: N2_7  and  C4_9 
REMARK    3  A    between atoms: N4_12  and  C5_14 
REMARK    4  A    between atoms: C5_14  and  N5_16 
REMARK    5  A    between atoms: N5_16  and  C6_18 
REMARK    6  A    between atoms: C6_18  and  C7_19 
ROOT
HETATM    1  C3  UNL     1      37.148   4.481 104.237  1.00  0.00     0.180 C 
HETATM    2  N2  UNL     1      36.108   5.231 104.371  1.00  0.00    -0.292 N 
ATOM      3  H2  UNL     1      36.133   5.932 105.111  1.00  0.00     0.172 HD
HETATM    4  C4  UNL     1      34.941   5.166 103.585  1.00  0.00     0.334 C 
HETATM    5  N3  UNL     1      34.349   3.923 103.305  1.00  0.00    -0.040 NA
HETATM    6  O2  UNL     1      34.444   6.220 103.145  1.00  0.00    -0.251 OA
ENDROOT
BRANCH   1   7
HETATM    7  C2  UNL     1      38.263   4.701 105.147  1.00  0.00     0.285 C 
HETATM    8  N1  UNL     1      38.845   3.650 105.913  1.00  0.00    -0.359 N 
HETATM    9  C1  UNL     1      39.943   3.850 106.815  1.00  0.00     0.149 C 
ATOM     10  H1  UNL     1      38.463   2.709 105.816  1.00  0.00     0.162 HD
HETATM   11  O1  UNL     1      38.765   5.862 105.296  1.00  0.00    -0.264 OA
ENDBRANCH   1   7
BRANCH   1  12
HETATM   12  N4  UNL     1      37.245   3.463 103.271  1.00  0.00    -0.315 N 
ATOM     13  H4  UNL     1      36.412   2.895 103.123  1.00  0.00     0.170 HD
BRANCH  12  14
HETATM   14  C5  UNL     1      38.372   3.144 102.486  1.00  0.00     0.173 C 
HETATM   15  S1  UNL     1      39.509   4.251 102.120  1.00  0.00    -0.041 SA
BRANCH  14  16
HETATM   16  N5  UNL     1      38.529   1.830 101.982  1.00  0.00    -0.357 N 
ATOM     17  H5  UNL     1      37.918   1.516 101.227  1.00  0.00     0.162 HD
BRANCH  16  18
HETATM   18  C6  UNL     1      39.523   0.916 102.497  1.00  0.00     0.235 C 
BRANCH  18  19
HETATM   19  C7  UNL     1      40.638   0.658 101.575  1.00  0.00     0.191 C 
HETATM   20  O3  UNL     1      41.622   1.452 101.544  1.00  0.00    -0.647 OA
HETATM   21  O4  UNL     1      40.650  -0.424 100.737  1.00  0.00    -0.647 OA
ENDBRANCH  18  19
ENDBRANCH  16  18
ENDBRANCH  14  16
ENDBRANCH  12  14
ENDBRANCH   1  12
TORSDOF 6
ENDMDL
MODEL 3
REMARK VINA RESULT: -6.930360043      2.181      5.701
REMARK  6 active torsions:
REMARK  status: ('A' for Active; 'I' for Inactive)
REMARK       I    between atoms: N1_2  and  C2_4 
REMARK    1  A    between atoms: C2_4  and  C3_6 
REMARK    2  A    between atoms: C3_6  and  N4_12 
REMARK       I    between atoms: N2_7  and  C4_9 
REMARK    3  A    between atoms: N4_12  and  C5_14 
REMARK    4  A    between atoms: C5_14  and  N5_16 
REMARK    5  A    between atoms: N5_16  and  C6_18 
REMARK    6  A    between atoms: C6_18  and  C7_19 
ROOT
HETATM    1  C3  UNL     1      38.629   3.332 104.109  1.00  0.00     0.180 C 
HETATM    2  N2  UNL     1      39.654   3.517 104.869  1.00  0.00    -0.292 N 
ATOM      3  H2  UNL     1      40.427   2.858 104.775  1.00  0.00     0.172 HD
HETATM    4  C4  UNL     1      39.800   4.548 105.817  1.00  0.00     0.334 C 
HETATM    5  N3  UNL     1      38.748   4.848 106.698  1.00  0.00    -0.040 NA
HETATM    6  O2  UNL     1      40.869   5.186 105.863  1.00  0.00    -0.251 OA
ENDROOT
BRANCH   1   7
HETATM    7  C2  UNL     1      38.664   2.207 103.187  1.00  0.00     0.285 C 
HETATM    8  N1  UNL     1      38.905   0.870 103.618  1.00  0.00    -0.359 N 
HETATM    9  C1  UNL     1      38.943  -0.250 102.721  1.00  0.00     0.149 C 
ATOM     10  H1  UNL     1      39.057   0.701 104.612  1.00  0.00     0.162 HD
HETATM   11  O1  UNL     1      38.478   2.380 101.938  1.00  0.00    -0.264 OA
ENDBRANCH   1   7
BRANCH   1  12
HETATM   12  N4  UNL     1      37.487   4.152 104.144  1.00  0.00    -0.315 N 
ATOM     13  H4  UNL     1      37.628   5.139 103.929  1.00  0.00     0.170 HD
BRANCH  12  14
HETATM   14  C5  UNL     1      36.167   3.756 104.444  1.00  0.00     0.173 C 
HETATM   15  S1  UNL     1      35.745   3.211 105.919  1.00  0.00    -0.041 SA
BRANCH  14  16
HETATM   16  N5  UNL     1      35.169   3.816 103.440  1.00  0.00    -0.357 N 
ATOM     17  H5  UNL     1      35.355   3.381 102.536  1.00  0.00     0.162 HD
BRANCH  16  18
HETATM   18  C6  UNL     1      33.898   4.470 103.649  1.00  0.00     0.235 C 
BRANCH  18  19
HETATM   19  C7  UNL     1      33.996   5.921 103.860  1.00  0.00     0.191 C 
HETATM   20  O3  UNL     1      34.702   6.622 103.079  1.00  0.00    -0.647 OA
HETATM   21  O4  UNL     1      33.344   6.549 104.887  1.00  0.00    -0.647 OA
ENDBRANCH  18  19
ENDBRANCH  16  18
ENDBRANCH  14  16
ENDBRANCH  12  14
ENDBRANCH   1  12
TORSDOF 6
ENDMDL
MODEL 4
REMARK VINA RESULT: -6.806651153      1.544      1.651
REMARK  6 active torsions:
REMARK  status: ('A' for Active; 'I' for Inactive)
REMARK       I    between atoms: N1_2  and  C2_4 
REMARK    1  A    between atoms: C2_4  and  C3_6 
REMARK    2  A    between atoms: C3_6  and  N4_12 
REMARK       I    between atoms: N2_7  and  C4_9 
REMARK    3  A    between atoms: N4_12  and  C5_14 
REMARK    4  A    between atoms: C5_14  and  N5_16 
REMARK    5  A    between atoms: N5_16  and  C6_18 
REMARK    6  A    between atoms: C6_18  and  C7_19 
ROOT
HETATM    1  C3  UNL     1      36.804   3.505 104.721  1.00  0.00     0.180 C 
HETATM    2  N2  UNL     1      35.851   4.370 104.630  1.00  0.00    -0.292 N 
ATOM      3  H2  UNL     1      35.787   5.070 105.369  1.00  0.00     0.172 HD
HETATM    4  C4  UNL     1      34.892   4.431 103.601  1.00  0.00     0.334 C 
HETATM    5  N3  UNL     1      34.242   3.261 103.173  1.00  0.00    -0.040 NA
HETATM    6  O2  UNL     1      34.629   5.531 103.078  1.00  0.00    -0.251 OA
ENDROOT
BRANCH   1   7
HETATM    7  C2  UNL     1      37.702   3.605 105.862  1.00  0.00     0.285 C 
HETATM    8  N1  UNL     1      39.047   4.056 105.741  1.00  0.00    -0.359 N 
HETATM    9  C1  UNL     1      39.945   4.160 106.856  1.00  0.00     0.149 C 
ATOM     10  H1  UNL     1      39.390   4.319 104.817  1.00  0.00     0.162 HD
HETATM   11  O1  UNL     1      37.309   3.286 107.031  1.00  0.00    -0.264 OA
ENDBRANCH   1   7
BRANCH   1  12
HETATM   12  N4  UNL     1      37.001   2.475 103.784  1.00  0.00    -0.315 N 
ATOM     13  H4  UNL     1      36.315   1.719 103.787  1.00  0.00     0.170 HD
BRANCH  12  14
HETATM   14  C5  UNL     1      38.044   2.374 102.842  1.00  0.00     0.173 C 
HETATM   15  S1  UNL     1      38.879   3.677 102.337  1.00  0.00    -0.041 SA
BRANCH  14  16
HETATM   16  N5  UNL     1      38.382   1.109 102.298  1.00  0.00    -0.357 N 
ATOM     17  H5  UNL     1      37.725   0.657 101.662  1.00  0.00     0.162 HD
BRANCH  16  18
HETATM   18  C6  UNL     1      39.621   0.437 102.612  1.00  0.00     0.235 C 
BRANCH  18  19
HETATM   19  C7  UNL     1      40.608   0.455 101.523  1.00  0.00     0.191 C 
HETATM   20  O3  UNL     1      40.662  -0.513 100.710  1.00  0.00    -0.647 OA
HETATM   21  O4  UNL     1      41.483   1.494 101.355  1.00  0.00    -0.647 OA
ENDBRANCH  18  19
ENDBRANCH  16  18
ENDBRANCH  14  16
ENDBRANCH  12  14
ENDBRANCH   1  12
TORSDOF 6
ENDMDL
MODEL 5
REMARK VINA RESULT: -6.707629173      2.525      4.254
REMARK  6 active torsions:
REMARK  status: ('A' for Active; 'I' for Inactive)
REMARK       I    between atoms: N1_2  and  C2_4 
REMARK    1  A    between atoms: C2_4  and  C3_6 
REMARK    2  A    between atoms: C3_6  and  N4_12 
REMARK       I    between atoms: N2_7  and  C4_9 
REMARK    3  A    between atoms: N4_12  and  C5_14 
REMARK    4  A    between atoms: C5_14  and  N5_16 
REMARK    5  A    between atoms: N5_16  and  C6_18 
REMARK    6  A    between atoms: C6_18  and  C7_19 
ROOT
HETATM    1  C3  UNL     1      36.620   2.975 103.758  1.00  0.00     0.180 C 
HETATM    2  N2  UNL     1      35.724   3.274 102.880  1.00  0.00    -0.292 N 
ATOM      3  H2  UNL     1      36.034   3.376 101.914  1.00  0.00     0.172 HD
HETATM    4  C4  UNL     1      34.354   3.470 103.140  1.00  0.00     0.334 C 
HETATM    5  N3  UNL     1      33.949   4.265 104.226  1.00  0.00    -0.040 NA
HETATM    6  O2  UNL     1      33.509   2.934 102.396  1.00  0.00    -0.251 OA
ENDROOT
BRANCH   1   7
HETATM    7  C2  UNL     1      37.990   2.809 103.295  1.00  0.00     0.285 C 
HETATM    8  N1  UNL     1      38.751   3.884 102.751  1.00  0.00    -0.359 N 
HETATM    9  C1  UNL     1      40.102   3.737 102.290  1.00  0.00     0.149 C 
ATOM     10  H1  UNL     1      38.314   4.804 102.686  1.00  0.00     0.162 HD
HETATM   11  O1  UNL     1      38.569   1.676 103.360  1.00  0.00    -0.264 OA
ENDBRANCH   1   7
BRANCH   1  12
HETATM   12  N4  UNL     1      36.338   2.820 105.127  1.00  0.00    -0.315 N 
ATOM     13  H4  UNL     1      35.681   2.081 105.375  1.00  0.00     0.170 HD
BRANCH  12  14
HETATM   14  C5  UNL     1      36.865   3.578 106.192  1.00  0.00     0.173 C 
HETATM   15  S1  UNL     1      36.268   5.039 106.590  1.00  0.00    -0.041 SA
BRANCH  14  16
HETATM   16  N5  UNL     1      37.956   3.072 106.942  1.00  0.00    -0.357 N 
ATOM     17  H5  UNL     1      37.790   2.754 107.897  1.00  0.00     0.162 HD
BRANCH  16  18
HETATM   18  C6  UNL     1      39.295   2.991 106.405  1.00  0.00     0.235 C 
BRANCH  18  19
HETATM   19  C7  UNL     1      39.991   4.283 106.325  1.00  0.00     0.191 C 
HETATM   20  O3  UNL     1      40.928   4.541 107.135  1.00  0.00    -0.647 OA
HETATM   21  O4  UNL     1      39.657   5.230 105.396  1.00  0.00    -0.647 OA
ENDBRANCH  18  19
ENDBRANCH  16  18
ENDBRANCH  14  16
ENDBRANCH  12  14
ENDBRANCH   1  12
TORSDOF 6
ENDMDL
