MODEL 1
REMARK VINA RESULT: -9.158378224      0.000      0.000
REMARK  9 active torsions:
REMARK  status: ('A' for Active; 'I' for Inactive)
REMARK    1  A    between atoms: C2_2  and  C3_3 
REMARK    2  A    between atoms: C3_3  and  S1_4 
REMARK    3  A    between atoms: S1_4  and  C4_5 
REMARK    4  A    between atoms: C5_8  and  N2_9 
REMARK    5  A    between atoms: N2_9  and  C6_11 
REMARK    6  A    between atoms: C9_15  and  N3_16 
REMARK    7  A    between atoms: C15_22  and  C16_23 
REMARK    8  A    between atoms: C18_27  and  O1_28 
REMARK    9  A    between atoms: O1_28  and  C19_29 
ROOT
HETATM    1  C4  UNL     1      15.419   4.346  14.581  1.00  0.00     0.162 A 
HETATM    2  N1  UNL     1      15.632   4.654  13.293  1.00  0.00    -0.170 N 
ATOM      3  H1  UNL     1      16.583   4.633  12.924  1.00  0.00     0.186 HD
HETATM    4  C5  UNL     1      14.625   4.988  12.489  1.00  0.00     0.687 A 
HETATM    5  N4  UNL     1      13.382   5.009  13.000  1.00  0.00    -0.154 N 
ATOM      6  H4  UNL     1      12.603   5.262  12.393  1.00  0.00     0.188 HD
HETATM    7  C18 UNL     1      13.132   4.707  14.283  1.00  0.00     0.245 A 
HETATM    8  N5  UNL     1      14.164   4.371  15.084  1.00  0.00    -0.301 N 
ATOM      9  H5  UNL     1      13.999   4.137  16.063  1.00  0.00     0.171 HD
ENDROOT
BRANCH   4  10
HETATM   10  N2  UNL     1      14.761   5.294  11.247  1.00  0.00    -0.191 N 
ATOM     11  H2  UNL     1      14.845   4.509  10.602  1.00  0.00     0.184 HD
BRANCH  10  12
HETATM   12  C6  UNL     1      14.807   6.554  10.674  1.00  0.00     0.057 A 
HETATM   13  C7  UNL     1      15.918   7.352  10.803  1.00  0.00     0.056 A 
HETATM   14  C8  UNL     1      15.929   8.621  10.207  1.00  0.00     0.062 A 
HETATM   15 CL1  UNL     1      17.354   9.605  10.392  1.00  0.00    -0.082 Cl
HETATM   16  C9  UNL     1      14.838   9.092   9.488  1.00  0.00     0.052 A 
HETATM   17  C14 UNL     1      13.719   8.256   9.373  1.00  0.00     0.040 A 
HETATM   18  C15 UNL     1      13.724   7.008   9.965  1.00  0.00    -0.029 A 
BRANCH  16  19
HETATM   19  N3  UNL     1      14.830  10.377   8.877  1.00  0.00    -0.379 N 
HETATM   20  C10 UNL     1      15.586  10.875   7.741  1.00  0.00     0.123 C 
HETATM   21  C11 UNL     1      14.461  11.513   6.919  1.00  0.00     0.021 C 
HETATM   22  C12 UNL     1      13.595  12.148   7.995  1.00  0.00     0.021 C 
HETATM   23  C13 UNL     1      14.012  11.500   9.306  1.00  0.00     0.123 C 
ENDBRANCH  16  19
BRANCH  18  24
HETATM   24  C16 UNL     1      12.549   6.150   9.836  1.00  0.00     0.036 C 
HETATM   25  C17 UNL     1      11.339   7.019   9.621  1.00  0.00     0.010 C 
ENDBRANCH  18  24
ENDBRANCH  10  12
ENDBRANCH   4  10
BRANCH   1  26
HETATM   26  S1  UNL     1      16.801   3.897  15.656  1.00  0.00    -0.093 SA
BRANCH  26  27
HETATM   27  C3  UNL     1      18.191   5.000  15.315  1.00  0.00     0.082 C 
BRANCH  27  28
HETATM   28  C2  UNL     1      19.065   5.160  16.527  1.00  0.00     0.006 C 
HETATM   29  C1  UNL     1      19.622   3.803  16.915  1.00  0.00     0.006 C 
ENDBRANCH  27  28
ENDBRANCH  26  27
ENDBRANCH   1  26
BRANCH   7  30
HETATM   30  O1  UNL     1      11.827   4.734  14.796  1.00  0.00    -0.275 OA
BRANCH  30  31
HETATM   31  C19 UNL     1      10.913   3.809  14.310  1.00  0.00     0.122 A 
HETATM   32  C20 UNL     1      10.054   4.100  13.285  1.00  0.00     0.071 A 
HETATM   33 CL2  UNL     1      10.106   5.688  12.560  1.00  0.00    -0.081 Cl
HETATM   34  C21 UNL     1       9.142   3.164  12.807  1.00  0.00     0.050 A 
HETATM   35  C22 UNL     1       9.109   1.927  13.379  1.00  0.00     0.037 A 
HETATM   36 CL3  UNL     1       7.957   0.757  12.769  1.00  0.00    -0.084 Cl
HETATM   37  C23 UNL     1       9.971   1.630  14.410  1.00  0.00     0.050 A 
HETATM   38  C24 UNL     1      10.886   2.560  14.895  1.00  0.00     0.071 A 
HETATM   39 CL4  UNL     1      11.975   2.189  16.195  1.00  0.00    -0.081 Cl
ENDBRANCH  30  31
ENDBRANCH   7  30
TORSDOF 9
ENDMDL
MODEL 2
REMARK VINA RESULT: -9.153476292      0.113      1.520
REMARK  9 active torsions:
REMARK  status: ('A' for Active; 'I' for Inactive)
REMARK    1  A    between atoms: C2_2  and  C3_3 
REMARK    2  A    between atoms: C3_3  and  S1_4 
REMARK    3  A    between atoms: S1_4  and  C4_5 
REMARK    4  A    between atoms: C5_8  and  N2_9 
REMARK    5  A    between atoms: N2_9  and  C6_11 
REMARK    6  A    between atoms: C9_15  and  N3_16 
REMARK    7  A    between atoms: C15_22  and  C16_23 
REMARK    8  A    between atoms: C18_27  and  O1_28 
REMARK    9  A    between atoms: O1_28  and  C19_29 
ROOT
HETATM    1  C4  UNL     1      15.291   4.371  14.571  1.00  0.00     0.162 A 
HETATM    2  N1  UNL     1      15.539   4.682  13.290  1.00  0.00    -0.170 N 
ATOM      3  H1  UNL     1      16.499   4.667  12.947  1.00  0.00     0.186 HD
HETATM    4  C5  UNL     1      14.553   5.011  12.457  1.00  0.00     0.687 A 
HETATM    5  N4  UNL     1      13.296   5.025  12.933  1.00  0.00    -0.154 N 
ATOM      6  H4  UNL     1      12.533   5.275  12.304  1.00  0.00     0.188 HD
HETATM    7  C18 UNL     1      13.012   4.720  14.208  1.00  0.00     0.245 A 
HETATM    8  N5  UNL     1      14.022   4.388  15.037  1.00  0.00    -0.301 N 
ATOM      9  H5  UNL     1      13.831   4.152  16.011  1.00  0.00     0.171 HD
ENDROOT
BRANCH   4  10
HETATM   10  N2  UNL     1      14.722   5.320  11.221  1.00  0.00    -0.191 N 
ATOM     11  H2  UNL     1      14.831   4.536  10.577  1.00  0.00     0.184 HD
BRANCH  10  12
HETATM   12  C6  UNL     1      14.777   6.581  10.650  1.00  0.00     0.057 A 
HETATM   13  C7  UNL     1      15.896   7.368  10.773  1.00  0.00     0.056 A 
HETATM   14  C8  UNL     1      15.915   8.638  10.180  1.00  0.00     0.062 A 
HETATM   15 CL1  UNL     1      17.352   9.608  10.357  1.00  0.00    -0.082 Cl
HETATM   16  C9  UNL     1      14.824   9.122   9.470  1.00  0.00     0.052 A 
HETATM   17  C14 UNL     1      13.697   8.297   9.361  1.00  0.00     0.040 A 
HETATM   18  C15 UNL     1      13.693   7.048   9.950  1.00  0.00    -0.029 A 
BRANCH  16  19
HETATM   19  N3  UNL     1      14.825  10.408   8.863  1.00  0.00    -0.379 N 
HETATM   20  C10 UNL     1      15.597  10.910   7.740  1.00  0.00     0.123 C 
HETATM   21  C11 UNL     1      14.484  11.549   6.902  1.00  0.00     0.021 C 
HETATM   22  C12 UNL     1      13.601  12.181   7.966  1.00  0.00     0.021 C 
HETATM   23  C13 UNL     1      14.000  11.530   9.282  1.00  0.00     0.123 C 
ENDBRANCH  16  19
BRANCH  18  24
HETATM   24  C16 UNL     1      12.509   6.201   9.828  1.00  0.00     0.036 C 
HETATM   25  C17 UNL     1      11.306   7.083   9.625  1.00  0.00     0.010 C 
ENDBRANCH  18  24
ENDBRANCH  10  12
ENDBRANCH   4  10
BRANCH   1  26
HETATM   26  S1  UNL     1      16.644   3.929  15.684  1.00  0.00    -0.093 SA
BRANCH  26  27
HETATM   27  C3  UNL     1      18.130   4.826  15.185  1.00  0.00     0.082 C 
BRANCH  27  28
HETATM   28  C2  UNL     1      19.004   5.126  16.371  1.00  0.00     0.006 C 
HETATM   29  C1  UNL     1      19.690   3.847  16.813  1.00  0.00     0.006 C 
ENDBRANCH  27  28
ENDBRANCH  26  27
ENDBRANCH   1  26
BRANCH   7  30
HETATM   30  O1  UNL     1      11.692   4.739  14.683  1.00  0.00    -0.275 OA
BRANCH  30  31
HETATM   31  C19 UNL     1      10.823   3.748  14.246  1.00  0.00     0.122 A 
HETATM   32  C20 UNL     1      10.801   2.498  14.803  1.00  0.00     0.071 A 
HETATM   33 CL2  UNL     1      11.901   2.133  16.110  1.00  0.00    -0.081 Cl
HETATM   34  C21 UNL     1       9.925   1.514  14.356  1.00  0.00     0.050 A 
HETATM   35  C22 UNL     1       9.071   1.809  13.336  1.00  0.00     0.037 A 
HETATM   36 CL3  UNL     1       7.972   0.562  12.781  1.00  0.00    -0.084 Cl
HETATM   37  C23 UNL     1       9.090   3.065  12.773  1.00  0.00     0.050 A 
HETATM   38  C24 UNL     1       9.962   4.056  13.213  1.00  0.00     0.071 A 
HETATM   39 CL4  UNL     1       9.990   5.641  12.505  1.00  0.00    -0.081 Cl
ENDBRANCH  30  31
ENDBRANCH   7  30
TORSDOF 9
ENDMDL
MODEL 3
REMARK VINA RESULT: -8.926040155      1.509      2.825
REMARK  9 active torsions:
REMARK  status: ('A' for Active; 'I' for Inactive)
REMARK    1  A    between atoms: C2_2  and  C3_3 
REMARK    2  A    between atoms: C3_3  and  S1_4 
REMARK    3  A    between atoms: S1_4  and  C4_5 
REMARK    4  A    between atoms: C5_8  and  N2_9 
REMARK    5  A    between atoms: N2_9  and  C6_11 
REMARK    6  A    between atoms: C9_15  and  N3_16 
REMARK    7  A    between atoms: C15_22  and  C16_23 
REMARK    8  A    between atoms: C18_27  and  O1_28 
REMARK    9  A    between atoms: O1_28  and  C19_29 
ROOT
HETATM    1  C4  UNL     1      15.258   4.413  14.314  1.00  0.00     0.162 A 
HETATM    2  N1  UNL     1      15.569   4.708  13.043  1.00  0.00    -0.170 N 
ATOM      3  H1  UNL     1      16.541   4.656  12.739  1.00  0.00     0.186 HD
HETATM    4  C5  UNL     1      14.630   5.069  12.170  1.00  0.00     0.687 A 
HETATM    5  N4  UNL     1      13.356   5.131  12.595  1.00  0.00    -0.154 N 
ATOM      6  H4  UNL     1      12.629   5.405  11.935  1.00  0.00     0.188 HD
HETATM    7  C18 UNL     1      13.010   4.844  13.859  1.00  0.00     0.245 A 
HETATM    8  N5  UNL     1      13.974   4.480  14.729  1.00  0.00    -0.301 N 
ATOM      9  H5  UNL     1      13.735   4.257  15.695  1.00  0.00     0.171 HD
ENDROOT
BRANCH   4  10
HETATM   10  N2  UNL     1      14.860   5.364  10.940  1.00  0.00    -0.191 N 
ATOM     11  H2  UNL     1      14.672   4.626  10.262  1.00  0.00     0.184 HD
BRANCH  10  12
HETATM   12  C6  UNL     1      15.331   6.557  10.416  1.00  0.00     0.057 A 
HETATM   13  C7  UNL     1      14.487   7.618  10.196  1.00  0.00     0.056 A 
HETATM   14  C8  UNL     1      15.000   8.809   9.666  1.00  0.00     0.062 A 
HETATM   15 CL1  UNL     1      13.899  10.133   9.399  1.00  0.00    -0.082 Cl
HETATM   16  C9  UNL     1      16.347   8.943   9.356  1.00  0.00     0.052 A 
HETATM   17  C14 UNL     1      17.184   7.845   9.592  1.00  0.00     0.040 A 
HETATM   18  C15 UNL     1      16.664   6.677  10.115  1.00  0.00    -0.029 A 
BRANCH  16  19
HETATM   19  N3  UNL     1      16.885  10.144   8.816  1.00  0.00    -0.379 N 
HETATM   20  C10 UNL     1      16.874  11.494   9.351  1.00  0.00     0.123 C 
HETATM   21  C11 UNL     1      18.352  11.868   9.191  1.00  0.00     0.021 C 
HETATM   22  C12 UNL     1      18.699  11.247   7.847  1.00  0.00     0.021 C 
HETATM   23  C13 UNL     1      17.591  10.248   7.549  1.00  0.00     0.123 C 
ENDBRANCH  16  19
BRANCH  18  24
HETATM   24  C16 UNL     1      17.551   5.542  10.354  1.00  0.00     0.036 C 
HETATM   25  C17 UNL     1      18.714   5.630   9.402  1.00  0.00     0.010 C 
ENDBRANCH  18  24
ENDBRANCH  10  12
ENDBRANCH   4  10
BRANCH   1  26
HETATM   26  S1  UNL     1      16.549   3.928  15.482  1.00  0.00    -0.093 SA
BRANCH  26  27
HETATM   27  C3  UNL     1      18.109   4.688  14.981  1.00  0.00     0.082 C 
BRANCH  27  28
HETATM   28  C2  UNL     1      18.924   5.089  16.179  1.00  0.00     0.006 C 
HETATM   29  C1  UNL     1      19.661   3.872  16.704  1.00  0.00     0.006 C 
ENDBRANCH  27  28
ENDBRANCH  26  27
ENDBRANCH   1  26
BRANCH   7  30
HETATM   30  O1  UNL     1      11.674   4.914  14.280  1.00  0.00    -0.275 OA
BRANCH  30  31
HETATM   31  C19 UNL     1      10.821   3.876  13.930  1.00  0.00     0.122 A 
HETATM   32  C20 UNL     1      10.823   2.676  14.588  1.00  0.00     0.071 A 
HETATM   33 CL2  UNL     1      11.935   2.438  15.914  1.00  0.00    -0.081 Cl
HETATM   34  C21 UNL     1       9.962   1.644  14.228  1.00  0.00     0.050 A 
HETATM   35  C22 UNL     1       9.098   1.839  13.193  1.00  0.00     0.037 A 
HETATM   36 CL3  UNL     1       8.019   0.533  12.749  1.00  0.00    -0.084 Cl
HETATM   37  C23 UNL     1       9.093   3.045  12.529  1.00  0.00     0.050 A 
HETATM   38  C24 UNL     1       9.950   4.083  12.881  1.00  0.00     0.071 A 
HETATM   39 CL4  UNL     1       9.947   5.605  12.046  1.00  0.00    -0.081 Cl
ENDBRANCH  30  31
ENDBRANCH   7  30
TORSDOF 9
ENDMDL
MODEL 4
REMARK VINA RESULT: -8.918750348      3.098      4.817
REMARK  9 active torsions:
REMARK  status: ('A' for Active; 'I' for Inactive)
REMARK    1  A    between atoms: C2_2  and  C3_3 
REMARK    2  A    between atoms: C3_3  and  S1_4 
REMARK    3  A    between atoms: S1_4  and  C4_5 
REMARK    4  A    between atoms: C5_8  and  N2_9 
REMARK    5  A    between atoms: N2_9  and  C6_11 
REMARK    6  A    between atoms: C9_15  and  N3_16 
REMARK    7  A    between atoms: C15_22  and  C16_23 
REMARK    8  A    between atoms: C18_27  and  O1_28 
REMARK    9  A    between atoms: O1_28  and  C19_29 
ROOT
HETATM    1  C4  UNL     1      12.281   5.181  10.728  1.00  0.00     0.162 A 
HETATM    2  N1  UNL     1      13.539   5.520  10.409  1.00  0.00    -0.170 N 
ATOM      3  H1  UNL     1      13.779   5.695   9.433  1.00  0.00     0.186 HD
HETATM    4  C5  UNL     1      14.480   5.632  11.344  1.00  0.00     0.687 A 
HETATM    5  N4  UNL     1      14.139   5.396  12.623  1.00  0.00    -0.154 N 
ATOM      6  H4  UNL     1      14.852   5.479  13.347  1.00  0.00     0.188 HD
HETATM    7  C18 UNL     1      12.891   5.054  12.977  1.00  0.00     0.245 A 
HETATM    8  N5  UNL     1      11.950   4.945  12.017  1.00  0.00    -0.301 N 
ATOM      9  H5  UNL     1      10.994   4.687  12.263  1.00  0.00     0.171 HD
ENDROOT
BRANCH   4  10
HETATM   10  N2  UNL     1      15.703   5.952  11.106  1.00  0.00    -0.191 N 
ATOM     11  H2  UNL     1      16.404   5.265  11.382  1.00  0.00     0.184 HD
BRANCH  10  12
HETATM   12  C6  UNL     1      16.190   7.110  10.523  1.00  0.00     0.057 A 
HETATM   13  C7  UNL     1      15.556   8.316  10.701  1.00  0.00     0.056 A 
HETATM   14  C8  UNL     1      16.078   9.467  10.096  1.00  0.00     0.062 A 
HETATM   15 CL1  UNL     1      15.247  10.978  10.345  1.00  0.00    -0.082 Cl
HETATM   16  C9  UNL     1      17.227   9.417   9.316  1.00  0.00     0.052 A 
HETATM   17  C14 UNL     1      17.852   8.173   9.152  1.00  0.00     0.040 A 
HETATM   18  C15 UNL     1      17.325   7.048   9.755  1.00  0.00    -0.029 A 
BRANCH  16  19
HETATM   19  N3  UNL     1      17.771  10.574   8.694  1.00  0.00    -0.379 N 
HETATM   20  C10 UNL     1      17.666  11.032   7.319  1.00  0.00     0.123 C 
HETATM   21  C11 UNL     1      17.261  12.493   7.545  1.00  0.00     0.021 C 
HETATM   22  C12 UNL     1      18.110  12.881   8.745  1.00  0.00     0.021 C 
HETATM   23  C13 UNL     1      18.586  11.576   9.362  1.00  0.00     0.123 C 
ENDBRANCH  16  19
BRANCH  18  24
HETATM   24  C16 UNL     1      17.989   5.760   9.573  1.00  0.00     0.036 C 
HETATM   25  C17 UNL     1      19.345   5.999   8.964  1.00  0.00     0.010 C 
ENDBRANCH  18  24
ENDBRANCH  10  12
ENDBRANCH   4  10
BRANCH   1  26
HETATM   26  S1  UNL     1      11.019   5.033   9.443  1.00  0.00    -0.093 SA
BRANCH  26  27
HETATM   27  C3  UNL     1       9.720   6.249   9.754  1.00  0.00     0.082 C 
BRANCH  27  28
HETATM   28  C2  UNL     1       8.669   5.694  10.674  1.00  0.00     0.006 C 
HETATM   29  C1  UNL     1       7.395   6.501  10.510  1.00  0.00     0.006 C 
ENDBRANCH  27  28
ENDBRANCH  26  27
ENDBRANCH   1  26
BRANCH   7  30
HETATM   30  O1  UNL     1      12.557   4.813  14.318  1.00  0.00    -0.275 OA
BRANCH  30  31
HETATM   31  C19 UNL     1      11.444   4.028  14.585  1.00  0.00     0.122 A 
HETATM   32  C20 UNL     1      10.182   4.552  14.663  1.00  0.00     0.071 A 
HETATM   33 CL2  UNL     1       9.960   6.267  14.419  1.00  0.00    -0.081 Cl
HETATM   34  C21 UNL     1       9.074   3.755  14.932  1.00  0.00     0.050 A 
HETATM   35  C22 UNL     1       9.257   2.418  15.121  1.00  0.00     0.037 A 
HETATM   36 CL3  UNL     1       7.855   1.423  15.458  1.00  0.00    -0.084 Cl
HETATM   37  C23 UNL     1      10.525   1.886  15.043  1.00  0.00     0.050 A 
HETATM   38  C24 UNL     1      11.639   2.676  14.775  1.00  0.00     0.071 A 
HETATM   39 CL4  UNL     1      13.239   2.010  14.677  1.00  0.00    -0.081 Cl
ENDBRANCH  30  31
ENDBRANCH   7  30
TORSDOF 9
ENDMDL
MODEL 5
REMARK VINA RESULT: -8.821315788      1.302      1.833
REMARK  9 active torsions:
REMARK  status: ('A' for Active; 'I' for Inactive)
REMARK    1  A    between atoms: C2_2  and  C3_3 
REMARK    2  A    between atoms: C3_3  and  S1_4 
REMARK    3  A    between atoms: S1_4  and  C4_5 
REMARK    4  A    between atoms: C5_8  and  N2_9 
REMARK    5  A    between atoms: N2_9  and  C6_11 
REMARK    6  A    between atoms: C9_15  and  N3_16 
REMARK    7  A    between atoms: C15_22  and  C16_23 
REMARK    8  A    between atoms: C18_27  and  O1_28 
REMARK    9  A    between atoms: O1_28  and  C19_29 
ROOT
HETATM    1  C4  UNL     1      14.744   4.064  14.514  1.00  0.00     0.162 A 
HETATM    2  N1  UNL     1      14.881   4.454  13.238  1.00  0.00    -0.170 N 
ATOM      3  H1  UNL     1      15.800   4.737  12.896  1.00  0.00     0.186 HD
HETATM    4  C5  UNL     1      13.839   4.480  12.409  1.00  0.00     0.687 A 
HETATM    5  N4  UNL     1      12.640   4.103  12.884  1.00  0.00    -0.154 N 
ATOM      6  H4  UNL     1      11.835   4.118  12.257  1.00  0.00     0.188 HD
HETATM    7  C18 UNL     1      12.466   3.707  14.154  1.00  0.00     0.245 A 
HETATM    8  N5  UNL     1      13.532   3.687  14.979  1.00  0.00    -0.301 N 
ATOM      9  H5  UNL     1      13.425   3.390  15.949  1.00  0.00     0.171 HD
ENDROOT
BRANCH   4  10
HETATM   10  N2  UNL     1      13.903   4.844  11.177  1.00  0.00    -0.191 N 
ATOM     11  H2  UNL     1      13.853   4.093  10.489  1.00  0.00     0.184 HD
BRANCH  10  12
HETATM   12  C6  UNL     1      14.030   6.124  10.665  1.00  0.00     0.057 A 
HETATM   13  C7  UNL     1      15.158   6.873  10.898  1.00  0.00     0.056 A 
HETATM   14  C8  UNL     1      15.252   8.165  10.363  1.00  0.00     0.062 A 
HETATM   15 CL1  UNL     1      16.697   9.085  10.679  1.00  0.00    -0.082 Cl
HETATM   16  C9  UNL     1      14.226   8.709   9.600  1.00  0.00     0.052 A 
HETATM   17  C14 UNL     1      13.088   7.921   9.379  1.00  0.00     0.040 A 
HETATM   18  C15 UNL     1      13.010   6.650   9.913  1.00  0.00    -0.029 A 
BRANCH  16  19
HETATM   19  N3  UNL     1      14.302  10.018   9.050  1.00  0.00    -0.379 N 
HETATM   20  C10 UNL     1      13.656  11.248   9.473  1.00  0.00     0.123 C 
HETATM   21  C11 UNL     1      14.857  12.200   9.489  1.00  0.00     0.021 C 
HETATM   22  C12 UNL     1      15.633  11.762   8.257  1.00  0.00     0.021 C 
HETATM   23  C13 UNL     1      15.093  10.389   7.887  1.00  0.00     0.123 C 
ENDBRANCH  16  19
BRANCH  18  24
HETATM   24  C16 UNL     1      11.816   5.844   9.674  1.00  0.00     0.036 C 
HETATM   25  C17 UNL     1      10.694   6.382  10.521  1.00  0.00     0.010 C 
ENDBRANCH  18  24
ENDBRANCH  10  12
ENDBRANCH   4  10
BRANCH   1  26
HETATM   26  S1  UNL     1      16.172   4.038  15.622  1.00  0.00    -0.093 SA
BRANCH  26  27
HETATM   27  C3  UNL     1      17.562   4.853  14.805  1.00  0.00     0.082 C 
BRANCH  27  28
HETATM   28  C2  UNL     1      18.829   4.684  15.597  1.00  0.00     0.006 C 
HETATM   29  C1  UNL     1      19.028   3.211  15.900  1.00  0.00     0.006 C 
ENDBRANCH  27  28
ENDBRANCH  26  27
ENDBRANCH   1  26
BRANCH   7  30
HETATM   30  O1  UNL     1      11.205   3.317  14.627  1.00  0.00    -0.275 OA
BRANCH  30  31
HETATM   31  C19 UNL     1      10.082   3.741  13.929  1.00  0.00     0.122 A 
HETATM   32  C20 UNL     1       9.660   5.043  13.947  1.00  0.00     0.071 A 
HETATM   33 CL2  UNL     1      10.561   6.214  14.879  1.00  0.00    -0.081 Cl
HETATM   34  C21 UNL     1       8.534   5.456  13.243  1.00  0.00     0.050 A 
HETATM   35  C22 UNL     1       7.837   4.535  12.519  1.00  0.00     0.037 A 
HETATM   36 CL3  UNL     1       6.420   5.067  11.636  1.00  0.00    -0.084 Cl
HETATM   37  C23 UNL     1       8.258   3.225  12.498  1.00  0.00     0.050 A 
HETATM   38  C24 UNL     1       9.384   2.803  13.199  1.00  0.00     0.071 A 
HETATM   39 CL4  UNL     1       9.918   1.151  13.175  1.00  0.00    -0.081 Cl
ENDBRANCH  30  31
ENDBRANCH   7  30
TORSDOF 9
ENDMDL
