MODEL 1
REMARK VINA RESULT: -8.981342335      0.000      0.000
REMARK  7 active torsions:
REMARK  status: ('A' for Active; 'I' for Inactive)
REMARK    1  A    between atoms: N1_1  and  C1_4 
REMARK    2  A    between atoms: C4_12  and  O2_13 
REMARK    3  A    between atoms: O2_13  and  C5_14 
REMARK    4  A    between atoms: C5_14  and  C6_15 
REMARK    5  A    between atoms: C7_20  and  C8_21 
REMARK    6  A    between atoms: C8_21  and  O3_22 
REMARK    7  A    between atoms: C8_21  and  O4_24 
REMARK       I    between atoms: N7_28  and  C9_29 
REMARK       I    between atoms: C9_29  and  N8_30 
REMARK       I    between atoms: C9_29  and  N9_34 
ROOT
HETATM    1  C1  UNL     1     -27.979  19.601 -16.980  1.00  0.00     0.680 A 
HETATM    2  N2  UNL     1     -28.952  19.091 -17.759  1.00  0.00    -0.154 N 
ATOM      3  H2  UNL     1     -28.748  18.888 -18.738  1.00  0.00     0.187 HD
HETATM    4  C2  UNL     1     -30.187  18.841 -17.284  1.00  0.00     0.290 A 
HETATM    5  O1  UNL     1     -31.109  18.367 -17.985  1.00  0.00    -0.265 OA
HETATM    6  C3  UNL     1     -30.405  19.135 -15.945  1.00  0.00     0.150 A 
HETATM    7  N3  UNL     1     -31.486  19.022 -15.141  1.00  0.00    -0.314 N 
ATOM      8  H3  UNL     1     -32.400  18.667 -15.419  1.00  0.00     0.170 HD
HETATM    9  C4  UNL     1     -31.151  19.456 -13.914  1.00  0.00     0.231 A 
HETATM   10  N7  UNL     1     -29.878  19.852 -13.896  1.00  0.00    -0.244 N 
HETATM   11  C9  UNL     1     -29.081  20.389 -12.817  1.00  0.00     0.491 C 
HETATM   12  N8  UNL     1     -28.735  21.768 -13.073  1.00  0.00    -0.032 N 
ATOM     13  H81 UNL     1     -28.172  22.147 -12.311  1.00  0.00     0.279 HD
ATOM     14  H82 UNL     1     -29.562  22.339 -13.252  1.00  0.00     0.279 HD
ATOM     15  H83 UNL     1     -28.272  21.881 -13.975  1.00  0.00     0.279 HD
HETATM   16  N9  UNL     1     -29.738  20.302 -11.544  1.00  0.00    -0.032 N 
ATOM     17  H91 UNL     1     -29.175  20.680 -10.782  1.00  0.00     0.279 HD
ATOM     18  H92 UNL     1     -30.024  19.342 -11.346  1.00  0.00     0.279 HD
ATOM     19  H93 UNL     1     -30.656  20.744 -11.576  1.00  0.00     0.279 HD
HETATM   20  C10 UNL     1     -29.408  19.660 -15.142  1.00  0.00     0.162 A 
HETATM   21  N10 UNL     1     -28.178  19.891 -15.680  1.00  0.00    -0.174 N 
ATOM     22  H10 UNL     1     -27.425  20.275 -15.111  1.00  0.00     0.186 HD
ENDROOT
BRANCH   9  23
HETATM   23  O2  UNL     1     -32.013  19.481 -12.846  1.00  0.00    -0.314 OA
BRANCH  23  24
HETATM   24  C5  UNL     1     -33.314  18.972 -12.853  1.00  0.00     0.256 C 
BRANCH  24  25
HETATM   25  C6  UNL     1     -33.337  17.658 -12.169  1.00  0.00     0.122 A 
HETATM   26  N4  UNL     1     -32.402  16.687 -12.177  1.00  0.00    -0.286 N 
HETATM   27  N5  UNL     1     -32.814  15.674 -11.439  1.00  0.00    -0.283 N 
ATOM     28  H4  UNL     1     -31.513  16.730 -12.676  1.00  0.00     0.188 HD
HETATM   29  C7  UNL     1     -34.025  15.981 -10.945  1.00  0.00     0.153 A 
ATOM     30  H5  UNL     1     -32.303  14.807 -11.273  1.00  0.00     0.188 HD
HETATM   31  N6  UNL     1     -34.328  17.204 -11.407  1.00  0.00    -0.328 N 
ATOM     32  H6  UNL     1     -35.189  17.710 -11.203  1.00  0.00     0.168 HD
BRANCH  29  33
HETATM   33  C8  UNL     1     -34.870  15.113 -10.049  1.00  0.00     0.325 C 
BRANCH  33  34
HETATM   34  O3  UNL     1     -36.164  15.010 -10.562  1.00  0.00    -0.365 OA
ATOM     35  H3  UNL     1     -36.157  15.162 -11.499  1.00  0.00     0.213 HD
ENDBRANCH  33  34
BRANCH  33  36
HETATM   36  O4  UNL     1     -34.294  13.848 -10.072  1.00  0.00    -0.365 OA
ATOM     37  H4  UNL     1     -33.698  13.811  -9.333  1.00  0.00     0.213 HD
ENDBRANCH  33  36
ENDBRANCH  29  33
ENDBRANCH  24  25
ENDBRANCH  23  24
ENDBRANCH   9  23
BRANCH   1  38
HETATM   38  N1  UNL     1     -26.827  19.804 -17.539  1.00  0.00    -0.234 N 
ATOM     39  H12 UNL     1     -26.671  19.568 -18.519  1.00  0.00     0.174 HD
ATOM     40  H11 UNL     1     -26.095  20.206 -16.953  1.00  0.00     0.174 HD
ENDBRANCH   1  38
TORSDOF 7
ENDMDL
MODEL 2
REMARK VINA RESULT: -8.977303444      0.684      1.134
REMARK  7 active torsions:
REMARK  status: ('A' for Active; 'I' for Inactive)
REMARK    1  A    between atoms: N1_1  and  C1_4 
REMARK    2  A    between atoms: C4_12  and  O2_13 
REMARK    3  A    between atoms: O2_13  and  C5_14 
REMARK    4  A    between atoms: C5_14  and  C6_15 
REMARK    5  A    between atoms: C7_20  and  C8_21 
REMARK    6  A    between atoms: C8_21  and  O3_22 
REMARK    7  A    between atoms: C8_21  and  O4_24 
REMARK       I    between atoms: N7_28  and  C9_29 
REMARK       I    between atoms: C9_29  and  N8_30 
REMARK       I    between atoms: C9_29  and  N9_34 
ROOT
HETATM    1  C1  UNL     1     -27.974  19.578 -16.944  1.00  0.00     0.680 A 
HETATM    2  N2  UNL     1     -28.946  19.069 -17.724  1.00  0.00    -0.154 N 
ATOM      3  H2  UNL     1     -28.734  18.841 -18.695  1.00  0.00     0.187 HD
HETATM    4  C2  UNL     1     -30.191  18.852 -17.258  1.00  0.00     0.290 A 
HETATM    5  O1  UNL     1     -31.113  18.379 -17.960  1.00  0.00    -0.265 OA
HETATM    6  C3  UNL     1     -30.419  19.179 -15.929  1.00  0.00     0.150 A 
HETATM    7  N3  UNL     1     -31.512  19.103 -15.136  1.00  0.00    -0.314 N 
ATOM      8  H3  UNL     1     -32.429  18.758 -15.417  1.00  0.00     0.170 HD
HETATM    9  C4  UNL     1     -31.184  19.558 -13.915  1.00  0.00     0.231 A 
HETATM   10  N7  UNL     1     -29.904  19.932 -13.890  1.00  0.00    -0.244 N 
HETATM   11  C9  UNL     1     -29.110  20.478 -12.813  1.00  0.00     0.491 C 
HETATM   12  N8  UNL     1     -28.736  21.845 -13.095  1.00  0.00    -0.032 N 
ATOM     13  H81 UNL     1     -28.176  22.230 -12.334  1.00  0.00     0.279 HD
ATOM     14  H82 UNL     1     -29.550  22.425 -13.296  1.00  0.00     0.279 HD
ATOM     15  H83 UNL     1     -28.261  21.929 -13.993  1.00  0.00     0.279 HD
HETATM   16  N9  UNL     1     -29.784  20.430 -11.547  1.00  0.00    -0.032 N 
ATOM     17  H91 UNL     1     -29.224  20.815 -10.786  1.00  0.00     0.279 HD
ATOM     18  H92 UNL     1     -30.089  19.481 -11.331  1.00  0.00     0.279 HD
ATOM     19  H93 UNL     1     -30.693  20.888 -11.600  1.00  0.00     0.279 HD
HETATM   20  C10 UNL     1     -29.423  19.704 -15.125  1.00  0.00     0.162 A 
HETATM   21  N10 UNL     1     -28.183  19.900 -15.654  1.00  0.00    -0.174 N 
ATOM     22  H10 UNL     1     -27.429  20.283 -15.083  1.00  0.00     0.186 HD
ENDROOT
BRANCH   9  23
HETATM   23  O2  UNL     1     -32.057  19.622 -12.858  1.00  0.00    -0.314 OA
BRANCH  23  24
HETATM   24  C5  UNL     1     -33.443  19.470 -12.953  1.00  0.00     0.256 C 
BRANCH  24  25
HETATM   25  C6  UNL     1     -33.896  18.434 -11.995  1.00  0.00     0.122 A 
HETATM   26  N4  UNL     1     -34.284  18.584 -10.713  1.00  0.00    -0.286 N 
HETATM   27  N5  UNL     1     -34.610  17.407 -10.211  1.00  0.00    -0.283 N 
ATOM     28  H4  UNL     1     -34.321  19.470 -10.208  1.00  0.00     0.188 HD
HETATM   29  C7  UNL     1     -34.434  16.482 -11.169  1.00  0.00     0.153 A 
ATOM     30  H5  UNL     1     -34.937  17.231  -9.262  1.00  0.00     0.188 HD
HETATM   31  N6  UNL     1     -33.994  17.134 -12.256  1.00  0.00    -0.328 N 
ATOM     32  H6  UNL     1     -33.769  16.697 -13.150  1.00  0.00     0.168 HD
BRANCH  29  33
HETATM   33  C8  UNL     1     -34.684  15.002 -11.036  1.00  0.00     0.325 C 
BRANCH  33  34
HETATM   34  O3  UNL     1     -33.814  14.450 -10.096  1.00  0.00    -0.365 OA
ATOM     35  H3  UNL     1     -33.985  14.817  -9.237  1.00  0.00     0.213 HD
ENDBRANCH  33  34
BRANCH  33  36
HETATM   36  O4  UNL     1     -35.982  14.865 -10.556  1.00  0.00    -0.365 OA
ATOM     37  H4  UNL     1     -36.226  13.959 -10.699  1.00  0.00     0.213 HD
ENDBRANCH  33  36
ENDBRANCH  29  33
ENDBRANCH  24  25
ENDBRANCH  23  24
ENDBRANCH   9  23
BRANCH   1  38
HETATM   38  N1  UNL     1     -26.811  19.748 -17.493  1.00  0.00    -0.234 N 
ATOM     39  H12 UNL     1     -26.360  18.993 -18.009  1.00  0.00     0.174 HD
ATOM     40  H11 UNL     1     -26.379  20.665 -17.382  1.00  0.00     0.174 HD
ENDBRANCH   1  38
TORSDOF 7
ENDMDL
MODEL 3
REMARK VINA RESULT: -8.633622485      2.099      3.124
REMARK  7 active torsions:
REMARK  status: ('A' for Active; 'I' for Inactive)
REMARK    1  A    between atoms: N1_1  and  C1_4 
REMARK    2  A    between atoms: C4_12  and  O2_13 
REMARK    3  A    between atoms: O2_13  and  C5_14 
REMARK    4  A    between atoms: C5_14  and  C6_15 
REMARK    5  A    between atoms: C7_20  and  C8_21 
REMARK    6  A    between atoms: C8_21  and  O3_22 
REMARK    7  A    between atoms: C8_21  and  O4_24 
REMARK       I    between atoms: N7_28  and  C9_29 
REMARK       I    between atoms: C9_29  and  N8_30 
REMARK       I    between atoms: C9_29  and  N9_34 
ROOT
HETATM    1  C1  UNL     1     -30.208  21.272 -14.748  1.00  0.00     0.680 A 
HETATM    2  N2  UNL     1     -30.064  20.394 -15.759  1.00  0.00    -0.154 N 
ATOM      3  H2  UNL     1     -29.366  20.578 -16.480  1.00  0.00     0.187 HD
HETATM    4  C2  UNL     1     -30.815  19.279 -15.846  1.00  0.00     0.290 A 
HETATM    5  O1  UNL     1     -30.702  18.447 -16.773  1.00  0.00    -0.265 OA
HETATM    6  C3  UNL     1     -31.746  19.083 -14.836  1.00  0.00     0.150 A 
HETATM    7  N3  UNL     1     -32.651  18.108 -14.595  1.00  0.00    -0.314 N 
ATOM      8  H3  UNL     1     -32.807  17.283 -15.173  1.00  0.00     0.170 HD
HETATM    9  C4  UNL     1     -33.311  18.409 -13.463  1.00  0.00     0.231 A 
HETATM   10  N7  UNL     1     -32.861  19.559 -12.959  1.00  0.00    -0.244 N 
HETATM   11  C9  UNL     1     -33.259  20.278 -11.771  1.00  0.00     0.491 C 
HETATM   12  N8  UNL     1     -33.889  21.532 -12.118  1.00  0.00    -0.032 N 
ATOM     13  H81 UNL     1     -34.170  22.039 -11.279  1.00  0.00     0.279 HD
ATOM     14  H82 UNL     1     -34.671  21.397 -12.759  1.00  0.00     0.279 HD
ATOM     15  H83 UNL     1     -33.293  22.100 -12.721  1.00  0.00     0.279 HD
HETATM   16  N9  UNL     1     -34.151  19.524 -10.937  1.00  0.00    -0.032 N 
ATOM     17  H91 UNL     1     -34.433  20.032 -10.098  1.00  0.00     0.279 HD
ATOM     18  H92 UNL     1     -33.749  18.618 -10.698  1.00  0.00     0.279 HD
ATOM     19  H93 UNL     1     -34.965  19.210 -11.464  1.00  0.00     0.279 HD
HETATM   20  C10 UNL     1     -31.897  19.984 -13.796  1.00  0.00     0.162 A 
HETATM   21  N10 UNL     1     -31.107  21.092 -13.763  1.00  0.00    -0.174 N 
ATOM     22  H10 UNL     1     -31.196  21.772 -13.008  1.00  0.00     0.186 HD
ENDROOT
BRANCH   9  23
HETATM   23  O2  UNL     1     -34.304  17.632 -12.922  1.00  0.00    -0.314 OA
BRANCH  23  24
HETATM   24  C5  UNL     1     -34.238  16.246 -12.756  1.00  0.00     0.256 C 
BRANCH  24  25
HETATM   25  C6  UNL     1     -34.785  15.877 -11.430  1.00  0.00     0.122 A 
HETATM   26  N4  UNL     1     -35.602  16.589 -10.627  1.00  0.00    -0.286 N 
HETATM   27  N5  UNL     1     -35.852  15.899  -9.531  1.00  0.00    -0.283 N 
ATOM     28  H4  UNL     1     -35.969  17.518 -10.836  1.00  0.00     0.188 HD
HETATM   29  C7  UNL     1     -35.197  14.729  -9.615  1.00  0.00     0.153 A 
ATOM     30  H5  UNL     1     -36.440  16.201  -8.755  1.00  0.00     0.188 HD
HETATM   31  N6  UNL     1     -34.547  14.737 -10.789  1.00  0.00    -0.328 N 
ATOM     32  H6  UNL     1     -33.959  13.980 -11.138  1.00  0.00     0.168 HD
BRANCH  29  33
HETATM   33  C8  UNL     1     -35.198  13.629  -8.584  1.00  0.00     0.325 C 
BRANCH  33  34
HETATM   34  O3  UNL     1     -34.948  12.399  -9.194  1.00  0.00    -0.365 OA
ATOM     35  H3  UNL     1     -34.581  11.791  -8.564  1.00  0.00     0.213 HD
ENDBRANCH  33  34
BRANCH  33  36
HETATM   36  O4  UNL     1     -34.146  13.904  -7.717  1.00  0.00    -0.365 OA
ATOM     37  H4  UNL     1     -33.861  14.788  -7.915  1.00  0.00     0.213 HD
ENDBRANCH  33  36
ENDBRANCH  29  33
ENDBRANCH  24  25
ENDBRANCH  23  24
ENDBRANCH   9  23
BRANCH   1  38
HETATM   38  N1  UNL     1     -29.434  22.313 -14.762  1.00  0.00    -0.234 N 
ATOM     39  H12 UNL     1     -28.917  22.571 -15.603  1.00  0.00     0.174 HD
ATOM     40  H11 UNL     1     -29.371  22.852 -13.899  1.00  0.00     0.174 HD
ENDBRANCH   1  38
TORSDOF 7
ENDMDL
MODEL 4
REMARK VINA RESULT: -8.232282555      0.982      1.180
REMARK  7 active torsions:
REMARK  status: ('A' for Active; 'I' for Inactive)
REMARK    1  A    between atoms: N1_1  and  C1_4 
REMARK    2  A    between atoms: C4_12  and  O2_13 
REMARK    3  A    between atoms: O2_13  and  C5_14 
REMARK    4  A    between atoms: C5_14  and  C6_15 
REMARK    5  A    between atoms: C7_20  and  C8_21 
REMARK    6  A    between atoms: C8_21  and  O3_22 
REMARK    7  A    between atoms: C8_21  and  O4_24 
REMARK       I    between atoms: N7_28  and  C9_29 
REMARK       I    between atoms: C9_29  and  N8_30 
REMARK       I    between atoms: C9_29  and  N9_34 
ROOT
HETATM    1  C1  UNL     1     -28.230  21.070 -16.904  1.00  0.00     0.680 A 
HETATM    2  N2  UNL     1     -28.957  20.442 -17.848  1.00  0.00    -0.154 N 
ATOM      3  H2  UNL     1     -28.705  20.562 -18.829  1.00  0.00     0.187 HD
HETATM    4  C2  UNL     1     -30.007  19.659 -17.534  1.00  0.00     0.290 A 
HETATM    5  O1  UNL     1     -30.698  19.063 -18.390  1.00  0.00    -0.265 OA
HETATM    6  C3  UNL     1     -30.301  19.533 -16.184  1.00  0.00     0.150 A 
HETATM    7  N3  UNL     1     -31.254  18.852 -15.508  1.00  0.00    -0.314 N 
ATOM      8  H3  UNL     1     -31.977  18.266 -15.926  1.00  0.00     0.170 HD
HETATM    9  C4  UNL     1     -31.087  19.077 -14.193  1.00  0.00     0.231 A 
HETATM   10  N7  UNL     1     -30.049  19.890 -13.993  1.00  0.00    -0.244 N 
HETATM   11  C9  UNL     1     -29.493  20.409 -12.764  1.00  0.00     0.491 C 
HETATM   12  N8  UNL     1     -29.682  21.839 -12.680  1.00  0.00    -0.032 N 
ATOM     13  H81 UNL     1     -29.289  22.205 -11.813  1.00  0.00     0.279 HD
ATOM     14  H82 UNL     1     -30.663  22.097 -12.790  1.00  0.00     0.279 HD
ATOM     15  H83 UNL     1     -29.305  22.319 -13.498  1.00  0.00     0.279 HD
HETATM   16  N9  UNL     1     -30.055  19.795 -11.596  1.00  0.00    -0.032 N 
ATOM     17  H91 UNL     1     -29.662  20.161 -10.728  1.00  0.00     0.279 HD
ATOM     18  H92 UNL     1     -29.965  18.779 -11.638  1.00  0.00     0.279 HD
ATOM     19  H93 UNL     1     -31.072  19.871 -11.597  1.00  0.00     0.279 HD
HETATM   20  C10 UNL     1     -29.557  20.178 -15.211  1.00  0.00     0.162 A 
HETATM   21  N10 UNL     1     -28.506  20.956 -15.591  1.00  0.00    -0.174 N 
ATOM     22  H10 UNL     1     -27.940  21.441 -14.896  1.00  0.00     0.186 HD
ENDROOT
BRANCH   9  23
HETATM   23  O2  UNL     1     -31.884  18.538 -13.214  1.00  0.00    -0.314 OA
BRANCH  23  24
HETATM   24  C5  UNL     1     -33.119  17.923 -13.433  1.00  0.00     0.256 C 
BRANCH  24  25
HETATM   25  C6  UNL     1     -33.711  17.521 -12.136  1.00  0.00     0.122 A 
HETATM   26  N4  UNL     1     -34.095  18.301 -11.106  1.00  0.00    -0.286 N 
HETATM   27  N5  UNL     1     -34.572  17.545 -10.135  1.00  0.00    -0.283 N 
ATOM     28  H4  UNL     1     -34.026  19.319 -11.082  1.00  0.00     0.188 HD
HETATM   29  C7  UNL     1     -34.501  16.264 -10.530  1.00  0.00     0.153 A 
ATOM     30  H5  UNL     1     -34.931  17.877  -9.240  1.00  0.00     0.188 HD
HETATM   31  N6  UNL     1     -33.969  16.271 -11.762  1.00  0.00    -0.328 N 
ATOM     32  H6  UNL     1     -33.789  15.441 -12.327  1.00  0.00     0.168 HD
BRANCH  29  33
HETATM   33  C8  UNL     1     -34.937  15.059  -9.736  1.00  0.00     0.325 C 
BRANCH  33  34
HETATM   34  O3  UNL     1     -36.284  14.787  -9.977  1.00  0.00    -0.365 OA
ATOM     35  H3  UNL     1     -36.474  14.872 -10.904  1.00  0.00     0.213 HD
ENDBRANCH  33  34
BRANCH  33  36
HETATM   36  O4  UNL     1     -34.188  13.987 -10.208  1.00  0.00    -0.365 OA
ATOM     37  H4  UNL     1     -34.317  13.278  -9.590  1.00  0.00     0.213 HD
ENDBRANCH  33  36
ENDBRANCH  29  33
ENDBRANCH  24  25
ENDBRANCH  23  24
ENDBRANCH   9  23
BRANCH   1  38
HETATM   38  N1  UNL     1     -27.241  21.801 -17.316  1.00  0.00    -0.234 N 
ATOM     39  H12 UNL     1     -26.987  22.661 -16.830  1.00  0.00     0.174 HD
ATOM     40  H11 UNL     1     -26.738  21.472 -18.140  1.00  0.00     0.174 HD
ENDBRANCH   1  38
TORSDOF 7
ENDMDL
MODEL 5
REMARK VINA RESULT: -8.226964863      1.129      1.272
REMARK  7 active torsions:
REMARK  status: ('A' for Active; 'I' for Inactive)
REMARK    1  A    between atoms: N1_1  and  C1_4 
REMARK    2  A    between atoms: C4_12  and  O2_13 
REMARK    3  A    between atoms: O2_13  and  C5_14 
REMARK    4  A    between atoms: C5_14  and  C6_15 
REMARK    5  A    between atoms: C7_20  and  C8_21 
REMARK    6  A    between atoms: C8_21  and  O3_22 
REMARK    7  A    between atoms: C8_21  and  O4_24 
REMARK       I    between atoms: N7_28  and  C9_29 
REMARK       I    between atoms: C9_29  and  N8_30 
REMARK       I    between atoms: C9_29  and  N9_34 
ROOT
HETATM    1  C1  UNL     1     -28.026  20.065 -17.415  1.00  0.00     0.680 A 
HETATM    2  N2  UNL     1     -28.997  19.294 -17.941  1.00  0.00    -0.154 N 
ATOM      3  H2  UNL     1     -28.910  18.978 -18.907  1.00  0.00     0.187 HD
HETATM    4  C2  UNL     1     -30.079  18.926 -17.228  1.00  0.00     0.290 A 
HETATM    5  O1  UNL     1     -30.994  18.211 -17.691  1.00  0.00    -0.265 OA
HETATM    6  C3  UNL     1     -30.140  19.384 -15.919  1.00  0.00     0.150 A 
HETATM    7  N3  UNL     1     -31.047  19.225 -14.930  1.00  0.00    -0.314 N 
ATOM      8  H3  UNL     1     -31.913  18.691 -14.995  1.00  0.00     0.170 HD
HETATM    9  C4  UNL     1     -30.614  19.890 -13.844  1.00  0.00     0.231 A 
HETATM   10  N7  UNL     1     -29.446  20.481 -14.101  1.00  0.00    -0.244 N 
HETATM   11  C9  UNL     1     -28.606  21.297 -13.255  1.00  0.00     0.491 C 
HETATM   12  N8  UNL     1     -28.560  22.658 -13.738  1.00  0.00    -0.032 N 
ATOM     13  H81 UNL     1     -27.966  23.233 -13.140  1.00  0.00     0.279 HD
ATOM     14  H82 UNL     1     -29.494  23.055 -13.838  1.00  0.00     0.279 HD
ATOM     15  H83 UNL     1     -28.268  22.703 -14.714  1.00  0.00     0.279 HD
HETATM   16  N9  UNL     1     -29.034  21.303 -11.885  1.00  0.00    -0.032 N 
ATOM     17  H91 UNL     1     -28.441  21.878 -11.287  1.00  0.00     0.279 HD
ATOM     18  H92 UNL     1     -29.107  20.352 -11.521  1.00  0.00     0.279 HD
ATOM     19  H93 UNL     1     -30.012  21.584 -11.810  1.00  0.00     0.279 HD
HETATM   20  C10 UNL     1     -29.145  20.178 -15.376  1.00  0.00     0.162 A 
HETATM   21  N10 UNL     1     -28.074  20.515 -16.147  1.00  0.00    -0.174 N 
ATOM     22  H10 UNL     1     -27.325  21.097 -15.772  1.00  0.00     0.186 HD
ENDROOT
BRANCH   9  23
HETATM   23  O2  UNL     1     -31.293  19.941 -12.653  1.00  0.00    -0.314 OA
BRANCH  23  24
HETATM   24  C5  UNL     1     -32.684  19.947 -12.522  1.00  0.00     0.256 C 
BRANCH  24  25
HETATM   25  C6  UNL     1     -33.158  18.582 -12.194  1.00  0.00     0.122 A 
HETATM   26  N4  UNL     1     -32.458  17.430 -12.168  1.00  0.00    -0.286 N 
HETATM   27  N5  UNL     1     -33.257  16.437 -11.827  1.00  0.00    -0.283 N 
ATOM     28  H4  UNL     1     -31.464  17.341 -12.379  1.00  0.00     0.188 HD
HETATM   29  C7  UNL     1     -34.487  16.939 -11.628  1.00  0.00     0.153 A 
ATOM     30  H5  UNL     1     -32.988  15.458 -11.732  1.00  0.00     0.188 HD
HETATM   31  N6  UNL     1     -34.404  18.259 -11.860  1.00  0.00    -0.328 N 
ATOM     32  H6  UNL     1     -35.181  18.916 -11.790  1.00  0.00     0.168 HD
BRANCH  29  33
HETATM   33  C8  UNL     1     -35.714  16.163 -11.225  1.00  0.00     0.325 C 
BRANCH  33  34
HETATM   34  O3  UNL     1     -36.069  16.474  -9.912  1.00  0.00    -0.365 OA
ATOM     35  H3  UNL     1     -35.627  15.891  -9.308  1.00  0.00     0.213 HD
ENDBRANCH  33  34
BRANCH  33  36
HETATM   36  O4  UNL     1     -36.740  16.590 -12.062  1.00  0.00    -0.365 OA
ATOM     37  H4  UNL     1     -37.050  15.818 -12.520  1.00  0.00     0.213 HD
ENDBRANCH  33  36
ENDBRANCH  29  33
ENDBRANCH  24  25
ENDBRANCH  23  24
ENDBRANCH   9  23
BRANCH   1  38
HETATM   38  N1  UNL     1     -27.028  20.360 -18.190  1.00  0.00    -0.234 N 
ATOM     39  H12 UNL     1     -27.159  20.464 -19.196  1.00  0.00     0.174 HD
ATOM     40  H11 UNL     1     -26.119  20.480 -17.744  1.00  0.00     0.174 HD
ENDBRANCH   1  38
TORSDOF 7
ENDMDL
