MODEL 1
REMARK VINA RESULT: -5.566710437      0.000      0.000
REMARK  2 active torsions:
REMARK  status: ('A' for Active; 'I' for Inactive)
REMARK    1  A    between atoms: C4_4  and  C5_5 
REMARK    2  A    between atoms: N3_13  and  C9_15 
ROOT
HETATM    1  C5  UNL     1      47.179 -27.550 -94.969  1.00  0.00    -0.026 C 
HETATM    2  C6  UNL     1      47.126 -28.407 -93.781  1.00  0.00     0.051 C 
HETATM    3  C7  UNL     1      47.415 -28.113 -96.166  1.00  0.00     0.098 C 
HETATM    4  N1  UNL     1      47.520 -27.555 -97.452  1.00  0.00    -0.291 N 
ATOM      5  H1  UNL     1      47.575 -26.545 -97.588  1.00  0.00     0.187 HD
HETATM    6  N2  UNL     1      47.548 -28.414 -98.506  1.00  0.00    -0.279 N 
ATOM      7  H2  UNL     1      47.624 -28.076 -99.466  1.00  0.00     0.189 HD
HETATM    8  C8  UNL     1      47.466 -29.787 -98.215  1.00  0.00     0.161 C 
HETATM    9  N3  UNL     1      47.289 -30.779 -98.982  1.00  0.00    -0.365 N 
ATOM     10  H3  UNL     1      47.258 -31.717 -98.582  1.00  0.00     0.162 HD
HETATM   11  S1  UNL     1      47.671 -29.886 -96.449  1.00  0.00    -0.033 SA
ENDROOT
BRANCH   1  12
HETATM   12  C4  UNL     1      46.989 -26.123 -94.897  1.00  0.00     0.011 C 
HETATM   13  C2  UNL     1      47.776 -25.163 -94.565  1.00  0.00    -0.087 C 
HETATM   14  C1  UNL     1      47.239 -23.752 -94.603  1.00  0.00     0.043 C 
HETATM   15  C3  UNL     1      49.167 -25.298 -94.144  1.00  0.00     0.043 C 
ENDBRANCH   1  12
BRANCH   9  16
HETATM   16  C9  UNL     1      47.131 -30.615-100.415  1.00  0.00     0.075 C 
HETATM   17  C10 UNL     1      48.237 -29.761-100.999  1.00  0.00     0.032 C 
HETATM   18  C11 UNL     1      45.763 -30.105-100.778  1.00  0.00     0.032 C 
ENDBRANCH   9  16
TORSDOF 2
ENDMDL
MODEL 2
REMARK VINA RESULT: -5.147384919      0.874      1.514
REMARK  2 active torsions:
REMARK  status: ('A' for Active; 'I' for Inactive)
REMARK    1  A    between atoms: C4_4  and  C5_5 
REMARK    2  A    between atoms: N3_13  and  C9_15 
ROOT
HETATM    1  C5  UNL     1      48.250 -28.126 -94.651  1.00  0.00    -0.026 C 
HETATM    2  C6  UNL     1      47.736 -29.009 -93.599  1.00  0.00     0.051 C 
HETATM    3  C7  UNL     1      48.182 -28.531 -95.929  1.00  0.00     0.098 C 
HETATM    4  N1  UNL     1      48.588 -27.912 -97.124  1.00  0.00    -0.291 N 
ATOM      5  H1  UNL     1      49.162 -27.069 -97.115  1.00  0.00     0.187 HD
HETATM    6  N2  UNL     1      48.186 -28.481 -98.292  1.00  0.00    -0.279 N 
ATOM      7  H2  UNL     1      48.445 -28.084 -99.195  1.00  0.00     0.189 HD
HETATM    8  C8  UNL     1      47.396 -29.641 -98.200  1.00  0.00     0.161 C 
HETATM    9  N3  UNL     1      46.745 -30.263 -99.090  1.00  0.00    -0.365 N 
ATOM     10  H3  UNL     1      46.222 -31.100 -98.830  1.00  0.00     0.162 HD
HETATM   11  S1  UNL     1      47.485 -30.111 -96.484  1.00  0.00    -0.033 SA
ENDROOT
BRANCH   1  12
HETATM   12  C4  UNL     1      48.829 -26.838 -94.358  1.00  0.00     0.011 C 
HETATM   13  C2  UNL     1      48.357 -25.645 -94.425  1.00  0.00    -0.087 C 
HETATM   14  C1  UNL     1      49.258 -24.498 -94.035  1.00  0.00     0.043 C 
HETATM   15  C3  UNL     1      47.012 -25.275 -94.851  1.00  0.00     0.043 C 
ENDBRANCH   1  12
BRANCH   9  16
HETATM   16  C9  UNL     1      46.723 -29.816-100.470  1.00  0.00     0.075 C 
HETATM   17  C10 UNL     1      45.548 -30.404-101.223  1.00  0.00     0.032 C 
HETATM   18  C11 UNL     1      48.032 -30.067-101.167  1.00  0.00     0.032 C 
ENDBRANCH   9  16
TORSDOF 2
ENDMDL
MODEL 3
REMARK VINA RESULT: -4.983874349      1.902      6.341
REMARK  2 active torsions:
REMARK  status: ('A' for Active; 'I' for Inactive)
REMARK    1  A    between atoms: C4_4  and  C5_5 
REMARK    2  A    between atoms: N3_13  and  C9_15 
ROOT
HETATM    1  C5  UNL     1      49.016 -29.184 -98.993  1.00  0.00    -0.026 C 
HETATM    2  C6  UNL     1      50.352 -29.580 -99.448  1.00  0.00     0.051 C 
HETATM    3  C7  UNL     1      48.882 -28.631 -97.777  1.00  0.00     0.098 C 
HETATM    4  N1  UNL     1      47.750 -28.164 -97.087  1.00  0.00    -0.291 N 
ATOM      5  H1  UNL     1      46.807 -28.352 -97.427  1.00  0.00     0.187 HD
HETATM    6  N2  UNL     1      47.961 -27.451 -95.948  1.00  0.00    -0.279 N 
ATOM      7  H2  UNL     1      47.184 -27.083 -95.398  1.00  0.00     0.189 HD
HETATM    8  C8  UNL     1      49.297 -27.243 -95.562  1.00  0.00     0.161 C 
HETATM    9  N3  UNL     1      49.786 -26.484 -94.674  1.00  0.00    -0.365 N 
ATOM     10  H3  UNL     1      50.797 -26.467 -94.535  1.00  0.00     0.162 HD
HETATM   11  S1  UNL     1      50.244 -28.316 -96.621  1.00  0.00    -0.033 SA
ENDROOT
BRANCH   1  12
HETATM   12  C4  UNL     1      47.840 -29.370 -99.806  1.00  0.00     0.011 C 
HETATM   13  C2  UNL     1      46.876 -30.216 -99.749  1.00  0.00    -0.087 C 
HETATM   14  C1  UNL     1      45.780 -30.124-100.784  1.00  0.00     0.043 C 
HETATM   15  C3  UNL     1      46.727 -31.285 -98.766  1.00  0.00     0.043 C 
ENDBRANCH   1  12
BRANCH   9  16
HETATM   16  C9  UNL     1      48.944 -25.637 -93.848  1.00  0.00     0.075 C 
HETATM   17  C10 UNL     1      47.664 -26.345 -93.456  1.00  0.00     0.032 C 
HETATM   18  C11 UNL     1      48.685 -24.301 -94.489  1.00  0.00     0.032 C 
ENDBRANCH   9  16
TORSDOF 2
ENDMDL
MODEL 4
REMARK VINA RESULT: -4.664261074      1.523      5.983
REMARK  2 active torsions:
REMARK  status: ('A' for Active; 'I' for Inactive)
REMARK    1  A    between atoms: C4_4  and  C5_5 
REMARK    2  A    between atoms: N3_13  and  C9_15 
ROOT
HETATM    1  C5  UNL     1      47.116 -30.057 -97.807  1.00  0.00    -0.026 C 
HETATM    2  C6  UNL     1      46.776 -31.339 -97.184  1.00  0.00     0.051 C 
HETATM    3  C7  UNL     1      47.091 -28.943 -97.057  1.00  0.00     0.098 C 
HETATM    4  N1  UNL     1      47.363 -27.601 -97.374  1.00  0.00    -0.291 N 
ATOM      5  H1  UNL     1      47.479 -27.299 -98.342  1.00  0.00     0.187 HD
HETATM    6  N2  UNL     1      47.465 -26.722 -96.342  1.00  0.00    -0.279 N 
ATOM      7  H2  UNL     1      47.659 -25.733 -96.502  1.00  0.00     0.189 HD
HETATM    8  C8  UNL     1      47.290 -27.236 -95.045  1.00  0.00     0.161 C 
HETATM    9  N3  UNL     1      47.504 -26.703 -93.915  1.00  0.00    -0.365 N 
ATOM     10  H3  UNL     1      47.314 -27.240 -93.069  1.00  0.00     0.162 HD
HETATM   11  S1  UNL     1      46.669 -28.886 -95.294  1.00  0.00    -0.033 SA
ENDROOT
BRANCH   1  12
HETATM   12  C4  UNL     1      47.475 -29.950 -99.199  1.00  0.00     0.011 C 
HETATM   13  C2  UNL     1      48.591 -29.702 -99.786  1.00  0.00    -0.087 C 
HETATM   14  C1  UNL     1      48.612 -29.664-101.296  1.00  0.00     0.043 C 
HETATM   15  C3  UNL     1      49.869 -29.444 -99.131  1.00  0.00     0.043 C 
ENDBRANCH   1  12
BRANCH   9  16
HETATM   16  C9  UNL     1      48.011 -25.349 -93.796  1.00  0.00     0.075 C 
HETATM   17  C10 UNL     1      47.197 -24.379 -94.627  1.00  0.00     0.032 C 
HETATM   18  C11 UNL     1      49.482 -25.268 -94.100  1.00  0.00     0.032 C 
ENDBRANCH   9  16
TORSDOF 2
ENDMDL
MODEL 5
REMARK VINA RESULT: -4.643311366      1.855      6.132
REMARK  2 active torsions:
REMARK  status: ('A' for Active; 'I' for Inactive)
REMARK    1  A    between atoms: C4_4  and  C5_5 
REMARK    2  A    between atoms: N3_13  and  C9_15 
ROOT
HETATM    1  C5  UNL     1      47.191 -29.713 -96.674  1.00  0.00    -0.026 C 
HETATM    2  C6  UNL     1      47.762 -30.664 -95.715  1.00  0.00     0.051 C 
HETATM    3  C7  UNL     1      46.957 -28.452 -96.278  1.00  0.00     0.098 C 
HETATM    4  N1  UNL     1      46.427 -27.345 -96.962  1.00  0.00    -0.291 N 
ATOM      5  H1  UNL     1      45.993 -27.447 -97.880  1.00  0.00     0.187 HD
HETATM    6  N2  UNL     1      46.516 -26.132 -96.353  1.00  0.00    -0.279 N 
ATOM      7  H2  UNL     1      46.150 -25.287 -96.794  1.00  0.00     0.189 HD
HETATM    8  C8  UNL     1      47.133 -26.093 -95.091  1.00  0.00     0.161 C 
HETATM    9  N3  UNL     1      47.508 -25.107 -94.390  1.00  0.00    -0.365 N 
ATOM     10  H3  UNL     1      47.944 -25.278 -93.484  1.00  0.00     0.162 HD
HETATM   11  S1  UNL     1      47.302 -27.802 -94.620  1.00  0.00    -0.033 SA
ENDROOT
BRANCH   1  12
HETATM   12  C4  UNL     1      46.870 -30.088 -98.029  1.00  0.00     0.011 C 
HETATM   13  C2  UNL     1      47.517 -29.973 -99.133  1.00  0.00    -0.087 C 
HETATM   14  C1  UNL     1      46.869 -30.484-100.398  1.00  0.00     0.043 C 
HETATM   15  C3  UNL     1      48.842 -29.385 -99.295  1.00  0.00     0.043 C 
ENDBRANCH   1  12
BRANCH   9  16
HETATM   16  C9  UNL     1      47.334 -23.740 -94.845  1.00  0.00     0.075 C 
HETATM   17  C10 UNL     1      48.579 -22.913 -94.600  1.00  0.00     0.032 C 
HETATM   18  C11 UNL     1      46.101 -23.103 -94.263  1.00  0.00     0.032 C 
ENDBRANCH   9  16
TORSDOF 2
ENDMDL
