MODEL 1
REMARK VINA RESULT: -6.150336628      0.000      0.000
REMARK  2 active torsions:
REMARK  status: ('A' for Active; 'I' for Inactive)
REMARK       I    between atoms: C1_2  and  N1_3 
REMARK       I    between atoms: C1_2  and  N2_10 
REMARK    1  A    between atoms: N1_3  and  C2_5 
REMARK    2  A    between atoms: N2_10  and  C6_12 
ROOT
HETATM    1  O1  UNL     1      47.803 -27.503 -97.215  1.00  0.00    -0.247 OA
HETATM    2  C1  UNL     1      47.577 -28.500 -96.500  1.00  0.00     0.321 C 
HETATM    3  N1  UNL     1      47.350 -29.757 -97.077  1.00  0.00    -0.303 N 
ATOM      4  H1  UNL     1      47.166 -30.571 -96.490  1.00  0.00     0.171 HD
HETATM    5  N2  UNL     1      47.552 -28.350 -95.097  1.00  0.00    -0.338 N 
ATOM      6  H2  UNL     1      47.365 -29.177 -94.529  1.00  0.00     0.164 HD
ENDROOT
BRANCH   3   7
HETATM    7  C2  UNL     1      47.381 -29.880 -98.500  1.00  0.00     0.077 A 
HETATM    8  C3  UNL     1      46.341 -30.103 -99.364  1.00  0.00     0.038 A 
HETATM    9  C4  UNL     1      46.645 -30.178-100.678  1.00  0.00     0.010 A 
HETATM   10  C5  UNL     1      47.947 -30.029-101.034  1.00  0.00     0.052 A 
HETATM   11  S1  UNL     1      48.731 -29.786 -99.542  1.00  0.00    -0.084 SA
ENDBRANCH   3   7
BRANCH   5  12
HETATM   12  C6  UNL     1      47.775 -27.094 -94.419  1.00  0.00     0.086 C 
HETATM   13  C7  UNL     1      46.919 -26.018 -95.024  1.00  0.00     0.025 C 
HETATM   14  C8  UNL     1      47.190 -24.675 -94.436  1.00  0.00     0.002 C 
HETATM   15  C9  UNL     1      48.638 -24.362 -94.239  1.00  0.00     0.000 C 
HETATM   16  C10 UNL     1      49.437 -25.487 -93.661  1.00  0.00     0.002 C 
HETATM   17  C11 UNL     1      49.226 -26.699 -94.578  1.00  0.00     0.025 C 
ENDBRANCH   5  12
TORSDOF 2
ENDMDL
MODEL 2
REMARK VINA RESULT: -5.882219071      1.831      6.378
REMARK  2 active torsions:
REMARK  status: ('A' for Active; 'I' for Inactive)
REMARK       I    between atoms: C1_2  and  N1_3 
REMARK       I    between atoms: C1_2  and  N2_10 
REMARK    1  A    between atoms: N1_3  and  C2_5 
REMARK    2  A    between atoms: N2_10  and  C6_12 
ROOT
HETATM    1  O1  UNL     1      48.288 -27.792 -97.365  1.00  0.00    -0.247 OA
HETATM    2  C1  UNL     1      47.780 -28.587 -96.548  1.00  0.00     0.321 C 
HETATM    3  N1  UNL     1      47.671 -28.248 -95.192  1.00  0.00    -0.303 N 
ATOM      4  H1  UNL     1      47.255 -28.899 -94.527  1.00  0.00     0.171 HD
HETATM    5  N2  UNL     1      47.313 -29.838 -97.004  1.00  0.00    -0.338 N 
ATOM      6  H2  UNL     1      46.901 -30.475 -96.322  1.00  0.00     0.164 HD
ENDROOT
BRANCH   3   7
HETATM    7  C2  UNL     1      48.152 -26.975 -94.758  1.00  0.00     0.077 A 
HETATM    8  C3  UNL     1      49.396 -26.643 -94.288  1.00  0.00     0.038 A 
HETATM    9  C4  UNL     1      49.592 -25.353 -93.940  1.00  0.00     0.010 A 
HETATM   10  C5  UNL     1      48.549 -24.495 -94.082  1.00  0.00     0.052 A 
HETATM   11  S1  UNL     1      47.311 -25.489 -94.697  1.00  0.00    -0.084 SA
ENDBRANCH   3   7
BRANCH   5  12
HETATM   12  C6  UNL     1      47.385 -30.269 -98.382  1.00  0.00     0.086 C 
HETATM   13  C7  UNL     1      48.689 -29.840 -98.992  1.00  0.00     0.025 C 
HETATM   14  C8  UNL     1      48.771 -30.161-100.446  1.00  0.00     0.002 C 
HETATM   15  C9  UNL     1      47.528 -29.866-101.220  1.00  0.00     0.000 C 
HETATM   16  C10 UNL     1      46.264 -30.291-100.542  1.00  0.00     0.002 C 
HETATM   17  C11 UNL     1      46.257 -29.626 -99.159  1.00  0.00     0.025 C 
ENDBRANCH   5  12
TORSDOF 2
ENDMDL
MODEL 3
REMARK VINA RESULT: -5.857154382      1.871      6.288
REMARK  2 active torsions:
REMARK  status: ('A' for Active; 'I' for Inactive)
REMARK       I    between atoms: C1_2  and  N1_3 
REMARK       I    between atoms: C1_2  and  N2_10 
REMARK    1  A    between atoms: N1_3  and  C2_5 
REMARK    2  A    between atoms: N2_10  and  C6_12 
ROOT
HETATM    1  O1  UNL     1      47.865 -27.474 -97.474  1.00  0.00    -0.247 OA
HETATM    2  C1  UNL     1      47.620 -28.298 -96.569  1.00  0.00     0.321 C 
HETATM    3  N1  UNL     1      47.533 -27.887 -95.232  1.00  0.00    -0.303 N 
ATOM      4  H1  UNL     1      47.332 -28.562 -94.494  1.00  0.00     0.171 HD
HETATM    5  N2  UNL     1      47.429 -29.654 -96.907  1.00  0.00    -0.338 N 
ATOM      6  H2  UNL     1      47.229 -30.313 -96.154  1.00  0.00     0.164 HD
ENDROOT
BRANCH   3   7
HETATM    7  C2  UNL     1      47.731 -26.507 -94.918  1.00  0.00     0.077 A 
HETATM    8  C3  UNL     1      46.879 -25.452 -95.119  1.00  0.00     0.038 A 
HETATM    9  C4  UNL     1      47.314 -24.235 -94.728  1.00  0.00     0.010 A 
HETATM   10  C5  UNL     1      48.551 -24.155 -94.172  1.00  0.00     0.052 A 
HETATM   11  S1  UNL     1      49.092 -25.769 -94.199  1.00  0.00    -0.084 SA
ENDBRANCH   3   7
BRANCH   5  12
HETATM   12  C6  UNL     1      47.499 -30.164 -98.258  1.00  0.00     0.086 C 
HETATM   13  C7  UNL     1      48.774 -29.717 -98.915  1.00  0.00     0.025 C 
HETATM   14  C8  UNL     1      48.848 -30.121-100.348  1.00  0.00     0.002 C 
HETATM   15  C9  UNL     1      47.582 -29.928-101.117  1.00  0.00     0.000 C 
HETATM   16  C10 UNL     1      46.349 -30.367-100.392  1.00  0.00     0.002 C 
HETATM   17  C11 UNL     1      46.333 -29.620 -99.052  1.00  0.00     0.025 C 
ENDBRANCH   5  12
TORSDOF 2
ENDMDL
MODEL 4
REMARK VINA RESULT: -5.845914618      0.784      1.040
REMARK  2 active torsions:
REMARK  status: ('A' for Active; 'I' for Inactive)
REMARK       I    between atoms: C1_2  and  N1_3 
REMARK       I    between atoms: C1_2  and  N2_10 
REMARK    1  A    between atoms: N1_3  and  C2_5 
REMARK    2  A    between atoms: N2_10  and  C6_12 
ROOT
HETATM    1  O1  UNL     1      48.033 -27.513 -97.236  1.00  0.00    -0.247 OA
HETATM    2  C1  UNL     1      47.688 -28.505 -96.562  1.00  0.00     0.321 C 
HETATM    3  N1  UNL     1      47.469 -29.746 -97.176  1.00  0.00    -0.303 N 
ATOM      4  H1  UNL     1      47.188 -30.556 -96.623  1.00  0.00     0.171 HD
HETATM    5  N2  UNL     1      47.520 -28.366 -95.168  1.00  0.00    -0.338 N 
ATOM      6  H2  UNL     1      47.238 -29.188 -94.633  1.00  0.00     0.164 HD
ENDROOT
BRANCH   3   7
HETATM    7  C2  UNL     1      47.646 -29.859 -98.589  1.00  0.00     0.077 A 
HETATM    8  C3  UNL     1      48.813 -29.873 -99.309  1.00  0.00     0.038 A 
HETATM    9  C4  UNL     1      48.700 -29.991-100.649  1.00  0.00     0.010 A 
HETATM   10  C5  UNL     1      47.451 -30.085-101.172  1.00  0.00     0.052 A 
HETATM   11  S1  UNL     1      46.449 -30.008 -99.798  1.00  0.00    -0.084 SA
ENDBRANCH   3   7
BRANCH   5  12
HETATM   12  C6  UNL     1      47.725 -27.126 -94.453  1.00  0.00     0.086 C 
HETATM   13  C7  UNL     1      46.896 -26.033 -95.064  1.00  0.00     0.025 C 
HETATM   14  C8  UNL     1      47.153 -24.705 -94.436  1.00  0.00     0.002 C 
HETATM   15  C9  UNL     1      48.594 -24.404 -94.181  1.00  0.00     0.000 C 
HETATM   16  C10 UNL     1      49.367 -25.546 -93.601  1.00  0.00     0.002 C 
HETATM   17  C11 UNL     1      49.183 -26.736 -94.552  1.00  0.00     0.025 C 
ENDBRANCH   5  12
TORSDOF 2
ENDMDL
MODEL 5
REMARK VINA RESULT: -5.806968525     10.894     11.941
REMARK  2 active torsions:
REMARK  status: ('A' for Active; 'I' for Inactive)
REMARK       I    between atoms: C1_2  and  N1_3 
REMARK       I    between atoms: C1_2  and  N2_10 
REMARK    1  A    between atoms: N1_3  and  C2_5 
REMARK    2  A    between atoms: N2_10  and  C6_12 
ROOT
HETATM    1  O1  UNL     1      45.029 -18.965 -91.804  1.00  0.00    -0.247 OA
HETATM    2  C1  UNL     1      45.280 -18.863 -90.586  1.00  0.00     0.321 C 
HETATM    3  N1  UNL     1      46.551 -18.466 -90.148  1.00  0.00    -0.303 N 
ATOM      4  H1  UNL     1      46.753 -18.382 -89.152  1.00  0.00     0.171 HD
HETATM    5  N2  UNL     1      44.266 -19.151 -89.648  1.00  0.00    -0.338 N 
ATOM      6  H2  UNL     1      44.489 -19.062 -88.656  1.00  0.00     0.164 HD
ENDROOT
BRANCH   3   7
HETATM    7  C2  UNL     1      47.558 -18.180 -91.119  1.00  0.00     0.077 A 
HETATM    8  C3  UNL     1      47.774 -17.018 -91.814  1.00  0.00     0.038 A 
HETATM    9  C4  UNL     1      48.807 -17.011 -92.683  1.00  0.00     0.010 A 
HETATM   10  C5  UNL     1      49.544 -18.146 -92.798  1.00  0.00     0.052 A 
HETATM   11  S1  UNL     1      48.793 -19.208 -91.699  1.00  0.00    -0.084 SA
ENDBRANCH   3   7
BRANCH   5  12
HETATM   12  C6  UNL     1      42.929 -19.566 -90.011  1.00  0.00     0.086 C 
HETATM   13  C7  UNL     1      42.143 -19.915 -88.779  1.00  0.00     0.025 C 
HETATM   14  C8  UNL     1      40.792 -20.456 -89.100  1.00  0.00     0.002 C 
HETATM   15  C9  UNL     1      40.765 -21.438 -90.226  1.00  0.00     0.000 C 
HETATM   16  C10 UNL     1      41.593 -21.043 -91.407  1.00  0.00     0.002 C 
HETATM   17  C11 UNL     1      43.016 -20.794 -90.889  1.00  0.00     0.025 C 
ENDBRANCH   5  12
TORSDOF 2
ENDMDL
