MODEL 1
REMARK VINA RESULT: -8.997681181      0.000      0.000
REMARK  9 active torsions:
REMARK  status: ('A' for Active; 'I' for Inactive)
REMARK    1  A    between atoms: C2_2  and  N1_4 
REMARK    2  A    between atoms: C2_2  and  C19_25 
REMARK       I    between atoms: N1_4  and  C4_6 
REMARK    3  A    between atoms: C4_6  and  C5_8 
REMARK    4  A    between atoms: C5_8  and  C6_9 
REMARK    5  A    between atoms: C5_8  and  C10_15 
REMARK    6  A    between atoms: C6_9  and  C7_10 
REMARK    7  A    between atoms: C7_10  and  C8_11 
REMARK    8  A    between atoms: C8_11  and  C9_12 
REMARK    9  A    between atoms: C10_15  and  C11_17 
ROOT
HETATM    1  C5  UNL     1      50.195 -30.857 -94.298  1.00  0.00     0.148 C 
ENDROOT
BRANCH   1   2
HETATM    2  C4  UNL     1      49.179 -29.865 -94.709  1.00  0.00     0.229 C 
HETATM    3  N1  UNL     1      49.514 -28.601 -95.238  1.00  0.00    -0.352 N 
ATOM      4  H1  UNL     1      50.508 -28.389 -95.329  1.00  0.00     0.163 HD
HETATM    5  O1  UNL     1      47.973 -30.166 -94.579  1.00  0.00    -0.273 OA
BRANCH   3   6
HETATM    6  C2  UNL     1      48.586 -27.577 -95.667  1.00  0.00     0.029 C 
HETATM    7  C1  UNL     1      48.057 -26.900 -94.416  1.00  0.00     0.038 C 
HETATM    8  C3  UNL     1      49.415 -26.495 -96.325  1.00  0.00     0.038 C 
BRANCH   6   9
HETATM    9  C19 UNL     1      47.480 -28.094 -96.555  1.00  0.00     0.013 C 
HETATM   10  C20 UNL     1      47.914 -28.445 -97.927  1.00  0.00     0.007 C 
HETATM   11  C21 UNL     1      46.991 -28.035 -99.033  1.00  0.00     0.000 C 
HETATM   12  C22 UNL     1      46.419 -26.672 -98.928  1.00  0.00     0.000 C 
HETATM   13  C23 UNL     1      46.098 -26.226 -97.538  1.00  0.00     0.000 C 
HETATM   14  C24 UNL     1      46.230 -27.286 -96.499  1.00  0.00     0.007 C 
ENDBRANCH   6   9
ENDBRANCH   3   6
ENDBRANCH   1   2
BRANCH   1  15
HETATM   15  C6  UNL     1      49.542 -32.010 -93.519  1.00  0.00     0.022 C 
BRANCH  15  16
HETATM   16  C7  UNL     1      49.589 -31.747 -92.040  1.00  0.00     0.010 C 
BRANCH  16  17
HETATM   17  C8  UNL     1      48.213 -31.697 -91.427  1.00  0.00     0.099 C 
BRANCH  17  18
HETATM   18  C9  UNL     1      48.135 -32.527 -90.200  1.00  0.00     0.231 C 
HETATM   19  N2  UNL     1      46.916 -32.898 -89.600  1.00  0.00    -0.062 NA
HETATM   20  O2  UNL     1      49.211 -32.912 -89.681  1.00  0.00    -0.277 OA
ENDBRANCH  17  18
ENDBRANCH  16  17
ENDBRANCH  15  16
ENDBRANCH   1  15
BRANCH   1  21
HETATM   21  C10 UNL     1      51.059 -31.355 -95.378  1.00  0.00     0.148 C 
HETATM   22  O3  UNL     1      52.283 -31.288 -95.154  1.00  0.00    -0.296 OA
BRANCH  21  23
HETATM   23  C11 UNL     1      50.680 -31.905 -96.650  1.00  0.00     0.022 C 
HETATM   24  C12 UNL     1      51.668 -32.884 -97.245  1.00  0.00     0.022 C 
HETATM   25  C13 UNL     1      51.077 -33.106 -98.636  1.00  0.00    -0.009 C 
HETATM   26  C14 UNL     1      49.903 -34.093 -98.539  1.00  0.00     0.010 C 
HETATM   27  C17 UNL     1      50.063 -32.035 -98.841  1.00  0.00    -0.005 C 
HETATM   28  C15 UNL     1      49.083 -32.878 -98.081  1.00  0.00    -0.009 C 
HETATM   29  C16 UNL     1      49.340 -32.656 -96.611  1.00  0.00     0.022 C 
HETATM   30  C18 UNL     1      50.433 -30.977 -97.790  1.00  0.00     0.022 C 
ENDBRANCH  21  23
ENDBRANCH   1  21
TORSDOF 9
ENDMDL
MODEL 2
REMARK VINA RESULT: -8.882963012      1.176      1.500
REMARK  9 active torsions:
REMARK  status: ('A' for Active; 'I' for Inactive)
REMARK    1  A    between atoms: C2_2  and  N1_4 
REMARK    2  A    between atoms: C2_2  and  C19_25 
REMARK       I    between atoms: N1_4  and  C4_6 
REMARK    3  A    between atoms: C4_6  and  C5_8 
REMARK    4  A    between atoms: C5_8  and  C6_9 
REMARK    5  A    between atoms: C5_8  and  C10_15 
REMARK    6  A    between atoms: C6_9  and  C7_10 
REMARK    7  A    between atoms: C7_10  and  C8_11 
REMARK    8  A    between atoms: C8_11  and  C9_12 
REMARK    9  A    between atoms: C10_15  and  C11_17 
ROOT
HETATM    1  C5  UNL     1      48.845 -31.064 -93.668  1.00  0.00     0.148 C 
ENDROOT
BRANCH   1   2
HETATM    2  C4  UNL     1      48.183 -29.960 -94.396  1.00  0.00     0.229 C 
HETATM    3  N1  UNL     1      48.899 -28.928 -95.036  1.00  0.00    -0.352 N 
ATOM      4  H1  UNL     1      49.917 -28.968 -94.975  1.00  0.00     0.163 HD
HETATM    5  O1  UNL     1      46.934 -29.950 -94.444  1.00  0.00    -0.273 OA
BRANCH   3   6
HETATM    6  C2  UNL     1      48.332 -27.817 -95.770  1.00  0.00     0.029 C 
HETATM    7  C1  UNL     1      47.950 -26.757 -94.754  1.00  0.00     0.038 C 
HETATM    8  C3  UNL     1      49.474 -27.177 -96.530  1.00  0.00     0.038 C 
BRANCH   6   9
HETATM    9  C19 UNL     1      47.177 -28.207 -96.660  1.00  0.00     0.013 C 
HETATM   10  C20 UNL     1      47.578 -28.694 -98.001  1.00  0.00     0.007 C 
HETATM   11  C21 UNL     1      46.749 -28.207 -99.151  1.00  0.00     0.000 C 
HETATM   12  C22 UNL     1      46.392 -26.770 -99.131  1.00  0.00     0.000 C 
HETATM   13  C23 UNL     1      46.118 -26.205 -97.774  1.00  0.00     0.000 C 
HETATM   14  C24 UNL     1      46.065 -27.215 -96.680  1.00  0.00     0.007 C 
ENDBRANCH   6   9
ENDBRANCH   3   6
ENDBRANCH   1   2
BRANCH   1  15
HETATM   15  C6  UNL     1      47.847 -31.779 -92.744  1.00  0.00     0.022 C 
BRANCH  15  16
HETATM   16  C7  UNL     1      48.051 -31.362 -91.314  1.00  0.00     0.010 C 
BRANCH  16  17
HETATM   17  C8  UNL     1      48.119 -32.543 -90.381  1.00  0.00     0.099 C 
BRANCH  17  18
HETATM   18  C9  UNL     1      49.522 -32.947 -90.120  1.00  0.00     0.231 C 
HETATM   19  N2  UNL     1      49.865 -34.118 -89.415  1.00  0.00    -0.062 NA
HETATM   20  O2  UNL     1      50.437 -32.206 -90.551  1.00  0.00    -0.277 OA
ENDBRANCH  17  18
ENDBRANCH  16  17
ENDBRANCH  15  16
ENDBRANCH   1  15
BRANCH   1  21
HETATM   21  C10 UNL     1      49.582 -32.017 -94.509  1.00  0.00     0.148 C 
HETATM   22  O3  UNL     1      50.363 -32.773 -93.898  1.00  0.00    -0.296 OA
BRANCH  21  23
HETATM   23  C11 UNL     1      49.523 -32.192 -95.933  1.00  0.00     0.022 C 
HETATM   24  C12 UNL     1      50.399 -31.252 -96.732  1.00  0.00     0.022 C 
HETATM   25  C13 UNL     1      49.953 -31.560 -98.161  1.00  0.00    -0.009 C 
HETATM   26  C14 UNL     1      50.626 -32.858 -98.636  1.00  0.00     0.010 C 
HETATM   27  C17 UNL     1      48.690 -32.343 -98.051  1.00  0.00    -0.005 C 
HETATM   28  C15 UNL     1      49.523 -33.573 -97.842  1.00  0.00    -0.009 C 
HETATM   29  C16 UNL     1      49.926 -33.604 -96.388  1.00  0.00     0.022 C 
HETATM   30  C18 UNL     1      48.207 -32.056 -96.620  1.00  0.00     0.022 C 
ENDBRANCH  21  23
ENDBRANCH   1  21
TORSDOF 9
ENDMDL
MODEL 3
REMARK VINA RESULT: -8.866984441      1.020      1.313
REMARK  9 active torsions:
REMARK  status: ('A' for Active; 'I' for Inactive)
REMARK    1  A    between atoms: C2_2  and  N1_4 
REMARK    2  A    between atoms: C2_2  and  C19_25 
REMARK       I    between atoms: N1_4  and  C4_6 
REMARK    3  A    between atoms: C4_6  and  C5_8 
REMARK    4  A    between atoms: C5_8  and  C6_9 
REMARK    5  A    between atoms: C5_8  and  C10_15 
REMARK    6  A    between atoms: C6_9  and  C7_10 
REMARK    7  A    between atoms: C7_10  and  C8_11 
REMARK    8  A    between atoms: C8_11  and  C9_12 
REMARK    9  A    between atoms: C10_15  and  C11_17 
ROOT
HETATM    1  C5  UNL     1      48.974 -31.077 -93.781  1.00  0.00     0.148 C 
ENDROOT
BRANCH   1   2
HETATM    2  C4  UNL     1      48.274 -29.963 -94.458  1.00  0.00     0.229 C 
HETATM    3  N1  UNL     1      48.957 -28.916 -95.111  1.00  0.00    -0.352 N 
ATOM      4  H1  UNL     1      49.976 -28.953 -95.099  1.00  0.00     0.163 HD
HETATM    5  O1  UNL     1      47.025 -29.957 -94.447  1.00  0.00    -0.273 OA
BRANCH   3   6
HETATM    6  C2  UNL     1      48.352 -27.795 -95.798  1.00  0.00     0.029 C 
HETATM    7  C1  UNL     1      47.983 -26.769 -94.743  1.00  0.00     0.038 C 
HETATM    8  C3  UNL     1      49.463 -27.116 -96.571  1.00  0.00     0.038 C 
BRANCH   6   9
HETATM    9  C19 UNL     1      47.179 -28.179 -96.666  1.00  0.00     0.013 C 
HETATM   10  C20 UNL     1      47.551 -28.674 -98.012  1.00  0.00     0.007 C 
HETATM   11  C21 UNL     1      46.707 -28.185 -99.149  1.00  0.00     0.000 C 
HETATM   12  C22 UNL     1      46.362 -26.745 -99.128  1.00  0.00     0.000 C 
HETATM   13  C23 UNL     1      46.116 -26.172 -97.769  1.00  0.00     0.000 C 
HETATM   14  C24 UNL     1      46.075 -27.178 -96.670  1.00  0.00     0.007 C 
ENDBRANCH   6   9
ENDBRANCH   3   6
ENDBRANCH   1   2
BRANCH   1  15
HETATM   15  C6  UNL     1      48.034 -31.785 -92.793  1.00  0.00     0.022 C 
BRANCH  15  16
HETATM   16  C7  UNL     1      48.597 -31.746 -91.400  1.00  0.00     0.010 C 
BRANCH  16  17
HETATM   17  C8  UNL     1      47.519 -31.650 -90.352  1.00  0.00     0.099 C 
BRANCH  17  18
HETATM   18  C9  UNL     1      47.363 -32.928 -89.615  1.00  0.00     0.231 C 
HETATM   19  N2  UNL     1      46.107 -33.480 -89.291  1.00  0.00    -0.062 NA
HETATM   20  O2  UNL     1      48.403 -33.538 -89.270  1.00  0.00    -0.277 OA
ENDBRANCH  17  18
ENDBRANCH  16  17
ENDBRANCH  15  16
ENDBRANCH   1  15
BRANCH   1  21
HETATM   21  C10 UNL     1      49.642 -32.033 -94.674  1.00  0.00     0.148 C 
HETATM   22  O3  UNL     1      50.483 -32.774 -94.128  1.00  0.00    -0.296 OA
BRANCH  21  23
HETATM   23  C11 UNL     1      49.454 -32.227 -96.085  1.00  0.00     0.022 C 
HETATM   24  C12 UNL     1      50.239 -31.285 -96.971  1.00  0.00     0.022 C 
HETATM   25  C13 UNL     1      49.669 -31.617 -98.349  1.00  0.00    -0.009 C 
HETATM   26  C14 UNL     1      50.315 -32.911 -98.870  1.00  0.00     0.010 C 
HETATM   27  C17 UNL     1      48.434 -32.416 -98.115  1.00  0.00    -0.005 C 
HETATM   28  C15 UNL     1      49.301 -33.632 -97.970  1.00  0.00    -0.009 C 
HETATM   29  C16 UNL     1      49.836 -33.639 -96.558  1.00  0.00     0.022 C 
HETATM   30  C18 UNL     1      48.080 -32.119 -96.650  1.00  0.00     0.022 C 
ENDBRANCH  21  23
ENDBRANCH   1  21
TORSDOF 9
ENDMDL
MODEL 4
REMARK VINA RESULT: -8.700217425      2.761      6.047
REMARK  9 active torsions:
REMARK  status: ('A' for Active; 'I' for Inactive)
REMARK    1  A    between atoms: C2_2  and  N1_4 
REMARK    2  A    between atoms: C2_2  and  C19_25 
REMARK       I    between atoms: N1_4  and  C4_6 
REMARK    3  A    between atoms: C4_6  and  C5_8 
REMARK    4  A    between atoms: C5_8  and  C6_9 
REMARK    5  A    between atoms: C5_8  and  C10_15 
REMARK    6  A    between atoms: C6_9  and  C7_10 
REMARK    7  A    between atoms: C7_10  and  C8_11 
REMARK    8  A    between atoms: C8_11  and  C9_12 
REMARK    9  A    between atoms: C10_15  and  C11_17 
ROOT
HETATM    1  C5  UNL     1      49.067 -28.737 -95.220  1.00  0.00     0.148 C 
ENDROOT
BRANCH   1   2
HETATM    2  C4  UNL     1      49.952 -29.908 -95.400  1.00  0.00     0.229 C 
HETATM    3  N1  UNL     1      50.337 -30.388 -96.669  1.00  0.00    -0.352 N 
ATOM      4  H1  UNL     1      49.972 -29.888 -97.480  1.00  0.00     0.163 HD
HETATM    5  O1  UNL     1      50.374 -30.492 -94.379  1.00  0.00    -0.273 OA
BRANCH   3   6
HETATM    6  C2  UNL     1      51.198 -31.520 -96.933  1.00  0.00     0.029 C 
HETATM    7  C1  UNL     1      51.926 -31.236 -98.234  1.00  0.00     0.038 C 
HETATM    8  C3  UNL     1      52.302 -31.469 -95.897  1.00  0.00     0.038 C 
BRANCH   6   9
HETATM    9  C19 UNL     1      50.471 -32.842 -96.954  1.00  0.00     0.013 C 
HETATM   10  C20 UNL     1      50.826 -33.716 -98.098  1.00  0.00     0.007 C 
HETATM   11  C21 UNL     1      49.686 -34.432 -98.756  1.00  0.00     0.000 C 
HETATM   12  C22 UNL     1      48.462 -33.630 -98.987  1.00  0.00     0.000 C 
HETATM   13  C23 UNL     1      48.147 -32.633 -97.918  1.00  0.00     0.000 C 
HETATM   14  C24 UNL     1      49.006 -32.733 -96.704  1.00  0.00     0.007 C 
ENDBRANCH   6   9
ENDBRANCH   3   6
ENDBRANCH   1   2
BRANCH   1  15
HETATM   15  C6  UNL     1      49.821 -27.436 -95.535  1.00  0.00     0.022 C 
BRANCH  15  16
HETATM   16  C7  UNL     1      49.285 -26.297 -94.712  1.00  0.00     0.010 C 
BRANCH  16  17
HETATM   17  C8  UNL     1      48.986 -25.080 -95.549  1.00  0.00     0.099 C 
BRANCH  17  18
HETATM   18  C9  UNL     1      47.546 -24.729 -95.501  1.00  0.00     0.231 C 
HETATM   19  N2  UNL     1      47.033 -23.520 -96.011  1.00  0.00    -0.062 NA
HETATM   20  O2  UNL     1      46.757 -25.554 -94.982  1.00  0.00    -0.277 OA
ENDBRANCH  17  18
ENDBRANCH  16  17
ENDBRANCH  15  16
ENDBRANCH   1  15
BRANCH   1  21
HETATM   21  C10 UNL     1      47.784 -28.805 -95.933  1.00  0.00     0.148 C 
HETATM   22  O3  UNL     1      46.783 -28.988 -95.213  1.00  0.00    -0.296 OA
BRANCH  21  23
HETATM   23  C11 UNL     1      47.531 -28.688 -97.343  1.00  0.00     0.022 C 
HETATM   24  C12 UNL     1      48.768 -28.629 -98.213  1.00  0.00     0.022 C 
HETATM   25  C13 UNL     1      48.164 -28.309 -99.580  1.00  0.00    -0.009 C 
HETATM   26  C14 UNL     1      47.588 -29.594-100.196  1.00  0.00     0.010 C 
HETATM   27  C17 UNL     1      46.758 -27.886 -99.332  1.00  0.00    -0.005 C 
HETATM   28  C15 UNL     1      46.375 -29.336 -99.290  1.00  0.00    -0.009 C 
HETATM   29  C16 UNL     1      46.695 -29.848 -97.907  1.00  0.00     0.022 C 
HETATM   30  C18 UNL     1      46.743 -27.525 -97.839  1.00  0.00     0.022 C 
ENDBRANCH  21  23
ENDBRANCH   1  21
TORSDOF 9
ENDMDL
MODEL 5
REMARK VINA RESULT: -8.697558253      2.408      6.160
REMARK  9 active torsions:
REMARK  status: ('A' for Active; 'I' for Inactive)
REMARK    1  A    between atoms: C2_2  and  N1_4 
REMARK    2  A    between atoms: C2_2  and  C19_25 
REMARK       I    between atoms: N1_4  and  C4_6 
REMARK    3  A    between atoms: C4_6  and  C5_8 
REMARK    4  A    between atoms: C5_8  and  C6_9 
REMARK    5  A    between atoms: C5_8  and  C10_15 
REMARK    6  A    between atoms: C6_9  and  C7_10 
REMARK    7  A    between atoms: C7_10  and  C8_11 
REMARK    8  A    between atoms: C8_11  and  C9_12 
REMARK    9  A    between atoms: C10_15  and  C11_17 
ROOT
HETATM    1  C5  UNL     1      48.013 -27.865 -95.762  1.00  0.00     0.148 C 
ENDROOT
BRANCH   1   2
HETATM    2  C4  UNL     1      48.111 -29.164 -95.063  1.00  0.00     0.229 C 
HETATM    3  N1  UNL     1      49.277 -29.957 -95.082  1.00  0.00    -0.352 N 
ATOM      4  H1  UNL     1      50.071 -29.595 -95.611  1.00  0.00     0.163 HD
HETATM    5  O1  UNL     1      47.114 -29.570 -94.429  1.00  0.00    -0.273 OA
BRANCH   3   6
HETATM    6  C2  UNL     1      49.458 -31.233 -94.425  1.00  0.00     0.029 C 
HETATM    7  C1  UNL     1      49.721 -30.949 -92.958  1.00  0.00     0.038 C 
HETATM    8  C3  UNL     1      48.101 -31.905 -94.413  1.00  0.00     0.038 C 
BRANCH   6   9
HETATM    9  C19 UNL     1      50.533 -32.089 -95.050  1.00  0.00     0.013 C 
HETATM   10  C20 UNL     1      51.759 -31.348 -95.429  1.00  0.00     0.007 C 
HETATM   11  C21 UNL     1      52.366 -31.715 -96.749  1.00  0.00     0.000 C 
HETATM   12  C22 UNL     1      51.417 -31.895 -97.872  1.00  0.00     0.000 C 
HETATM   13  C23 UNL     1      50.106 -32.512 -97.501  1.00  0.00     0.000 C 
HETATM   14  C24 UNL     1      50.033 -33.019 -96.101  1.00  0.00     0.007 C 
ENDBRANCH   6   9
ENDBRANCH   3   6
ENDBRANCH   1   2
BRANCH   1  15
HETATM   15  C6  UNL     1      49.400 -27.219 -95.902  1.00  0.00     0.022 C 
BRANCH  15  16
HETATM   16  C7  UNL     1      49.479 -25.948 -95.103  1.00  0.00     0.010 C 
BRANCH  16  17
HETATM   17  C8  UNL     1      48.116 -25.379 -94.802  1.00  0.00     0.099 C 
BRANCH  17  18
HETATM   18  C9  UNL     1      47.872 -24.126 -95.556  1.00  0.00     0.231 C 
HETATM   19  N2  UNL     1      46.681 -23.877 -96.267  1.00  0.00    -0.062 NA
HETATM   20  O2  UNL     1      48.773 -23.254 -95.555  1.00  0.00    -0.277 OA
ENDBRANCH  17  18
ENDBRANCH  16  17
ENDBRANCH  15  16
ENDBRANCH   1  15
BRANCH   1  21
HETATM   21  C10 UNL     1      47.299 -27.895 -97.046  1.00  0.00     0.148 C 
HETATM   22  O3  UNL     1      46.342 -27.102 -97.143  1.00  0.00    -0.296 OA
BRANCH  21  23
HETATM   23  C11 UNL     1      47.557 -28.714 -98.199  1.00  0.00     0.022 C 
HETATM   24  C12 UNL     1      46.760 -28.353 -99.433  1.00  0.00     0.022 C 
HETATM   25  C13 UNL     1      47.111 -29.506-100.371  1.00  0.00    -0.009 C 
HETATM   26  C14 UNL     1      48.497 -29.257-100.989  1.00  0.00     0.010 C 
HETATM   27  C17 UNL     1      47.756 -30.554 -99.531  1.00  0.00    -0.005 C 
HETATM   28  C15 UNL     1      49.048 -29.801 -99.663  1.00  0.00    -0.009 C 
HETATM   29  C16 UNL     1      49.027 -28.687 -98.645  1.00  0.00     0.022 C 
HETATM   30  C18 UNL     1      47.334 -30.185 -98.101  1.00  0.00     0.022 C 
ENDBRANCH  21  23
ENDBRANCH   1  21
TORSDOF 9
ENDMDL
