MODEL 1
REMARK VINA RESULT: -9.130552898      0.000      0.000
REMARK  8 active torsions:
REMARK  status: ('A' for Active; 'I' for Inactive)
REMARK    1  A    between atoms: C9_9  and  C10_10 
REMARK       I    between atoms: C10_10  and  N1_12 
REMARK    2  A    between atoms: N1_12  and  C11_14 
REMARK    3  A    between atoms: C11_14  and  C12_15 
REMARK    4  A    between atoms: C12_15  and  C13_16 
REMARK    5  A    between atoms: C13_16  and  C14_17 
REMARK    6  A    between atoms: C14_17  and  C15_18 
REMARK    7  A    between atoms: C15_18  and  C16_19 
REMARK       I    between atoms: C16_19  and  N2_21 
REMARK    8  A    between atoms: N2_21  and  C17_23 
ROOT
HETATM    1  C10 UNL     1      48.785 -29.445 -98.723  1.00  0.00     0.226 C 
HETATM    2  O1  UNL     1      49.608 -28.668 -99.225  1.00  0.00    -0.273 OA
HETATM    3  N1  UNL     1      47.446 -29.150 -98.421  1.00  0.00    -0.360 N 
ATOM      4  H1  UNL     1      46.850 -29.863 -98.001  1.00  0.00     0.162 HD
ENDROOT
BRANCH   3   5
HETATM    5  C11 UNL     1      46.903 -27.824 -98.708  1.00  0.00     0.122 C 
BRANCH   5   6
HETATM    6  C12 UNL     1      46.091 -27.365 -97.554  1.00  0.00     0.020 C 
BRANCH   6   7
HETATM    7  C13 UNL     1      46.384 -26.007 -97.077  1.00  0.00     0.002 C 
BRANCH   7   8
HETATM    8  C14 UNL     1      46.936 -25.825 -95.735  1.00  0.00     0.009 C 
BRANCH   8   9
HETATM    9  C15 UNL     1      48.403 -25.861 -95.580  1.00  0.00     0.103 C 
BRANCH   9  10
HETATM   10  C16 UNL     1      48.847 -27.323 -95.498  1.00  0.00     0.217 C 
HETATM   11  O2  UNL     1      49.916 -27.631 -96.064  1.00  0.00    -0.274 OA
HETATM   12  N2  UNL     1      48.073 -28.267 -94.811  1.00  0.00    -0.356 N 
ATOM     13  H2  UNL     1      47.210 -27.945 -94.374  1.00  0.00     0.162 HD
BRANCH  12  14
HETATM   14  C17 UNL     1      48.409 -29.656 -94.680  1.00  0.00     0.084 C 
HETATM   15  C18 UNL     1      49.691 -29.721 -93.860  1.00  0.00     0.025 C 
HETATM   16  C19 UNL     1      50.111 -31.168 -93.717  1.00  0.00     0.002 C 
HETATM   17  C20 UNL     1      49.042 -31.850 -92.912  1.00  0.00     0.000 C 
HETATM   18  C21 UNL     1      47.704 -31.812 -93.626  1.00  0.00     0.002 C 
HETATM   19  C22 UNL     1      47.300 -30.432 -94.032  1.00  0.00     0.025 C 
ENDBRANCH  12  14
ENDBRANCH   9  10
ENDBRANCH   8   9
ENDBRANCH   7   8
ENDBRANCH   6   7
ENDBRANCH   5   6
ENDBRANCH   3   5
BRANCH   1  20
HETATM   20  C9  UNL     1      49.258 -30.846 -98.400  1.00  0.00     0.042 C 
HETATM   21  C8  UNL     1      48.180 -31.480 -97.568  1.00  0.00     0.024 C 
HETATM   22  C6  UNL     1      48.654 -32.867 -97.193  1.00  0.00    -0.012 C 
HETATM   23  C5  UNL     1      48.864 -33.637 -98.476  1.00  0.00     0.009 C 
HETATM   24  C7  UNL     1      49.969 -32.815 -96.440  1.00  0.00     0.014 C 
HETATM   25  C4  UNL     1      49.973 -33.002 -99.276  1.00  0.00    -0.012 C 
HETATM   26  C3  UNL     1      51.257 -32.900 -98.503  1.00  0.00     0.014 C 
HETATM   27  C23 UNL     1      49.534 -31.622 -99.668  1.00  0.00     0.024 C 
HETATM   28  C2  UNL     1      51.019 -32.095 -97.251  1.00  0.00    -0.042 C 
HETATM   29  C1  UNL     1      52.276 -32.000 -96.416  1.00  0.00     0.015 C 
HETATM   30  C24 UNL     1      50.499 -30.708 -97.571  1.00  0.00     0.028 C 
ENDBRANCH   1  20
TORSDOF 8
ENDMDL
MODEL 2
REMARK VINA RESULT: -8.996749059      1.154      4.527
REMARK  8 active torsions:
REMARK  status: ('A' for Active; 'I' for Inactive)
REMARK    1  A    between atoms: C9_9  and  C10_10 
REMARK       I    between atoms: C10_10  and  N1_12 
REMARK    2  A    between atoms: N1_12  and  C11_14 
REMARK    3  A    between atoms: C11_14  and  C12_15 
REMARK    4  A    between atoms: C12_15  and  C13_16 
REMARK    5  A    between atoms: C13_16  and  C14_17 
REMARK    6  A    between atoms: C14_17  and  C15_18 
REMARK    7  A    between atoms: C15_18  and  C16_19 
REMARK       I    between atoms: C16_19  and  N2_21 
REMARK    8  A    between atoms: N2_21  and  C17_23 
ROOT
HETATM    1  C10 UNL     1      48.866 -28.398 -95.311  1.00  0.00     0.226 C 
HETATM    2  O1  UNL     1      49.909 -27.884 -95.736  1.00  0.00    -0.273 OA
HETATM    3  N1  UNL     1      47.618 -27.764 -95.200  1.00  0.00    -0.360 N 
ATOM      4  H1  UNL     1      46.818 -28.278 -94.829  1.00  0.00     0.162 HD
ENDROOT
BRANCH   3   5
HETATM    5  C11 UNL     1      47.460 -26.372 -95.616  1.00  0.00     0.122 C 
BRANCH   5   6
HETATM    6  C12 UNL     1      46.459 -26.296 -96.708  1.00  0.00     0.020 C 
BRANCH   6   7
HETATM    7  C13 UNL     1      46.293 -27.522 -97.499  1.00  0.00     0.002 C 
BRANCH   7   8
HETATM    8  C14 UNL     1      46.838 -27.577 -98.856  1.00  0.00     0.009 C 
BRANCH   8   9
HETATM    9  C15 UNL     1      46.571 -28.785 -99.660  1.00  0.00     0.103 C 
BRANCH   9  10
HETATM   10  C16 UNL     1      47.898 -29.503 -99.912  1.00  0.00     0.217 C 
HETATM   11  O2  UNL     1      48.640 -29.041-100.804  1.00  0.00    -0.274 OA
HETATM   12  N2  UNL     1      48.253 -30.633 -99.165  1.00  0.00    -0.356 N 
ATOM     13  H2  UNL     1      47.597 -30.956 -98.454  1.00  0.00     0.162 HD
BRANCH  12  14
HETATM   14  C17 UNL     1      49.474 -31.369 -99.328  1.00  0.00     0.084 C 
HETATM   15  C18 UNL     1      50.487 -30.752 -98.373  1.00  0.00     0.025 C 
HETATM   16  C19 UNL     1      51.810 -31.472 -98.527  1.00  0.00     0.002 C 
HETATM   17  C20 UNL     1      51.587 -32.887 -98.075  1.00  0.00     0.000 C 
HETATM   18  C21 UNL     1      50.560 -33.589 -98.944  1.00  0.00     0.002 C 
HETATM   19  C22 UNL     1      49.277 -32.831 -99.056  1.00  0.00     0.025 C 
ENDBRANCH  12  14
ENDBRANCH   9  10
ENDBRANCH   8   9
ENDBRANCH   7   8
ENDBRANCH   6   7
ENDBRANCH   5   6
ENDBRANCH   3   5
BRANCH   1  20
HETATM   20  C9  UNL     1      48.933 -29.842 -94.865  1.00  0.00     0.042 C 
HETATM   21  C8  UNL     1      48.072 -30.624 -95.816  1.00  0.00     0.024 C 
HETATM   22  C6  UNL     1      48.086 -32.065 -95.359  1.00  0.00    -0.012 C 
HETATM   23  C5  UNL     1      49.518 -32.545 -95.416  1.00  0.00     0.009 C 
HETATM   24  C7  UNL     1      47.589 -32.198 -93.933  1.00  0.00     0.014 C 
HETATM   25  C4  UNL     1      50.355 -31.771 -94.429  1.00  0.00    -0.012 C 
HETATM   26  C3  UNL     1      49.822 -31.857 -93.027  1.00  0.00     0.014 C 
HETATM   27  C23 UNL     1      50.364 -30.332 -94.854  1.00  0.00     0.024 C 
HETATM   28  C2  UNL     1      48.407 -31.337 -93.002  1.00  0.00    -0.042 C 
HETATM   29  C1  UNL     1      47.811 -31.443 -91.616  1.00  0.00     0.015 C 
HETATM   30  C24 UNL     1      48.331 -29.905 -93.493  1.00  0.00     0.028 C 
ENDBRANCH   1  20
TORSDOF 8
ENDMDL
MODEL 3
REMARK VINA RESULT: -8.827294682      0.718      1.176
REMARK  8 active torsions:
REMARK  status: ('A' for Active; 'I' for Inactive)
REMARK    1  A    between atoms: C9_9  and  C10_10 
REMARK       I    between atoms: C10_10  and  N1_12 
REMARK    2  A    between atoms: N1_12  and  C11_14 
REMARK    3  A    between atoms: C11_14  and  C12_15 
REMARK    4  A    between atoms: C12_15  and  C13_16 
REMARK    5  A    between atoms: C13_16  and  C14_17 
REMARK    6  A    between atoms: C14_17  and  C15_18 
REMARK    7  A    between atoms: C15_18  and  C16_19 
REMARK       I    between atoms: C16_19  and  N2_21 
REMARK    8  A    between atoms: N2_21  and  C17_23 
ROOT
HETATM    1  C10 UNL     1      48.774 -29.498 -98.392  1.00  0.00     0.226 C 
HETATM    2  O1  UNL     1      49.458 -28.602 -97.878  1.00  0.00    -0.273 OA
HETATM    3  N1  UNL     1      47.573 -29.321 -99.096  1.00  0.00    -0.360 N 
ATOM      4  H1  UNL     1      47.081 -30.131 -99.476  1.00  0.00     0.162 HD
ENDROOT
BRANCH   3   5
HETATM    5  C11 UNL     1      47.023 -27.981 -99.288  1.00  0.00     0.122 C 
BRANCH   5   6
HETATM    6  C12 UNL     1      46.137 -27.646 -98.147  1.00  0.00     0.020 C 
BRANCH   6   7
HETATM    7  C13 UNL     1      46.172 -26.244 -97.711  1.00  0.00     0.002 C 
BRANCH   7   8
HETATM    8  C14 UNL     1      46.571 -25.932 -96.339  1.00  0.00     0.009 C 
BRANCH   8   9
HETATM    9  C15 UNL     1      48.005 -25.707 -96.069  1.00  0.00     0.103 C 
BRANCH   9  10
HETATM   10  C16 UNL     1      48.469 -26.729 -95.030  1.00  0.00     0.217 C 
HETATM   11  O2  UNL     1      49.211 -26.318 -94.113  1.00  0.00    -0.274 OA
HETATM   12  N2  UNL     1      48.070 -28.069 -95.116  1.00  0.00    -0.356 N 
ATOM     13  H2  UNL     1      47.465 -28.333 -95.893  1.00  0.00     0.162 HD
BRANCH  12  14
HETATM   14  C17 UNL     1      48.452 -29.095 -94.189  1.00  0.00     0.084 C 
HETATM   15  C18 UNL     1      47.347 -30.142 -94.217  1.00  0.00     0.025 C 
HETATM   16  C19 UNL     1      47.683 -31.239 -93.228  1.00  0.00     0.002 C 
HETATM   17  C20 UNL     1      48.931 -31.906 -93.732  1.00  0.00     0.000 C 
HETATM   18  C21 UNL     1      50.096 -30.935 -93.780  1.00  0.00     0.002 C 
HETATM   19  C22 UNL     1      49.783 -29.689 -94.543  1.00  0.00     0.025 C 
ENDBRANCH  12  14
ENDBRANCH   9  10
ENDBRANCH   8   9
ENDBRANCH   7   8
ENDBRANCH   6   7
ENDBRANCH   5   6
ENDBRANCH   3   5
BRANCH   1  20
HETATM   20  C9  UNL     1      49.272 -30.920 -98.251  1.00  0.00     0.042 C 
HETATM   21  C8  UNL     1      48.239 -31.658 -97.448  1.00  0.00     0.024 C 
HETATM   22  C6  UNL     1      48.740 -33.071 -97.253  1.00  0.00    -0.012 C 
HETATM   23  C5  UNL     1      48.896 -33.690 -98.623  1.00  0.00     0.009 C 
HETATM   24  C7  UNL     1      50.089 -33.088 -96.560  1.00  0.00     0.014 C 
HETATM   25  C4  UNL     1      49.962 -32.956 -99.396  1.00  0.00    -0.012 C 
HETATM   26  C3  UNL     1      51.280 -32.924 -98.675  1.00  0.00     0.014 C 
HETATM   27  C23 UNL     1      49.495 -31.545 -99.609  1.00  0.00     0.024 C 
HETATM   28  C2  UNL     1      51.094 -32.268 -97.331  1.00  0.00    -0.042 C 
HETATM   29  C1  UNL     1      52.387 -32.251 -96.548  1.00  0.00     0.015 C 
HETATM   30  C24 UNL     1      50.550 -30.861 -97.468  1.00  0.00     0.028 C 
ENDBRANCH   1  20
TORSDOF 8
ENDMDL
MODEL 4
REMARK VINA RESULT: -8.617852226      1.600      5.142
REMARK  8 active torsions:
REMARK  status: ('A' for Active; 'I' for Inactive)
REMARK    1  A    between atoms: C9_9  and  C10_10 
REMARK       I    between atoms: C10_10  and  N1_12 
REMARK    2  A    between atoms: N1_12  and  C11_14 
REMARK    3  A    between atoms: C11_14  and  C12_15 
REMARK    4  A    between atoms: C12_15  and  C13_16 
REMARK    5  A    between atoms: C13_16  and  C14_17 
REMARK    6  A    between atoms: C14_17  and  C15_18 
REMARK    7  A    between atoms: C15_18  and  C16_19 
REMARK       I    between atoms: C16_19  and  N2_21 
REMARK    8  A    between atoms: N2_21  and  C17_23 
ROOT
HETATM    1  C10 UNL     1      48.660 -29.044 -98.888  1.00  0.00     0.226 C 
HETATM    2  O1  UNL     1      48.854 -28.411 -99.935  1.00  0.00    -0.273 OA
HETATM    3  N1  UNL     1      48.997 -30.388 -98.660  1.00  0.00    -0.360 N 
ATOM      4  H1  UNL     1      48.786 -30.819 -97.760  1.00  0.00     0.162 HD
ENDROOT
BRANCH   3   5
HETATM    5  C11 UNL     1      49.648 -31.171 -99.708  1.00  0.00     0.122 C 
BRANCH   5   6
HETATM    6  C12 UNL     1      49.484 -32.615 -99.416  1.00  0.00     0.020 C 
BRANCH   6   7
HETATM    7  C13 UNL     1      49.628 -32.994 -98.004  1.00  0.00     0.002 C 
BRANCH   7   8
HETATM    8  C14 UNL     1      50.951 -33.340 -97.488  1.00  0.00     0.009 C 
BRANCH   8   9
HETATM    9  C15 UNL     1      51.789 -32.251 -96.946  1.00  0.00     0.103 C 
BRANCH   9  10
HETATM   10  C16 UNL     1      50.976 -31.490 -95.897  1.00  0.00     0.217 C 
HETATM   11  O2  UNL     1      50.730 -30.287 -96.123  1.00  0.00    -0.274 OA
HETATM   12  N2  UNL     1      50.533 -32.131 -94.733  1.00  0.00    -0.356 N 
ATOM     13  H2  UNL     1      50.773 -33.115 -94.614  1.00  0.00     0.162 HD
BRANCH  12  14
HETATM   14  C17 UNL     1      49.766 -31.501 -93.697  1.00  0.00     0.084 C 
HETATM   15  C18 UNL     1      48.301 -31.656 -94.083  1.00  0.00     0.025 C 
HETATM   16  C19 UNL     1      47.442 -30.978 -93.036  1.00  0.00     0.002 C 
HETATM   17  C20 UNL     1      47.641 -31.739 -91.756  1.00  0.00     0.000 C 
HETATM   18  C21 UNL     1      49.085 -31.680 -91.297  1.00  0.00     0.002 C 
HETATM   19  C22 UNL     1      50.050 -32.108 -92.355  1.00  0.00     0.025 C 
ENDBRANCH  12  14
ENDBRANCH   9  10
ENDBRANCH   8   9
ENDBRANCH   7   8
ENDBRANCH   6   7
ENDBRANCH   5   6
ENDBRANCH   3   5
BRANCH   1  20
HETATM   20  C9  UNL     1      47.997 -28.309 -97.744  1.00  0.00     0.042 C 
HETATM   21  C8  UNL     1      46.982 -27.387 -98.358  1.00  0.00     0.024 C 
HETATM   22  C6  UNL     1      46.340 -26.607 -97.233  1.00  0.00    -0.012 C 
HETATM   23  C5  UNL     1      45.672 -27.603 -96.313  1.00  0.00     0.009 C 
HETATM   24  C7  UNL     1      47.374 -25.833 -96.437  1.00  0.00     0.014 C 
HETATM   25  C4  UNL     1      46.712 -28.492 -95.683  1.00  0.00    -0.012 C 
HETATM   26  C3  UNL     1      47.767 -27.716 -94.947  1.00  0.00     0.014 C 
HETATM   27  C23 UNL     1      47.370 -29.286 -96.774  1.00  0.00     0.024 C 
HETATM   28  C2  UNL     1      48.437 -26.761 -95.902  1.00  0.00    -0.042 C 
HETATM   29  C1  UNL     1      49.480 -25.925 -95.196  1.00  0.00     0.015 C 
HETATM   30  C24 UNL     1      49.060 -27.492 -97.074  1.00  0.00     0.028 C 
ENDBRANCH   1  20
TORSDOF 8
ENDMDL
MODEL 5
REMARK VINA RESULT: -8.516663997      1.977      5.079
REMARK  8 active torsions:
REMARK  status: ('A' for Active; 'I' for Inactive)
REMARK    1  A    between atoms: C9_9  and  C10_10 
REMARK       I    between atoms: C10_10  and  N1_12 
REMARK    2  A    between atoms: N1_12  and  C11_14 
REMARK    3  A    between atoms: C11_14  and  C12_15 
REMARK    4  A    between atoms: C12_15  and  C13_16 
REMARK    5  A    between atoms: C13_16  and  C14_17 
REMARK    6  A    between atoms: C14_17  and  C15_18 
REMARK    7  A    between atoms: C15_18  and  C16_19 
REMARK       I    between atoms: C16_19  and  N2_21 
REMARK    8  A    between atoms: N2_21  and  C17_23 
ROOT
HETATM    1  C10 UNL     1      49.034 -29.371 -98.612  1.00  0.00     0.226 C 
HETATM    2  O1  UNL     1      49.477 -28.751 -99.589  1.00  0.00    -0.273 OA
HETATM    3  N1  UNL     1      49.157 -30.751 -98.383  1.00  0.00    -0.360 N 
ATOM      4  H1  UNL     1      48.747 -31.166 -97.546  1.00  0.00     0.162 HD
ENDROOT
BRANCH   3   5
HETATM    5  C11 UNL     1      49.870 -31.595 -99.340  1.00  0.00     0.122 C 
BRANCH   5   6
HETATM    6  C12 UNL     1      51.006 -32.260 -98.656  1.00  0.00     0.020 C 
BRANCH   6   7
HETATM    7  C13 UNL     1      51.840 -31.387 -97.820  1.00  0.00     0.002 C 
BRANCH   7   8
HETATM    8  C14 UNL     1      51.902 -31.625 -96.379  1.00  0.00     0.009 C 
BRANCH   8   9
HETATM    9  C15 UNL     1      51.134 -30.725 -95.495  1.00  0.00     0.103 C 
BRANCH   9  10
HETATM   10  C16 UNL     1      50.235 -31.578 -94.597  1.00  0.00     0.217 C 
HETATM   11  O2  UNL     1      49.574 -32.485 -95.143  1.00  0.00    -0.274 OA
HETATM   12  N2  UNL     1      50.169 -31.338 -93.219  1.00  0.00    -0.356 N 
ATOM     13  H2  UNL     1      50.735 -30.579 -92.842  1.00  0.00     0.162 HD
BRANCH  12  14
HETATM   14  C17 UNL     1      49.359 -32.084 -92.300  1.00  0.00     0.084 C 
HETATM   15  C18 UNL     1      50.148 -32.183 -91.001  1.00  0.00     0.025 C 
HETATM   16  C19 UNL     1      49.351 -32.992 -90.000  1.00  0.00     0.002 C 
HETATM   17  C20 UNL     1      48.109 -32.203 -89.699  1.00  0.00     0.000 C 
HETATM   18  C21 UNL     1      47.260 -32.014 -90.942  1.00  0.00     0.002 C 
HETATM   19  C22 UNL     1      48.024 -31.433 -92.086  1.00  0.00     0.025 C 
ENDBRANCH  12  14
ENDBRANCH   9  10
ENDBRANCH   8   9
ENDBRANCH   7   8
ENDBRANCH   6   7
ENDBRANCH   5   6
ENDBRANCH   3   5
BRANCH   1  20
HETATM   20  C9  UNL     1      48.287 -28.576 -97.564  1.00  0.00     0.042 C 
HETATM   21  C8  UNL     1      47.279 -27.739 -98.300  1.00  0.00     0.024 C 
HETATM   22  C6  UNL     1      46.553 -26.899 -97.274  1.00  0.00    -0.012 C 
HETATM   23  C5  UNL     1      45.867 -27.845 -96.315  1.00  0.00     0.009 C 
HETATM   24  C7  UNL     1      47.517 -26.031 -96.488  1.00  0.00     0.014 C 
HETATM   25  C4  UNL     1      46.899 -28.647 -95.564  1.00  0.00    -0.012 C 
HETATM   26  C3  UNL     1      47.887 -27.781 -94.837  1.00  0.00     0.014 C 
HETATM   27  C23 UNL     1      47.639 -29.497 -96.555  1.00  0.00     0.024 C 
HETATM   28  C2  UNL     1      48.578 -26.878 -95.828  1.00  0.00    -0.042 C 
HETATM   29  C1  UNL     1      49.555 -25.955 -95.136  1.00  0.00     0.015 C 
HETATM   30  C24 UNL     1      49.286 -27.673 -96.906  1.00  0.00     0.028 C 
ENDBRANCH   1  20
TORSDOF 8
ENDMDL
