MODEL 1
REMARK VINA RESULT: -7.812761278      0.000      0.000
REMARK  7 active torsions:
REMARK  status: ('A' for Active; 'I' for Inactive)
REMARK    1  A    between atoms: C5_5  and  C6_6 
REMARK    2  A    between atoms: C7_7  and  C8_8 
REMARK    3  A    between atoms: N3_21  and  C16_22 
REMARK    4  A    between atoms: C16_22  and  C17_23 
REMARK    5  A    between atoms: C21_28  and  N4_29 
REMARK    6  A    between atoms: N4_29  and  C22_31 
REMARK    7  A    between atoms: C22_31  and  C23_32 
ROOT
HETATM    1  C1  UNL     1      12.522  35.636  57.116  1.00  0.00     0.103 C 
HETATM    2  C2  UNL     1      11.461  36.189  56.872  1.00  0.00    -0.146 C 
HETATM    3  C3  UNL     1      10.212  36.835  56.562  1.00  0.00     0.032 A 
HETATM    4  C4  UNL     1       9.730  37.838  57.382  1.00  0.00     0.044 A 
HETATM    5  C5  UNL     1       8.541  38.441  57.072  1.00  0.00     0.041 A 
HETATM    6  C19 UNL     1       7.862  38.018  55.940  1.00  0.00     0.055 A 
HETATM    7 CL1  UNL     1       6.338  38.768  55.515  1.00  0.00    -0.083 Cl
HETATM    8  C20 UNL     1       8.347  37.014  55.123  1.00  0.00     0.056 A 
HETATM    9  C21 UNL     1       9.554  36.402  55.436  1.00  0.00     0.047 A 
ENDROOT
BRANCH   9  10
HETATM   10  N4  UNL     1      10.047  35.373  54.594  1.00  0.00    -0.389 N 
ATOM     11  H4  UNL     1      10.865  35.554  54.012  1.00  0.00     0.159 HD
BRANCH  10  12
HETATM   12  C22 UNL     1       9.421  34.086  54.541  1.00  0.00     0.119 C 
BRANCH  12  13
HETATM   13  C23 UNL     1      10.389  32.949  54.653  1.00  0.00     0.015 C 
HETATM   14  C24 UNL     1      11.811  33.366  54.361  1.00  0.00     0.006 C 
ENDBRANCH  12  13
ENDBRANCH  10  12
ENDBRANCH   9  10
BRANCH   5  15
HETATM   15  C6  UNL     1       8.034  39.488  57.925  1.00  0.00    -0.058 C 
HETATM   16  C7  UNL     1       7.597  40.352  58.647  1.00  0.00    -0.043 C 
BRANCH  16  17
HETATM   17  C8  UNL     1       7.051  41.378  59.508  1.00  0.00     0.095 A 
HETATM   18  N1  UNL     1       7.688  42.297  60.243  1.00  0.00    -0.334 N 
HETATM   19  C9  UNL     1       6.811  43.075  60.911  1.00  0.00     0.129 A 
ATOM     20  H1  UNL     1       8.702  42.396  60.292  1.00  0.00     0.168 HD
HETATM   21  C10 UNL     1       5.554  42.642  60.594  1.00  0.00     0.085 A 
HETATM   22  N3  UNL     1       6.973  44.123  61.766  1.00  0.00    -0.284 N 
HETATM   23  C11 UNL     1       5.702  41.579  59.718  1.00  0.00    -0.007 A 
HETATM   24  C13 UNL     1       4.439  43.242  61.124  1.00  0.00     0.265 A 
HETATM   25  C12 UNL     1       4.565  40.823  59.132  1.00  0.00     0.052 C 
HETATM   26  O1  UNL     1       3.308  42.811  60.805  1.00  0.00    -0.267 OA
HETATM   27  N2  UNL     1       4.623  44.276  61.968  1.00  0.00    -0.270 N 
HETATM   28  C14 UNL     1       3.478  44.946  62.555  1.00  0.00     0.164 C 
HETATM   29  C15 UNL     1       5.867  44.690  62.269  1.00  0.00     0.332 A 
HETATM   30  O2  UNL     1       5.990  45.655  63.060  1.00  0.00    -0.246 OA
BRANCH  22  31
HETATM   31  C16 UNL     1       8.307  44.572  62.108  1.00  0.00     0.135 C 
BRANCH  31  32
HETATM   32  C17 UNL     1       9.016  45.283  61.005  1.00  0.00     0.016 C 
HETATM   33  C18 UNL     1       8.272  46.424  60.399  1.00  0.00     0.006 C 
ENDBRANCH  31  32
ENDBRANCH  22  31
ENDBRANCH  16  17
ENDBRANCH   5  15
TORSDOF 7
ENDMDL
MODEL 2
REMARK VINA RESULT: -7.332377086      3.226      4.576
REMARK  7 active torsions:
REMARK  status: ('A' for Active; 'I' for Inactive)
REMARK    1  A    between atoms: C5_5  and  C6_6 
REMARK    2  A    between atoms: C7_7  and  C8_8 
REMARK    3  A    between atoms: N3_21  and  C16_22 
REMARK    4  A    between atoms: C16_22  and  C17_23 
REMARK    5  A    between atoms: C21_28  and  N4_29 
REMARK    6  A    between atoms: N4_29  and  C22_31 
REMARK    7  A    between atoms: C22_31  and  C23_32 
ROOT
HETATM    1  C1  UNL     1       4.086  38.326  51.735  1.00  0.00     0.103 C 
HETATM    2  C2  UNL     1       4.917  38.325  52.629  1.00  0.00    -0.146 C 
HETATM    3  C3  UNL     1       5.897  38.301  53.684  1.00  0.00     0.032 A 
HETATM    4  C4  UNL     1       6.063  39.406  54.499  1.00  0.00     0.044 A 
HETATM    5  C5  UNL     1       6.998  39.366  55.496  1.00  0.00     0.041 A 
HETATM    6  C19 UNL     1       7.749  38.211  55.650  1.00  0.00     0.055 A 
HETATM    7 CL1  UNL     1       8.956  38.127  56.918  1.00  0.00    -0.083 Cl
HETATM    8  C20 UNL     1       7.581  37.109  54.833  1.00  0.00     0.056 A 
HETATM    9  C21 UNL     1       6.631  37.148  53.821  1.00  0.00     0.047 A 
ENDROOT
BRANCH   9  10
HETATM   10  N4  UNL     1       6.462  36.015  52.987  1.00  0.00    -0.389 N 
ATOM     11  H4  UNL     1       6.717  36.078  52.001  1.00  0.00     0.159 HD
BRANCH  10  12
HETATM   12  C22 UNL     1       5.942  34.781  53.496  1.00  0.00     0.119 C 
BRANCH  12  13
HETATM   13  C23 UNL     1       4.453  34.669  53.377  1.00  0.00     0.015 C 
HETATM   14  C24 UNL     1       3.733  35.141  54.619  1.00  0.00     0.006 C 
ENDBRANCH  12  13
ENDBRANCH  10  12
ENDBRANCH   9  10
BRANCH   5  15
HETATM   15  C6  UNL     1       7.175  40.516  56.349  1.00  0.00    -0.058 C 
HETATM   16  C7  UNL     1       7.342  41.480  57.057  1.00  0.00    -0.043 C 
BRANCH  16  17
HETATM   17  C8  UNL     1       7.565  42.625  57.912  1.00  0.00     0.095 A 
HETATM   18  N1  UNL     1       7.601  43.926  57.596  1.00  0.00    -0.334 N 
HETATM   19  C9  UNL     1       7.837  44.682  58.688  1.00  0.00     0.129 A 
ATOM     20  H1  UNL     1       7.469  44.296  56.655  1.00  0.00     0.168 HD
HETATM   21  C10 UNL     1       7.957  43.837  59.755  1.00  0.00     0.085 A 
HETATM   22  N3  UNL     1       7.959  46.026  58.871  1.00  0.00    -0.284 N 
HETATM   23  C11 UNL     1       7.788  42.549  59.271  1.00  0.00    -0.007 A 
HETATM   24  C13 UNL     1       8.203  44.314  61.019  1.00  0.00     0.265 A 
HETATM   25  C12 UNL     1       7.846  41.331  60.118  1.00  0.00     0.052 C 
HETATM   26  O1  UNL     1       8.305  43.501  61.965  1.00  0.00    -0.267 OA
HETATM   27  N2  UNL     1       8.320  45.646  61.175  1.00  0.00    -0.270 N 
HETATM   28  C14 UNL     1       8.579  46.202  62.489  1.00  0.00     0.164 C 
HETATM   29  C15 UNL     1       8.199  46.465  60.115  1.00  0.00     0.332 A 
HETATM   30  O2  UNL     1       8.317  47.698  60.308  1.00  0.00    -0.246 OA
BRANCH  22  31
HETATM   31  C16 UNL     1       7.842  46.919  57.735  1.00  0.00     0.135 C 
BRANCH  31  32
HETATM   32  C17 UNL     1       6.443  47.335  57.425  1.00  0.00     0.016 C 
HETATM   33  C18 UNL     1       5.899  46.829  56.133  1.00  0.00     0.006 C 
ENDBRANCH  31  32
ENDBRANCH  22  31
ENDBRANCH  16  17
ENDBRANCH   5  15
TORSDOF 7
ENDMDL
MODEL 3
REMARK VINA RESULT: -7.163342036      2.058      2.816
REMARK  7 active torsions:
REMARK  status: ('A' for Active; 'I' for Inactive)
REMARK    1  A    between atoms: C5_5  and  C6_6 
REMARK    2  A    between atoms: C7_7  and  C8_8 
REMARK    3  A    between atoms: N3_21  and  C16_22 
REMARK    4  A    between atoms: C16_22  and  C17_23 
REMARK    5  A    between atoms: C21_28  and  N4_29 
REMARK    6  A    between atoms: N4_29  and  C22_31 
REMARK    7  A    between atoms: C22_31  and  C23_32 
ROOT
HETATM    1  C1  UNL     1      10.575  36.920  56.866  1.00  0.00     0.103 C 
HETATM    2  C2  UNL     1       9.485  37.468  56.833  1.00  0.00    -0.146 C 
HETATM    3  C3  UNL     1       8.197  38.109  56.771  1.00  0.00     0.032 A 
HETATM    4  C4  UNL     1       7.820  39.000  57.759  1.00  0.00     0.044 A 
HETATM    5  C5  UNL     1       6.593  39.600  57.685  1.00  0.00     0.041 A 
HETATM    6  C19 UNL     1       5.770  39.288  56.614  1.00  0.00     0.055 A 
HETATM    7 CL1  UNL     1       4.193  40.039  56.488  1.00  0.00    -0.083 Cl
HETATM    8  C20 UNL     1       6.150  38.397  55.628  1.00  0.00     0.056 A 
HETATM    9  C21 UNL     1       7.396  37.788  55.703  1.00  0.00     0.047 A 
ENDROOT
BRANCH   9  10
HETATM   10  N4  UNL     1       7.780  36.874  54.689  1.00  0.00    -0.389 N 
ATOM     11  H4  UNL     1       8.705  36.445  54.728  1.00  0.00     0.159 HD
BRANCH  10  12
HETATM   12  C22 UNL     1       6.899  36.540  53.609  1.00  0.00     0.119 C 
BRANCH  12  13
HETATM   13  C23 UNL     1       6.426  35.120  53.646  1.00  0.00     0.015 C 
HETATM   14  C24 UNL     1       4.944  35.008  53.918  1.00  0.00     0.006 C 
ENDBRANCH  12  13
ENDBRANCH  10  12
ENDBRANCH   9  10
BRANCH   5  15
HETATM   15  C6  UNL     1       6.195  40.530  58.713  1.00  0.00    -0.058 C 
HETATM   16  C7  UNL     1       5.844  41.309  59.566  1.00  0.00    -0.043 C 
BRANCH  16  17
HETATM   17  C8  UNL     1       5.411  42.255  60.571  1.00  0.00     0.095 A 
HETATM   18  N1  UNL     1       6.117  43.192  61.215  1.00  0.00    -0.334 N 
HETATM   19  C9  UNL     1       5.340  43.873  62.082  1.00  0.00     0.129 A 
ATOM     20  H1  UNL     1       7.112  43.367  61.070  1.00  0.00     0.168 HD
HETATM   21  C10 UNL     1       4.077  43.357  61.995  1.00  0.00     0.085 A 
HETATM   22  N3  UNL     1       5.596  44.896  62.944  1.00  0.00    -0.284 N 
HETATM   23  C11 UNL     1       4.120  42.344  61.051  1.00  0.00    -0.007 A 
HETATM   24  C13 UNL     1       3.052  43.848  62.764  1.00  0.00     0.265 A 
HETATM   25  C12 UNL     1       2.944  41.525  60.659  1.00  0.00     0.052 C 
HETATM   26  O1  UNL     1       1.912  43.343  62.650  1.00  0.00    -0.267 OA
HETATM   27  N2  UNL     1       3.329  44.859  63.610  1.00  0.00    -0.270 N 
HETATM   28  C14 UNL     1       2.281  45.415  64.444  1.00  0.00     0.164 C 
HETATM   29  C15 UNL     1       4.576  45.356  63.683  1.00  0.00     0.332 A 
HETATM   30  O2  UNL     1       4.788  46.296  64.485  1.00  0.00    -0.246 OA
BRANCH  22  31
HETATM   31  C16 UNL     1       6.938  45.434  63.042  1.00  0.00     0.135 C 
BRANCH  31  32
HETATM   32  C17 UNL     1       7.857  44.637  63.906  1.00  0.00     0.016 C 
HETATM   33  C18 UNL     1       9.287  45.053  63.870  1.00  0.00     0.006 C 
ENDBRANCH  31  32
ENDBRANCH  22  31
ENDBRANCH  16  17
ENDBRANCH   5  15
TORSDOF 7
ENDMDL
MODEL 4
REMARK VINA RESULT: -6.986355657      1.987      2.735
REMARK  7 active torsions:
REMARK  status: ('A' for Active; 'I' for Inactive)
REMARK    1  A    between atoms: C5_5  and  C6_6 
REMARK    2  A    between atoms: C7_7  and  C8_8 
REMARK    3  A    between atoms: N3_21  and  C16_22 
REMARK    4  A    between atoms: C16_22  and  C17_23 
REMARK    5  A    between atoms: C21_28  and  N4_29 
REMARK    6  A    between atoms: N4_29  and  C22_31 
REMARK    7  A    between atoms: C22_31  and  C23_32 
ROOT
HETATM    1  C1  UNL     1       9.835  36.299  55.413  1.00  0.00     0.103 C 
HETATM    2  C2  UNL     1       8.959  37.148  55.453  1.00  0.00    -0.146 C 
HETATM    3  C3  UNL     1       7.923  38.148  55.478  1.00  0.00     0.032 A 
HETATM    4  C4  UNL     1       7.804  38.994  56.565  1.00  0.00     0.044 A 
HETATM    5  C5  UNL     1       6.815  39.938  56.571  1.00  0.00     0.041 A 
HETATM    6  C19 UNL     1       5.963  40.009  55.479  1.00  0.00     0.055 A 
HETATM    7 CL1  UNL     1       4.686  41.207  55.455  1.00  0.00    -0.083 Cl
HETATM    8  C20 UNL     1       6.085  39.161  54.395  1.00  0.00     0.056 A 
HETATM    9  C21 UNL     1       7.090  38.203  54.387  1.00  0.00     0.047 A 
ENDROOT
BRANCH   9  10
HETATM   10  N4  UNL     1       7.210  37.336  53.271  1.00  0.00    -0.389 N 
ATOM     11  H4  UNL     1       8.119  36.928  53.052  1.00  0.00     0.159 HD
BRANCH  10  12
HETATM   12  C22 UNL     1       6.083  37.020  52.445  1.00  0.00     0.119 C 
BRANCH  12  13
HETATM   13  C23 UNL     1       5.793  35.552  52.370  1.00  0.00     0.015 C 
HETATM   14  C24 UNL     1       6.452  34.772  53.484  1.00  0.00     0.006 C 
ENDBRANCH  12  13
ENDBRANCH  10  12
ENDBRANCH   9  10
BRANCH   5  15
HETATM   15  C6  UNL     1       6.686  40.824  57.703  1.00  0.00    -0.058 C 
HETATM   16  C7  UNL     1       6.563  41.555  58.656  1.00  0.00    -0.043 C 
BRANCH  16  17
HETATM   17  C8  UNL     1       6.390  42.433  59.792  1.00  0.00     0.095 A 
HETATM   18  N1  UNL     1       7.298  42.869  60.674  1.00  0.00    -0.334 N 
HETATM   19  C9  UNL     1       6.731  43.679  61.592  1.00  0.00     0.129 A 
ATOM     20  H1  UNL     1       8.287  42.622  60.654  1.00  0.00     0.168 HD
HETATM   21  C10 UNL     1       5.400  43.772  61.292  1.00  0.00     0.085 A 
HETATM   22  N3  UNL     1       7.233  44.352  62.664  1.00  0.00    -0.284 N 
HETATM   23  C11 UNL     1       5.185  42.992  60.167  1.00  0.00    -0.007 A 
HETATM   24  C13 UNL     1       4.549  44.533  62.054  1.00  0.00     0.265 A 
HETATM   25  C12 UNL     1       3.861  42.825  59.515  1.00  0.00     0.052 C 
HETATM   26  O1  UNL     1       3.339  44.588  61.740  1.00  0.00    -0.267 OA
HETATM   27  N2  UNL     1       5.068  45.189  63.109  1.00  0.00    -0.270 N 
HETATM   28  C14 UNL     1       4.212  46.008  63.946  1.00  0.00     0.164 C 
HETATM   29  C15 UNL     1       6.379  45.087  63.391  1.00  0.00     0.332 A 
HETATM   30  O2  UNL     1       6.818  45.715  64.384  1.00  0.00    -0.246 OA
BRANCH  22  31
HETATM   31  C16 UNL     1       8.641  44.243  62.986  1.00  0.00     0.135 C 
BRANCH  31  32
HETATM   32  C17 UNL     1       9.486  45.331  62.416  1.00  0.00     0.016 C 
HETATM   33  C18 UNL     1      10.676  45.709  63.230  1.00  0.00     0.006 C 
ENDBRANCH  31  32
ENDBRANCH  22  31
ENDBRANCH  16  17
ENDBRANCH   5  15
TORSDOF 7
ENDMDL
MODEL 5
REMARK VINA RESULT: -6.897979328      2.561      3.435
REMARK  7 active torsions:
REMARK  status: ('A' for Active; 'I' for Inactive)
REMARK    1  A    between atoms: C5_5  and  C6_6 
REMARK    2  A    between atoms: C7_7  and  C8_8 
REMARK    3  A    between atoms: N3_21  and  C16_22 
REMARK    4  A    between atoms: C16_22  and  C17_23 
REMARK    5  A    between atoms: C21_28  and  N4_29 
REMARK    6  A    between atoms: N4_29  and  C22_31 
REMARK    7  A    between atoms: C22_31  and  C23_32 
ROOT
HETATM    1  C1  UNL     1      10.200  35.121  54.990  1.00  0.00     0.103 C 
HETATM    2  C2  UNL     1       9.306  35.952  54.995  1.00  0.00    -0.146 C 
HETATM    3  C3  UNL     1       8.244  36.923  54.982  1.00  0.00     0.032 A 
HETATM    4  C4  UNL     1       8.366  38.092  55.711  1.00  0.00     0.044 A 
HETATM    5  C5  UNL     1       7.346  39.004  55.688  1.00  0.00     0.041 A 
HETATM    6  C19 UNL     1       6.222  38.717  54.928  1.00  0.00     0.055 A 
HETATM    7 CL1  UNL     1       4.899  39.864  54.876  1.00  0.00    -0.083 Cl
HETATM    8  C20 UNL     1       6.104  37.548  54.202  1.00  0.00     0.056 A 
HETATM    9  C21 UNL     1       7.138  36.622  54.224  1.00  0.00     0.047 A 
ENDROOT
BRANCH   9  10
HETATM   10  N4  UNL     1       7.011  35.424  53.476  1.00  0.00    -0.389 N 
ATOM     11  H4  UNL     1       7.774  35.135  52.864  1.00  0.00     0.159 HD
BRANCH  10  12
HETATM   12  C22 UNL     1       5.835  34.611  53.561  1.00  0.00     0.119 C 
BRANCH  12  13
HETATM   13  C23 UNL     1       6.122  33.186  53.922  1.00  0.00     0.015 C 
HETATM   14  C24 UNL     1       7.530  32.769  53.570  1.00  0.00     0.006 C 
ENDBRANCH  12  13
ENDBRANCH  10  12
ENDBRANCH   9  10
BRANCH   5  15
HETATM   15  C6  UNL     1       7.469  40.224  56.446  1.00  0.00    -0.058 C 
HETATM   16  C7  UNL     1       7.584  41.237  57.095  1.00  0.00    -0.043 C 
BRANCH  16  17
HETATM   17  C8  UNL     1       7.717  42.436  57.892  1.00  0.00     0.095 A 
HETATM   18  N1  UNL     1       7.751  43.716  57.501  1.00  0.00    -0.334 N 
HETATM   19  C9  UNL     1       7.887  44.542  58.559  1.00  0.00     0.129 A 
ATOM     20  H1  UNL     1       7.682  44.026  56.532  1.00  0.00     0.168 HD
HETATM   21  C10 UNL     1       7.944  43.764  59.682  1.00  0.00     0.085 A 
HETATM   22  N3  UNL     1       7.968  45.897  58.668  1.00  0.00    -0.284 N 
HETATM   23  C11 UNL     1       7.839  42.447  59.267  1.00  0.00    -0.007 A 
HETATM   24  C13 UNL     1       8.084  44.322  60.929  1.00  0.00     0.265 A 
HETATM   25  C12 UNL     1       7.857  41.282  60.189  1.00  0.00     0.052 C 
HETATM   26  O1  UNL     1       8.130  43.570  61.928  1.00  0.00    -0.267 OA
HETATM   27  N2  UNL     1       8.162  45.664  61.011  1.00  0.00    -0.270 N 
HETATM   28  C14 UNL     1       8.309  46.303  62.305  1.00  0.00     0.164 C 
HETATM   29  C15 UNL     1       8.104  46.414  59.897  1.00  0.00     0.332 A 
HETATM   30  O2  UNL     1       8.183  47.660  60.022  1.00  0.00    -0.246 OA
BRANCH  22  31
HETATM   31  C16 UNL     1       7.919  46.718  57.474  1.00  0.00     0.135 C 
BRANCH  31  32
HETATM   32  C17 UNL     1       6.589  46.740  56.801  1.00  0.00     0.016 C 
HETATM   33  C18 UNL     1       5.497  47.406  57.566  1.00  0.00     0.006 C 
ENDBRANCH  31  32
ENDBRANCH  22  31
ENDBRANCH  16  17
ENDBRANCH   5  15
TORSDOF 7
ENDMDL
