MODEL 1
REMARK VINA RESULT: -8.333726463      0.000      0.000
REMARK  3 active torsions:
REMARK  status: ('A' for Active; 'I' for Inactive)
REMARK    1  A    between atoms: C4_4  and  C5_5 
REMARK    2  A    between atoms: C5_5  and  C7_7 
REMARK    3  A    between atoms: C7_7  and  N1_8 
ROOT
HETATM    1  C1  UNL     1      -2.126 -27.219 -12.237  1.00  0.00     0.027 C 
HETATM    2  C2  UNL     1      -3.214 -26.848 -12.608  1.00  0.00    -0.026 C 
HETATM    3  C3  UNL     1      -4.491 -26.414 -13.069  1.00  0.00    -0.011 C 
HETATM    4  C4  UNL     1      -5.568 -26.031 -13.468  1.00  0.00    -0.056 C 
ENDROOT
BRANCH   4   5
HETATM    5  C5  UNL     1      -6.836 -25.554 -13.944  1.00  0.00     0.005 C 
HETATM    6  C6  UNL     1      -7.667 -24.860 -13.193  1.00  0.00     0.030 C 
BRANCH   5   7
HETATM    7  C7  UNL     1      -7.205 -25.870 -15.343  1.00  0.00     0.174 C 
BRANCH   7   8
HETATM    8  N1  UNL     1      -8.499 -26.513 -15.437  1.00  0.00    -0.359 N 
HETATM    9  C8  UNL     1      -9.504 -25.988 -16.172  1.00  0.00     0.092 A 
HETATM   10  C9  UNL     1     -10.702 -26.655 -16.214  1.00  0.00     0.031 A 
HETATM   11  C10 UNL     1     -10.898 -27.824 -15.540  1.00  0.00     0.001 A 
HETATM   12  C11 UNL     1     -11.981 -28.663 -15.426  1.00  0.00    -0.027 A 
HETATM   13  C15 UNL     1      -9.858 -28.362 -14.783  1.00  0.00     0.059 A 
HETATM   14  C12 UNL     1     -13.304 -28.460 -16.078  1.00  0.00     0.051 C 
HETATM   15  C13 UNL     1     -11.600 -29.694 -14.612  1.00  0.00     0.012 A 
HETATM   16  C14 UNL     1     -12.421 -30.854 -14.189  1.00  0.00     0.068 C 
HETATM   17  N2  UNL     1     -10.314 -29.501 -14.230  1.00  0.00    -0.358 N 
ATOM     18  H2  UNL     1      -9.778 -30.119 -13.621  1.00  0.00     0.166 HD
HETATM   19  C16 UNL     1      -8.678 -27.663 -14.769  1.00  0.00     0.121 A 
ENDBRANCH   7   8
ENDBRANCH   5   7
ENDBRANCH   4   5
TORSDOF 3
ENDMDL
MODEL 2
REMARK VINA RESULT: -8.278078072      0.940      1.833
REMARK  3 active torsions:
REMARK  status: ('A' for Active; 'I' for Inactive)
REMARK    1  A    between atoms: C4_4  and  C5_5 
REMARK    2  A    between atoms: C5_5  and  C7_7 
REMARK    3  A    between atoms: C7_7  and  N1_8 
ROOT
HETATM    1  C1  UNL     1      -2.085 -27.207 -12.056  1.00  0.00     0.027 C 
HETATM    2  C2  UNL     1      -3.114 -26.777 -12.519  1.00  0.00    -0.026 C 
HETATM    3  C3  UNL     1      -4.321 -26.246 -13.059  1.00  0.00    -0.011 C 
HETATM    4  C4  UNL     1      -5.352 -25.790 -13.502  1.00  0.00    -0.056 C 
ENDROOT
BRANCH   4   5
HETATM    5  C5  UNL     1      -6.584 -25.250 -14.004  1.00  0.00     0.005 C 
HETATM    6  C6  UNL     1      -7.288 -24.348 -13.351  1.00  0.00     0.030 C 
BRANCH   5   7
HETATM    7  C7  UNL     1      -7.064 -25.743 -15.315  1.00  0.00     0.174 C 
BRANCH   7   8
HETATM    8  N1  UNL     1      -8.119 -26.726 -15.178  1.00  0.00    -0.359 N 
HETATM    9  C8  UNL     1      -7.929 -27.887 -14.513  1.00  0.00     0.092 A 
HETATM   10  C9  UNL     1      -8.976 -28.770 -14.424  1.00  0.00     0.031 A 
HETATM   11  C10 UNL     1     -10.190 -28.504 -14.985  1.00  0.00     0.001 A 
HETATM   12  C11 UNL     1     -11.368 -29.210 -15.034  1.00  0.00    -0.027 A 
HETATM   13  C15 UNL     1     -10.381 -27.304 -15.670  1.00  0.00     0.059 A 
HETATM   14  C12 UNL     1     -11.599 -30.549 -14.424  1.00  0.00     0.051 C 
HETATM   15  C13 UNL     1     -12.259 -28.448 -15.738  1.00  0.00     0.012 A 
HETATM   16  C14 UNL     1     -13.668 -28.780 -16.059  1.00  0.00     0.068 C 
HETATM   17  N2  UNL     1     -11.650 -27.298 -16.118  1.00  0.00    -0.358 N 
ATOM     18  H2  UNL     1     -12.085 -26.548 -16.655  1.00  0.00     0.166 HD
HETATM   19  C16 UNL     1      -9.309 -26.452 -15.735  1.00  0.00     0.121 A 
ENDBRANCH   7   8
ENDBRANCH   5   7
ENDBRANCH   4   5
TORSDOF 3
ENDMDL
MODEL 3
REMARK VINA RESULT: -8.115297556      1.847      2.666
REMARK  3 active torsions:
REMARK  status: ('A' for Active; 'I' for Inactive)
REMARK    1  A    between atoms: C4_4  and  C5_5 
REMARK    2  A    between atoms: C5_5  and  C7_7 
REMARK    3  A    between atoms: C7_7  and  N1_8 
ROOT
HETATM    1  C1  UNL     1      -6.574 -31.733 -15.711  1.00  0.00     0.027 C 
HETATM    2  C2  UNL     1      -6.640 -30.591 -15.322  1.00  0.00    -0.026 C 
HETATM    3  C3  UNL     1      -6.722 -29.253 -14.840  1.00  0.00    -0.011 C 
HETATM    4  C4  UNL     1      -6.810 -28.118 -14.427  1.00  0.00    -0.056 C 
ENDROOT
BRANCH   4   5
HETATM    5  C5  UNL     1      -6.938 -26.773 -13.940  1.00  0.00     0.005 C 
HETATM    6  C6  UNL     1      -6.276 -26.325 -12.894  1.00  0.00     0.030 C 
BRANCH   5   7
HETATM    7  C7  UNL     1      -7.861 -25.869 -14.663  1.00  0.00     0.174 C 
BRANCH   7   8
HETATM    8  N1  UNL     1      -9.114 -26.515 -14.995  1.00  0.00    -0.359 N 
HETATM    9  C8  UNL     1      -9.692 -26.370 -16.207  1.00  0.00     0.092 A 
HETATM   10  C9  UNL     1     -10.879 -27.014 -16.448  1.00  0.00     0.031 A 
HETATM   11  C10 UNL     1     -11.482 -27.790 -15.502  1.00  0.00     0.001 A 
HETATM   12  C11 UNL     1     -12.645 -28.521 -15.500  1.00  0.00    -0.027 A 
HETATM   13  C15 UNL     1     -10.881 -27.937 -14.252  1.00  0.00     0.059 A 
HETATM   14  C12 UNL     1     -13.595 -28.639 -16.641  1.00  0.00     0.051 C 
HETATM   15  C13 UNL     1     -12.746 -29.103 -14.266  1.00  0.00     0.012 A 
HETATM   16  C14 UNL     1     -13.830 -29.989 -13.777  1.00  0.00     0.068 C 
HETATM   17  N2  UNL     1     -11.673 -28.742 -13.520  1.00  0.00    -0.358 N 
ATOM     18  H2  UNL     1     -11.495 -29.034 -12.560  1.00  0.00     0.166 HD
HETATM   19  C16 UNL     1      -9.696 -27.277 -14.054  1.00  0.00     0.121 A 
ENDBRANCH   7   8
ENDBRANCH   5   7
ENDBRANCH   4   5
TORSDOF 3
ENDMDL
MODEL 4
REMARK VINA RESULT: -8.110777148      1.634      7.294
REMARK  3 active torsions:
REMARK  status: ('A' for Active; 'I' for Inactive)
REMARK    1  A    between atoms: C4_4  and  C5_5 
REMARK    2  A    between atoms: C5_5  and  C7_7 
REMARK    3  A    between atoms: C7_7  and  N1_8 
ROOT
HETATM    1  C1  UNL     1     -15.536 -28.944 -17.915  1.00  0.00     0.027 C 
HETATM    2  C2  UNL     1     -14.591 -28.758 -17.187  1.00  0.00    -0.026 C 
HETATM    3  C3  UNL     1     -13.464 -28.526 -16.346  1.00  0.00    -0.011 C 
HETATM    4  C4  UNL     1     -12.497 -28.340 -15.641  1.00  0.00    -0.056 C 
ENDROOT
BRANCH   4   5
HETATM    5  C5  UNL     1     -11.339 -28.140 -14.816  1.00  0.00     0.005 C 
HETATM    6  C6  UNL     1     -11.376 -27.469 -13.683  1.00  0.00     0.030 C 
BRANCH   5   7
HETATM    7  C7  UNL     1     -10.059 -28.722 -15.279  1.00  0.00     0.174 C 
BRANCH   7   8
HETATM    8  N1  UNL     1      -8.918 -27.924 -14.880  1.00  0.00    -0.359 N 
HETATM    9  C8  UNL     1      -8.955 -26.574 -14.883  1.00  0.00     0.092 A 
HETATM   10  C9  UNL     1      -7.834 -25.886 -14.491  1.00  0.00     0.031 A 
HETATM   11  C10 UNL     1      -6.696 -26.529 -14.101  1.00  0.00     0.001 A 
HETATM   12  C11 UNL     1      -5.471 -26.076 -13.674  1.00  0.00    -0.027 A 
HETATM   13  C15 UNL     1      -6.663 -27.923 -14.099  1.00  0.00     0.059 A 
HETATM   14  C12 UNL     1      -5.080 -24.647 -13.529  1.00  0.00     0.051 C 
HETATM   15  C13 UNL     1      -4.707 -27.181 -13.417  1.00  0.00     0.012 A 
HETATM   16  C14 UNL     1      -3.306 -27.211 -12.932  1.00  0.00     0.068 C 
HETATM   17  N2  UNL     1      -5.439 -28.292 -13.677  1.00  0.00    -0.358 N 
ATOM     18  H2  UNL     1      -5.114 -29.253 -13.571  1.00  0.00     0.166 HD
HETATM   19  C16 UNL     1      -7.804 -28.570 -14.498  1.00  0.00     0.121 A 
ENDBRANCH   7   8
ENDBRANCH   5   7
ENDBRANCH   4   5
TORSDOF 3
ENDMDL
MODEL 5
REMARK VINA RESULT: -8.080993737      1.465      1.805
REMARK  3 active torsions:
REMARK  status: ('A' for Active; 'I' for Inactive)
REMARK    1  A    between atoms: C4_4  and  C5_5 
REMARK    2  A    between atoms: C5_5  and  C7_7 
REMARK    3  A    between atoms: C7_7  and  N1_8 
ROOT
HETATM    1  C1  UNL     1      -2.171 -27.214 -12.077  1.00  0.00     0.027 C 
HETATM    2  C2  UNL     1      -3.183 -26.744 -12.538  1.00  0.00    -0.026 C 
HETATM    3  C3  UNL     1      -4.387 -26.189 -13.060  1.00  0.00    -0.011 C 
HETATM    4  C4  UNL     1      -5.419 -25.733 -13.501  1.00  0.00    -0.056 C 
ENDROOT
BRANCH   4   5
HETATM    5  C5  UNL     1      -6.651 -25.215 -14.026  1.00  0.00     0.005 C 
HETATM    6  C6  UNL     1      -7.353 -24.283 -13.416  1.00  0.00     0.030 C 
BRANCH   5   7
HETATM    7  C7  UNL     1      -7.133 -25.770 -15.312  1.00  0.00     0.174 C 
BRANCH   7   8
HETATM    8  N1  UNL     1      -8.030 -26.891 -15.123  1.00  0.00    -0.359 N 
HETATM    9  C8  UNL     1      -9.361 -26.783 -15.334  1.00  0.00     0.092 A 
HETATM   10  C9  UNL     1     -10.147 -27.889 -15.134  1.00  0.00     0.031 A 
HETATM   11  C10 UNL     1      -9.622 -29.083 -14.735  1.00  0.00     0.001 A 
HETATM   12  C11 UNL     1     -10.187 -30.308 -14.473  1.00  0.00    -0.027 A 
HETATM   13  C15 UNL     1      -8.248 -29.190 -14.519  1.00  0.00     0.059 A 
HETATM   14  C12 UNL     1     -11.636 -30.632 -14.580  1.00  0.00     0.051 C 
HETATM   15  C13 UNL     1      -9.169 -31.144 -14.104  1.00  0.00     0.012 A 
HETATM   16  C14 UNL     1      -9.274 -32.573 -13.725  1.00  0.00     0.068 C 
HETATM   17  N2  UNL     1      -8.001 -30.456 -14.137  1.00  0.00    -0.358 N 
ATOM     18  H2  UNL     1      -7.083 -30.837 -13.908  1.00  0.00     0.166 HD
HETATM   19  C16 UNL     1      -7.500 -28.060 -14.730  1.00  0.00     0.121 A 
ENDBRANCH   7   8
ENDBRANCH   5   7
ENDBRANCH   4   5
TORSDOF 3
ENDMDL
