MODEL 1
REMARK VINA RESULT: -10.111398951      0.000      0.000
REMARK  4 active torsions:
REMARK  status: ('A' for Active; 'I' for Inactive)
REMARK    1  A    between atoms: N1_9  and  O4_11 
REMARK    2  A    between atoms: C10_19  and  O7_20 
REMARK    3  A    between atoms: N3_37  and  O12_39 
REMARK    4  A    between atoms: C21_43  and  O14_44 
ROOT
HETATM    1  C1  UNL     1       7.845  -0.799   2.700  1.00  0.00     0.043 C 
HETATM    2  C2  UNL     1       6.797  -0.057   3.543  1.00  0.00     0.160 C 
HETATM    3  O1  UNL     1       5.668   0.309   2.883  1.00  0.00    -0.311 OA
HETATM    4  C3  UNL     1       4.740  -0.195   2.075  1.00  0.00     0.297 C 
HETATM    5  O2  UNL     1       4.747   0.103   0.811  1.00  0.00    -0.262 OA
HETATM    6  C4  UNL     1       3.627  -1.107   2.440  1.00  0.00     0.305 C 
HETATM    7  O3  UNL     1       2.376  -0.464   2.480  1.00  0.00    -0.314 OA
HETATM    8  C5  UNL     1       2.046   0.814   2.160  1.00  0.00     0.139 C 
HETATM    9  N1  UNL     1       1.357   1.236   1.160  1.00  0.00    -0.251 N 
ATOM     10  H1  UNL     1       1.217   2.245   1.093  1.00  0.00     0.196 HD
HETATM   11  C6  UNL     1       2.528   1.900   3.068  1.00  0.00     0.096 C 
HETATM   12  C7  UNL     1       3.063   3.061   2.308  1.00  0.00     0.119 C 
HETATM   13  C8  UNL     1       3.712   4.031   3.233  1.00  0.00     0.259 C 
HETATM   14  O5  UNL     1       3.264   5.228   3.182  1.00  0.00    -0.265 OA
HETATM   15  O6  UNL     1       4.713   3.605   4.056  1.00  0.00    -0.318 OA
HETATM   16  C9  UNL     1       5.998   3.152   3.713  1.00  0.00     0.229 C 
HETATM   17  C10 UNL     1       6.579   2.175   4.711  1.00  0.00     0.188 C 
HETATM   18  C11 UNL     1       7.417   2.940   5.669  1.00  0.00     0.257 C 
HETATM   19  O8  UNL     1       7.987   3.978   5.171  1.00  0.00    -0.270 OA
HETATM   20  N2  UNL     1       7.634   2.641   7.018  1.00  0.00    -0.358 N 
ATOM     21  H2  UNL     1       8.610   2.569   7.307  1.00  0.00     0.162 HD
HETATM   22  C12 UNL     1       6.653   2.422   8.054  1.00  0.00     0.130 C 
HETATM   23  C13 UNL     1       7.082   1.218   8.894  1.00  0.00     0.098 C 
HETATM   24  C14 UNL     1       6.032   0.181   8.725  1.00  0.00     0.129 C 
HETATM   25  O9  UNL     1       6.321  -0.824   8.108  1.00  0.00    -0.298 OA
HETATM   26  C15 UNL     1       4.696   0.374   9.291  1.00  0.00     0.088 C 
HETATM   27  C16 UNL     1       3.558   0.204   8.326  1.00  0.00     0.118 C 
HETATM   28  C17 UNL     1       3.262  -1.208   7.987  1.00  0.00     0.259 C 
HETATM   29  O10 UNL     1       3.800  -2.107   8.676  1.00  0.00    -0.265 OA
HETATM   30  O11 UNL     1       2.413  -1.470   6.935  1.00  0.00    -0.315 OA
HETATM   31  C18 UNL     1       2.617  -1.038   5.590  1.00  0.00     0.241 C 
HETATM   32  C19 UNL     1       3.112  -2.166   4.754  1.00  0.00     0.105 C 
HETATM   33  N3  UNL     1       2.777  -3.352   5.204  1.00  0.00    -0.268 N 
ATOM     34  H3  UNL     1       2.224  -3.389   6.060  1.00  0.00     0.194 HD
HETATM   35  C20 UNL     1       3.899  -2.020   3.548  1.00  0.00     0.214 C 
HETATM   36  O13 UNL     1       4.921  -2.774   3.465  1.00  0.00    -0.288 OA
HETATM   37  C21 UNL     1       7.535   1.182   4.034  1.00  0.00     0.193 C 
ENDROOT
BRANCH   9  38
HETATM   38  O4  UNL     1       0.795   0.476   0.183  1.00  0.00    -0.288 OA
ATOM     39  H4  UNL     1       0.797  -0.472   0.130  1.00  0.00     0.244 HD
ENDBRANCH   9  38
BRANCH  33  40
HETATM   40  O12 UNL     1       3.107  -4.525   4.624  1.00  0.00    -0.290 OA
ATOM     41  H12 UNL     1       3.314  -5.327   5.090  1.00  0.00     0.244 HD
ENDBRANCH  33  40
BRANCH  37  42
HETATM   42  O14 UNL     1       8.243   1.810   3.039  1.00  0.00    -0.389 OA
ATOM     43  H14 UNL     1       8.353   2.741   3.195  1.00  0.00     0.210 HD
ENDBRANCH  37  42
BRANCH  17  44
HETATM   44  O7  UNL     1       5.599   1.470   5.383  1.00  0.00    -0.376 OA
ATOM     45  H7  UNL     1       5.206   0.795   4.842  1.00  0.00     0.211 HD
ENDBRANCH  17  44
TORSDOF 4
ENDMDL
MODEL 2
REMARK VINA RESULT: -9.669154260      2.825      4.965
REMARK  4 active torsions:
REMARK  status: ('A' for Active; 'I' for Inactive)
REMARK    1  A    between atoms: N1_9  and  O4_11 
REMARK    2  A    between atoms: C10_19  and  O7_20 
REMARK    3  A    between atoms: N3_37  and  O12_39 
REMARK    4  A    between atoms: C21_43  and  O14_44 
ROOT
HETATM    1  C1  UNL     1       7.218  -1.070   1.543  1.00  0.00     0.043 C 
HETATM    2  C2  UNL     1       6.819  -1.333   3.003  1.00  0.00     0.160 C 
HETATM    3  O1  UNL     1       6.410  -0.244   3.703  1.00  0.00    -0.311 OA
HETATM    4  C3  UNL     1       5.578   0.789   3.605  1.00  0.00     0.297 C 
HETATM    5  O2  UNL     1       6.043   1.978   3.363  1.00  0.00    -0.262 OA
HETATM    6  C4  UNL     1       4.100   0.772   3.744  1.00  0.00     0.305 C 
HETATM    7  O3  UNL     1       3.653   1.307   4.966  1.00  0.00    -0.314 OA
HETATM    8  C5  UNL     1       4.360   1.893   5.967  1.00  0.00     0.139 C 
HETATM    9  N1  UNL     1       4.367   3.129   6.323  1.00  0.00    -0.251 N 
ATOM     10  H1  UNL     1       4.971   3.376   7.108  1.00  0.00     0.196 HD
HETATM   11  C6  UNL     1       5.255   1.020   6.785  1.00  0.00     0.096 C 
HETATM   12  C7  UNL     1       6.578   1.655   7.028  1.00  0.00     0.119 C 
HETATM   13  C8  UNL     1       7.508   0.685   7.669  1.00  0.00     0.259 C 
HETATM   14  O5  UNL     1       8.021   1.062   8.779  1.00  0.00    -0.265 OA
HETATM   15  O6  UNL     1       7.753  -0.511   7.061  1.00  0.00    -0.318 OA
HETATM   16  C9  UNL     1       8.415  -0.758   5.847  1.00  0.00     0.229 C 
HETATM   17  C10 UNL     1       7.953  -2.022   5.154  1.00  0.00     0.188 C 
HETATM   18  C11 UNL     1       8.870  -3.123   5.548  1.00  0.00     0.257 C 
HETATM   19  O8  UNL     1      10.080  -2.755   5.776  1.00  0.00    -0.270 OA
HETATM   20  N2  UNL     1       8.545  -4.476   5.686  1.00  0.00    -0.358 N 
ATOM     21  H2  UNL     1       9.122  -5.129   5.155  1.00  0.00     0.162 HD
HETATM   22  C12 UNL     1       7.497  -5.066   6.483  1.00  0.00     0.130 C 
HETATM   23  C13 UNL     1       6.806  -6.156   5.663  1.00  0.00     0.098 C 
HETATM   24  C14 UNL     1       5.395  -5.728   5.483  1.00  0.00     0.129 C 
HETATM   25  O9  UNL     1       5.036  -5.408   4.368  1.00  0.00    -0.298 OA
HETATM   26  C15 UNL     1       4.474  -5.698   6.620  1.00  0.00     0.088 C 
HETATM   27  C16 UNL     1       3.755  -4.396   6.831  1.00  0.00     0.118 C 
HETATM   28  C17 UNL     1       2.651  -4.155   5.872  1.00  0.00     0.259 C 
HETATM   29  O10 UNL     1       2.275  -5.111   5.151  1.00  0.00    -0.265 OA
HETATM   30  O11 UNL     1       2.090  -2.899   5.814  1.00  0.00    -0.315 OA
HETATM   31  C18 UNL     1       2.800  -1.698   5.521  1.00  0.00     0.241 C 
HETATM   32  C19 UNL     1       2.548  -1.275   4.117  1.00  0.00     0.105 C 
HETATM   33  N3  UNL     1       1.411  -1.709   3.625  1.00  0.00    -0.268 N 
ATOM     34  H3  UNL     1       0.824  -2.278   4.234  1.00  0.00     0.194 HD
HETATM   35  C20 UNL     1       3.444  -0.463   3.321  1.00  0.00     0.214 C 
HETATM   36  O13 UNL     1       3.663  -0.885   2.141  1.00  0.00    -0.288 OA
HETATM   37  C21 UNL     1       8.083  -1.907   3.629  1.00  0.00     0.193 C 
ENDROOT
BRANCH   9  38
HETATM   38  O4  UNL     1       3.651   4.140   5.762  1.00  0.00    -0.288 OA
ATOM     39  H4  UNL     1       3.979   4.805   5.169  1.00  0.00     0.244 HD
ENDBRANCH   9  38
BRANCH  33  40
HETATM   40  O12 UNL     1       0.959  -1.462   2.377  1.00  0.00    -0.290 OA
ATOM     41  H12 UNL     1       1.082  -2.032   1.628  1.00  0.00     0.244 HD
ENDBRANCH  33  40
BRANCH  37  42
HETATM   42  O14 UNL     1       9.211  -1.194   3.302  1.00  0.00    -0.389 OA
ATOM     43  H14 UNL     1       9.685  -0.883   4.065  1.00  0.00     0.210 HD
ENDBRANCH  37  42
BRANCH  17  44
HETATM   44  O7  UNL     1       6.648  -2.345   5.472  1.00  0.00    -0.376 OA
ATOM     45  H7  UNL     1       6.479  -3.277   5.396  1.00  0.00     0.211 HD
ENDBRANCH  17  44
TORSDOF 4
ENDMDL
MODEL 3
REMARK VINA RESULT: -9.483885207      2.861      6.758
REMARK  4 active torsions:
REMARK  status: ('A' for Active; 'I' for Inactive)
REMARK    1  A    between atoms: N1_9  and  O4_11 
REMARK    2  A    between atoms: C10_19  and  O7_20 
REMARK    3  A    between atoms: N3_37  and  O12_39 
REMARK    4  A    between atoms: C21_43  and  O14_44 
ROOT
HETATM    1  C1  UNL     1       6.027  -0.812   8.717  1.00  0.00     0.043 C 
HETATM    2  C2  UNL     1       6.047  -1.556   7.372  1.00  0.00     0.160 C 
HETATM    3  O1  UNL     1       4.834  -1.945   6.901  1.00  0.00    -0.311 OA
HETATM    4  C3  UNL     1       3.614  -1.464   6.679  1.00  0.00     0.297 C 
HETATM    5  O2  UNL     1       2.636  -1.780   7.473  1.00  0.00    -0.262 OA
HETATM    6  C4  UNL     1       3.189  -0.561   5.580  1.00  0.00     0.305 C 
HETATM    7  O3  UNL     1       2.453  -1.219   4.578  1.00  0.00    -0.314 OA
HETATM    8  C5  UNL     1       2.021  -2.506   4.521  1.00  0.00     0.139 C 
HETATM    9  N1  UNL     1       0.817  -2.950   4.606  1.00  0.00    -0.251 N 
ATOM     10  H1  UNL     1       0.696  -3.961   4.539  1.00  0.00     0.196 HD
HETATM   11  C6  UNL     1       3.051  -3.572   4.333  1.00  0.00     0.096 C 
HETATM   12  C7  UNL     1       2.812  -4.737   5.227  1.00  0.00     0.119 C 
HETATM   13  C8  UNL     1       3.958  -5.685   5.158  1.00  0.00     0.259 C 
HETATM   14  O5  UNL     1       3.662  -6.889   4.840  1.00  0.00    -0.265 OA
HETATM   15  O6  UNL     1       5.218  -5.236   5.427  1.00  0.00    -0.318 OA
HETATM   16  C9  UNL     1       5.742  -4.772   6.645  1.00  0.00     0.229 C 
HETATM   17  C10 UNL     1       6.866  -3.773   6.477  1.00  0.00     0.188 C 
HETATM   18  C11 UNL     1       8.152  -4.514   6.535  1.00  0.00     0.257 C 
HETATM   19  O8  UNL     1       8.137  -5.552   7.293  1.00  0.00    -0.270 OA
HETATM   20  N2  UNL     1       9.336  -4.194   5.864  1.00  0.00    -0.358 N 
ATOM     21  H2  UNL     1      10.168  -4.105   6.447  1.00  0.00     0.162 HD
HETATM   22  C12 UNL     1       9.530  -3.972   4.451  1.00  0.00     0.130 C 
HETATM   23  C13 UNL     1      10.432  -2.752   4.261  1.00  0.00     0.098 C 
HETATM   24  C14 UNL     1       9.626  -1.730   3.544  1.00  0.00     0.129 C 
HETATM   25  O9  UNL     1       9.304  -0.730   4.154  1.00  0.00    -0.298 OA
HETATM   26  C15 UNL     1       9.239  -1.932   2.147  1.00  0.00     0.088 C 
HETATM   27  C16 UNL     1       7.772  -1.790   1.859  1.00  0.00     0.118 C 
HETATM   28  C17 UNL     1       7.296  -0.386   1.837  1.00  0.00     0.259 C 
HETATM   29  O10 UNL     1       8.153   0.529   1.827  1.00  0.00    -0.265 OA
HETATM   30  O11 UNL     1       5.939  -0.150   1.829  1.00  0.00    -0.315 OA
HETATM   31  C18 UNL     1       5.024  -0.598   2.827  1.00  0.00     0.241 C 
HETATM   32  C19 UNL     1       4.657   0.524   3.734  1.00  0.00     0.105 C 
HETATM   33  N3  UNL     1       4.778   1.711   3.191  1.00  0.00    -0.268 N 
ATOM     34  H3  UNL     1       5.101   1.754   2.225  1.00  0.00     0.194 HD
HETATM   35  C20 UNL     1       4.207   0.371   5.102  1.00  0.00     0.214 C 
HETATM   36  O13 UNL     1       4.766   1.136   5.951  1.00  0.00    -0.288 OA
HETATM   37  C21 UNL     1       6.914  -2.778   7.645  1.00  0.00     0.193 C 
ENDROOT
BRANCH   9  38
HETATM   38  O4  UNL     1      -0.311  -2.211   4.775  1.00  0.00    -0.288 OA
ATOM     39  H4  UNL     1      -1.207  -2.515   4.689  1.00  0.00     0.244 HD
ENDBRANCH   9  38
BRANCH  33  40
HETATM   40  O12 UNL     1       4.508   2.881   3.808  1.00  0.00    -0.290 OA
ATOM     41  H12 UNL     1       5.086   3.635   3.830  1.00  0.00     0.244 HD
ENDBRANCH  33  40
BRANCH  37  42
HETATM   42  O14 UNL     1       6.589  -3.411   8.820  1.00  0.00    -0.389 OA
ATOM     43  H14 UNL     1       6.795  -2.892   9.588  1.00  0.00     0.210 HD
ENDBRANCH  37  42
BRANCH  17  44
HETATM   44  O7  UNL     1       6.768  -3.071   5.290  1.00  0.00    -0.376 OA
ATOM     45  H7  UNL     1       7.449  -3.311   4.673  1.00  0.00     0.211 HD
ENDBRANCH  17  44
TORSDOF 4
ENDMDL
MODEL 4
REMARK VINA RESULT: -9.154096705      2.258      6.336
REMARK  4 active torsions:
REMARK  status: ('A' for Active; 'I' for Inactive)
REMARK    1  A    between atoms: N1_9  and  O4_11 
REMARK    2  A    between atoms: C10_19  and  O7_20 
REMARK    3  A    between atoms: N3_37  and  O12_39 
REMARK    4  A    between atoms: C21_43  and  O14_44 
ROOT
HETATM    1  C1  UNL     1       6.033   1.263   8.661  1.00  0.00     0.043 C 
HETATM    2  C2  UNL     1       6.048   0.736   7.217  1.00  0.00     0.160 C 
HETATM    3  O1  UNL     1       5.285   1.429   6.333  1.00  0.00    -0.311 OA
HETATM    4  C3  UNL     1       5.051   2.675   5.933  1.00  0.00     0.297 C 
HETATM    5  O2  UNL     1       3.958   3.279   6.292  1.00  0.00    -0.262 OA
HETATM    6  C4  UNL     1       5.919   3.525   5.079  1.00  0.00     0.305 C 
HETATM    7  O3  UNL     1       5.439   3.657   3.763  1.00  0.00    -0.314 OA
HETATM    8  C5  UNL     1       4.287   3.199   3.208  1.00  0.00     0.139 C 
HETATM    9  N1  UNL     1       3.263   3.873   2.818  1.00  0.00    -0.251 N 
ATOM     10  H1  UNL     1       2.488   3.341   2.424  1.00  0.00     0.196 HD
HETATM   11  C6  UNL     1       4.156   1.724   3.007  1.00  0.00     0.096 C 
HETATM   12  C7  UNL     1       2.814   1.226   3.411  1.00  0.00     0.119 C 
HETATM   13  C8  UNL     1       2.785  -0.262   3.386  1.00  0.00     0.259 C 
HETATM   14  O5  UNL     1       1.873  -0.786   2.656  1.00  0.00    -0.265 OA
HETATM   15  O6  UNL     1       3.699  -0.963   4.117  1.00  0.00    -0.318 OA
HETATM   16  C9  UNL     1       3.832  -1.040   5.513  1.00  0.00     0.229 C 
HETATM   17  C10 UNL     1       5.249  -1.312   5.969  1.00  0.00     0.188 C 
HETATM   18  C11 UNL     1       5.397  -2.778   6.161  1.00  0.00     0.257 C 
HETATM   19  O8  UNL     1       4.326  -3.378   6.541  1.00  0.00    -0.270 OA
HETATM   20  N2  UNL     1       6.557  -3.536   5.974  1.00  0.00    -0.358 N 
ATOM     21  H2  UNL     1       6.845  -4.112   6.765  1.00  0.00     0.162 HD
HETATM   22  C12 UNL     1       7.398  -3.607   4.803  1.00  0.00     0.130 C 
HETATM   23  C13 UNL     1       8.862  -3.568   5.244  1.00  0.00     0.098 C 
HETATM   24  C14 UNL     1       9.452  -2.331   4.668  1.00  0.00     0.129 C 
HETATM   25  O9  UNL     1       9.754  -1.437   5.432  1.00  0.00    -0.298 OA
HETATM   26  C15 UNL     1       9.658  -2.207   3.224  1.00  0.00     0.088 C 
HETATM   27  C16 UNL     1       9.067  -0.978   2.594  1.00  0.00     0.118 C 
HETATM   28  C17 UNL     1       9.834   0.262   2.858  1.00  0.00     0.259 C 
HETATM   29  O10 UNL     1      10.978   0.154   3.360  1.00  0.00    -0.265 OA
HETATM   30  O11 UNL     1       9.259   1.473   2.542  1.00  0.00    -0.315 OA
HETATM   31  C18 UNL     1       8.023   1.954   3.066  1.00  0.00     0.241 C 
HETATM   32  C19 UNL     1       8.268   2.970   4.125  1.00  0.00     0.105 C 
HETATM   33  N3  UNL     1       9.421   3.588   4.015  1.00  0.00    -0.268 N 
ATOM     34  H3  UNL     1      10.022   3.323   3.235  1.00  0.00     0.194 HD
HETATM   35  C20 UNL     1       7.354   3.282   5.203  1.00  0.00     0.214 C 
HETATM   36  O13 UNL     1       7.875   3.350   6.362  1.00  0.00    -0.288 OA
HETATM   37  C21 UNL     1       5.527  -0.690   7.345  1.00  0.00     0.193 C 
ENDROOT
BRANCH   9  38
HETATM   38  O4  UNL     1       3.109   5.222   2.878  1.00  0.00    -0.288 OA
ATOM     39  H4  UNL     1       2.369   5.694   3.242  1.00  0.00     0.244 HD
ENDBRANCH   9  38
BRANCH  33  40
HETATM   40  O12 UNL     1       9.872   4.547   4.851  1.00  0.00    -0.290 OA
ATOM     41  H12 UNL     1       9.606   4.653   5.757  1.00  0.00     0.244 HD
ENDBRANCH  33  40
BRANCH  37  42
HETATM   42  O14 UNL     1       4.409  -0.780   8.140  1.00  0.00    -0.389 OA
ATOM     43  H14 UNL     1       4.134  -1.677   8.287  1.00  0.00     0.210 HD
ENDBRANCH  37  42
BRANCH  17  44
HETATM   44  O7  UNL     1       6.187  -0.848   5.067  1.00  0.00    -0.376 OA
ATOM     45  H7  UNL     1       7.077  -0.979   5.374  1.00  0.00     0.211 HD
ENDBRANCH  17  44
TORSDOF 4
ENDMDL
MODEL 5
REMARK VINA RESULT: -9.102455770      2.427      3.998
REMARK  4 active torsions:
REMARK  status: ('A' for Active; 'I' for Inactive)
REMARK    1  A    between atoms: N1_9  and  O4_11 
REMARK    2  A    between atoms: C10_19  and  O7_20 
REMARK    3  A    between atoms: N3_37  and  O12_39 
REMARK    4  A    between atoms: C21_43  and  O14_44 
ROOT
HETATM    1  C1  UNL     1       7.073  -4.236   5.856  1.00  0.00     0.043 C 
HETATM    2  C2  UNL     1       6.508  -2.835   5.576  1.00  0.00     0.160 C 
HETATM    3  O1  UNL     1       5.276  -2.803   5.006  1.00  0.00    -0.311 OA
HETATM    4  C3  UNL     1       4.061  -3.322   5.155  1.00  0.00     0.297 C 
HETATM    5  O2  UNL     1       3.650  -4.256   4.352  1.00  0.00    -0.262 OA
HETATM    6  C4  UNL     1       3.045  -2.959   6.175  1.00  0.00     0.305 C 
HETATM    7  O3  UNL     1       1.990  -2.187   5.654  1.00  0.00    -0.314 OA
HETATM    8  C5  UNL     1       1.739  -1.812   4.373  1.00  0.00     0.139 C 
HETATM    9  N1  UNL     1       0.796  -2.210   3.593  1.00  0.00    -0.251 N 
ATOM     10  H1  UNL     1       0.776  -1.807   2.657  1.00  0.00     0.196 HD
HETATM   11  C6  UNL     1       2.655  -0.806   3.755  1.00  0.00     0.096 C 
HETATM   12  C7  UNL     1       3.028  -1.176   2.364  1.00  0.00     0.119 C 
HETATM   13  C8  UNL     1       4.089  -0.266   1.852  1.00  0.00     0.259 C 
HETATM   14  O5  UNL     1       3.815   0.346   0.762  1.00  0.00    -0.265 OA
HETATM   15  O6  UNL     1       5.254  -0.137   2.549  1.00  0.00    -0.318 OA
HETATM   16  C9  UNL     1       6.256  -1.096   2.769  1.00  0.00     0.229 C 
HETATM   17  C10 UNL     1       7.024  -0.883   4.055  1.00  0.00     0.188 C 
HETATM   18  C11 UNL     1       8.246  -0.099   3.735  1.00  0.00     0.257 C 
HETATM   19  O8  UNL     1       8.728  -0.315   2.564  1.00  0.00    -0.270 OA
HETATM   20  N2  UNL     1       8.894   0.818   4.568  1.00  0.00    -0.358 N 
ATOM     21  H2  UNL     1       9.890   0.655   4.720  1.00  0.00     0.162 HD
HETATM   22  C12 UNL     1       8.335   1.967   5.238  1.00  0.00     0.130 C 
HETATM   23  C13 UNL     1       8.876   2.018   6.668  1.00  0.00     0.098 C 
HETATM   24  C14 UNL     1       7.709   1.862   7.574  1.00  0.00     0.129 C 
HETATM   25  O9  UNL     1       7.618   0.834   8.214  1.00  0.00    -0.298 OA
HETATM   26  C15 UNL     1       6.706   2.923   7.686  1.00  0.00     0.088 C 
HETATM   27  C16 UNL     1       5.284   2.488   7.473  1.00  0.00     0.118 C 
HETATM   28  C17 UNL     1       4.701   1.752   8.619  1.00  0.00     0.259 C 
HETATM   29  O10 UNL     1       5.328   1.757   9.706  1.00  0.00    -0.265 OA
HETATM   30  O11 UNL     1       3.502   1.098   8.443  1.00  0.00    -0.315 OA
HETATM   31  C18 UNL     1       3.262   0.075   7.478  1.00  0.00     0.241 C 
HETATM   32  C19 UNL     1       3.267  -1.263   8.129  1.00  0.00     0.105 C 
HETATM   33  N3  UNL     1       2.964  -1.238   9.405  1.00  0.00    -0.268 N 
ATOM     34  H3  UNL     1       2.758  -0.329   9.820  1.00  0.00     0.194 HD
HETATM   35  C20 UNL     1       3.576  -2.509   7.460  1.00  0.00     0.214 C 
HETATM   36  O13 UNL     1       4.390  -3.273   8.072  1.00  0.00    -0.288 OA
HETATM   37  C21 UNL     1       7.531  -2.211   4.635  1.00  0.00     0.193 C 
ENDROOT
BRANCH   9  38
HETATM   38  O4  UNL     1      -0.176  -3.113   3.890  1.00  0.00    -0.288 OA
ATOM     39  H4  UNL     1      -0.750  -3.101   4.647  1.00  0.00     0.244 HD
ENDBRANCH   9  38
BRANCH  33  40
HETATM   40  O12 UNL     1       2.904  -2.318  10.212  1.00  0.00    -0.290 OA
ATOM     41  H12 UNL     1       3.541  -3.022  10.233  1.00  0.00     0.244 HD
ENDBRANCH  33  40
BRANCH  37  42
HETATM   42  O14 UNL     1       7.907  -3.058   3.620  1.00  0.00    -0.389 OA
ATOM     43  H14 UNL     1       8.842  -3.041   3.453  1.00  0.00     0.210 HD
ENDBRANCH  37  42
BRANCH  17  44
HETATM   44  O7  UNL     1       6.270  -0.232   5.012  1.00  0.00    -0.376 OA
ATOM     45  H7  UNL     1       6.590  -0.392   5.893  1.00  0.00     0.211 HD
ENDBRANCH  17  44
TORSDOF 4
ENDMDL
