MODEL 1
REMARK VINA RESULT: -7.048376953      0.000      0.000
REMARK  4 active torsions:
REMARK  status: ('A' for Active; 'I' for Inactive)
REMARK       I    between atoms: C2_4  and  N2_5 
REMARK       I    between atoms: C2_4  and  N4_15 
REMARK    1  A    between atoms: N3_8  and  C5_9 
REMARK    2  A    between atoms: C5_9  and  C6_10 
REMARK    3  A    between atoms: C6_10  and  O1_11 
REMARK    4  A    between atoms: C14_21  and  C15_22 
ROOT
HETATM    1  C15 UNL     1      -9.929  22.939  62.131  1.00  0.00     0.149 C 
HETATM    2  C16 UNL     1      -9.354  23.687  63.242  1.00  0.00     0.061 C 
HETATM    3  N5  UNL     1      -8.918  24.280  64.124  1.00  0.00    -0.197 NA
ENDROOT
BRANCH   1   4
HETATM    4  C14 UNL     1     -10.293  21.522  62.567  1.00  0.00     0.116 C 
HETATM    5  N4  UNL     1     -11.003  20.809  61.564  1.00  0.00    -0.212 N 
HETATM    6  C2  UNL     1     -10.621  20.510  60.233  1.00  0.00     0.674 C 
HETATM    7  C9  UNL     1     -12.268  20.370  62.096  1.00  0.00     0.150 C 
HETATM    8  N1  UNL     1      -9.726  19.580  60.032  1.00  0.00    -0.231 N 
HETATM    9  N2  UNL     1     -11.135  21.137  59.063  1.00  0.00    -0.215 N 
HETATM   10  C1  UNL     1      -9.254  19.176  58.748  1.00  0.00     0.165 C 
ATOM     11  H1  UNL     1      -9.337  19.111  60.850  1.00  0.00     0.177 HD
HETATM   12  C3  UNL     1     -12.441  20.840  58.534  1.00  0.00     0.171 C 
HETATM   13  C8  UNL     1     -10.256  22.101  58.433  1.00  0.00     0.171 C 
HETATM   14  C4  UNL     1     -12.555  21.022  57.037  1.00  0.00     0.293 C 
HETATM   15  N3  UNL     1     -11.883  22.284  56.748  1.00  0.00     0.093 N 
HETATM   16  C7  UNL     1     -10.480  22.175  56.912  1.00  0.00     0.293 C 
HETATM   17  C10 UNL     1     -12.115  20.441  63.603  1.00  0.00    -0.029 C 
HETATM   18  C11 UNL     1     -11.407  19.227  64.159  1.00  0.00     0.016 C 
HETATM   19  C12 UNL     1     -13.417  20.610  64.326  1.00  0.00     0.016 C 
HETATM   20  C13 UNL     1     -11.202  21.621  63.755  1.00  0.00     0.037 C 
BRANCH  15  21
HETATM   21  C5  UNL     1     -12.397  22.945  55.619  1.00  0.00     0.298 C 
BRANCH  21  22
HETATM   22  C6  UNL     1     -13.899  22.845  55.568  1.00  0.00     0.194 C 
BRANCH  22  23
HETATM   23  O1  UNL     1     -14.319  22.419  54.286  1.00  0.00    -0.399 OA
ATOM     24  H1  UNL     1     -15.239  22.184  54.302  1.00  0.00     0.209 HD
ENDBRANCH  22  23
ENDBRANCH  21  22
ENDBRANCH  15  21
ENDBRANCH   1   4
TORSDOF 4
ENDMDL
MODEL 2
REMARK VINA RESULT: -6.643294111      2.771      6.637
REMARK  4 active torsions:
REMARK  status: ('A' for Active; 'I' for Inactive)
REMARK       I    between atoms: C2_4  and  N2_5 
REMARK       I    between atoms: C2_4  and  N4_15 
REMARK    1  A    between atoms: N3_8  and  C5_9 
REMARK    2  A    between atoms: C5_9  and  C6_10 
REMARK    3  A    between atoms: C6_10  and  O1_11 
REMARK    4  A    between atoms: C14_21  and  C15_22 
ROOT
HETATM    1  C15 UNL     1      -9.938  19.943  58.980  1.00  0.00     0.149 C 
HETATM    2  C16 UNL     1      -8.861  19.467  58.120  1.00  0.00     0.061 C 
HETATM    3  N5  UNL     1      -8.026  19.089  57.429  1.00  0.00    -0.197 NA
ENDROOT
BRANCH   1   4
HETATM    4  C14 UNL     1     -10.302  21.385  58.639  1.00  0.00     0.116 C 
HETATM    5  N4  UNL     1     -11.074  22.008  59.656  1.00  0.00    -0.212 N 
HETATM    6  C2  UNL     1     -10.765  22.203  61.025  1.00  0.00     0.674 C 
HETATM    7  C9  UNL     1     -12.316  22.473  59.095  1.00  0.00     0.150 C 
HETATM    8  N1  UNL     1      -9.897  23.125  61.346  1.00  0.00    -0.231 N 
HETATM    9  N2  UNL     1     -11.330  21.479  62.113  1.00  0.00    -0.215 N 
HETATM   10  C1  UNL     1      -9.499  23.431  62.682  1.00  0.00     0.165 C 
ATOM     11  H1  UNL     1      -9.474  23.663  60.590  1.00  0.00     0.177 HD
HETATM   12  C3  UNL     1     -12.665  21.718  62.594  1.00  0.00     0.171 C 
HETATM   13  C8  UNL     1     -10.469  20.478  62.710  1.00  0.00     0.171 C 
HETATM   14  C4  UNL     1     -12.854  21.415  64.065  1.00  0.00     0.293 C 
HETATM   15  N3  UNL     1     -12.178  20.141  64.287  1.00  0.00     0.093 N 
HETATM   16  C7  UNL     1     -10.770  20.280  64.206  1.00  0.00     0.293 C 
HETATM   17  C10 UNL     1     -12.085  22.524  57.597  1.00  0.00    -0.029 C 
HETATM   18  C11 UNL     1     -11.369  23.788  57.177  1.00  0.00     0.016 C 
HETATM   19  C12 UNL     1     -13.345  22.399  56.795  1.00  0.00     0.016 C 
HETATM   20  C13 UNL     1     -11.146  21.371  57.401  1.00  0.00     0.037 C 
BRANCH  15  21
HETATM   21  C5  UNL     1     -12.738  19.386  65.331  1.00  0.00     0.298 C 
BRANCH  21  22
HETATM   22  C6  UNL     1     -14.105  18.875  64.958  1.00  0.00     0.194 C 
BRANCH  22  23
HETATM   23  O1  UNL     1     -14.018  18.015  63.837  1.00  0.00    -0.399 OA
ATOM     24  H1  UNL     1     -13.114  17.779  63.673  1.00  0.00     0.209 HD
ENDBRANCH  22  23
ENDBRANCH  21  22
ENDBRANCH  15  21
ENDBRANCH   1   4
TORSDOF 4
ENDMDL
MODEL 3
REMARK VINA RESULT: -6.610439069      5.008      6.815
REMARK  4 active torsions:
REMARK  status: ('A' for Active; 'I' for Inactive)
REMARK       I    between atoms: C2_4  and  N2_5 
REMARK       I    between atoms: C2_4  and  N4_15 
REMARK    1  A    between atoms: N3_8  and  C5_9 
REMARK    2  A    between atoms: C5_9  and  C6_10 
REMARK    3  A    between atoms: C6_10  and  O1_11 
REMARK    4  A    between atoms: C14_21  and  C15_22 
ROOT
HETATM    1  C15 UNL     1     -10.839  24.030  66.145  1.00  0.00     0.149 C 
HETATM    2  C16 UNL     1     -10.972  23.584  67.527  1.00  0.00     0.061 C 
HETATM    3  N5  UNL     1     -11.093  23.224  68.611  1.00  0.00    -0.197 NA
ENDROOT
BRANCH   1   4
HETATM    4  C14 UNL     1     -10.264  22.918  65.273  1.00  0.00     0.116 C 
HETATM    5  N4  UNL     1      -9.660  23.413  64.086  1.00  0.00    -0.212 N 
HETATM    6  C2  UNL     1      -8.603  24.344  63.937  1.00  0.00     0.674 C 
HETATM    7  C9  UNL     1     -10.288  22.803  62.942  1.00  0.00     0.150 C 
HETATM    8  N1  UNL     1      -7.384  23.955  64.200  1.00  0.00    -0.231 N 
HETATM    9  N2  UNL     1      -8.743  25.695  63.510  1.00  0.00    -0.215 N 
HETATM   10  C1  UNL     1      -6.228  24.784  64.088  1.00  0.00     0.165 C 
ATOM     11  H1  UNL     1      -7.249  22.992  64.509  1.00  0.00     0.177 HD
HETATM   12  C3  UNL     1      -8.975  26.053  62.135  1.00  0.00     0.171 C 
HETATM   13  C8  UNL     1      -8.636  26.694  64.553  1.00  0.00     0.171 C 
HETATM   14  C4  UNL     1      -8.435  27.414  61.753  1.00  0.00     0.293 C 
HETATM   15  N3  UNL     1      -8.811  28.301  62.848  1.00  0.00     0.093 N 
HETATM   16  C7  UNL     1      -8.067  28.021  64.022  1.00  0.00     0.293 C 
HETATM   17  C10 UNL     1     -10.989  21.570  63.479  1.00  0.00    -0.029 C 
HETATM   18  C11 UNL     1     -10.041  20.404  63.638  1.00  0.00     0.016 C 
HETATM   19  C12 UNL     1     -12.151  21.133  62.639  1.00  0.00     0.016 C 
HETATM   20  C13 UNL     1     -11.394  22.030  64.848  1.00  0.00     0.037 C 
BRANCH  15  21
HETATM   21  C5  UNL     1      -8.994  29.636  62.449  1.00  0.00     0.298 C 
BRANCH  21  22
HETATM   22  C6  UNL     1      -8.911  29.770  60.951  1.00  0.00     0.194 C 
BRANCH  22  23
HETATM   23  O1  UNL     1      -7.764  30.517  60.588  1.00  0.00    -0.399 OA
ATOM     24  H1  UNL     1      -7.340  30.124  59.836  1.00  0.00     0.209 HD
ENDBRANCH  22  23
ENDBRANCH  21  22
ENDBRANCH  15  21
ENDBRANCH   1   4
TORSDOF 4
ENDMDL
MODEL 4
REMARK VINA RESULT: -6.453068089      2.857      6.533
REMARK  4 active torsions:
REMARK  status: ('A' for Active; 'I' for Inactive)
REMARK       I    between atoms: C2_4  and  N2_5 
REMARK       I    between atoms: C2_4  and  N4_15 
REMARK    1  A    between atoms: N3_8  and  C5_9 
REMARK    2  A    between atoms: C5_9  and  C6_10 
REMARK    3  A    between atoms: C6_10  and  O1_11 
REMARK    4  A    between atoms: C14_21  and  C15_22 
ROOT
HETATM    1  C15 UNL     1     -10.166  21.423  58.057  1.00  0.00     0.149 C 
HETATM    2  C16 UNL     1     -11.253  20.497  58.347  1.00  0.00     0.061 C 
HETATM    3  N5  UNL     1     -12.107  19.770  58.595  1.00  0.00    -0.197 NA
ENDROOT
BRANCH   1   4
HETATM    4  C14 UNL     1     -10.635  22.868  58.201  1.00  0.00     0.116 C 
HETATM    5  N4  UNL     1     -11.278  23.111  59.444  1.00  0.00    -0.212 N 
HETATM    6  C2  UNL     1     -10.784  22.936  60.760  1.00  0.00     0.674 C 
HETATM    7  C9  UNL     1     -12.607  23.613  59.204  1.00  0.00     0.150 C 
HETATM    8  N1  UNL     1      -9.918  23.796  61.224  1.00  0.00    -0.231 N 
HETATM    9  N2  UNL     1     -11.154  21.889  61.651  1.00  0.00    -0.215 N 
HETATM   10  C1  UNL     1      -9.345  23.743  62.529  1.00  0.00     0.165 C 
ATOM     11  H1  UNL     1      -9.632  24.560  60.611  1.00  0.00     0.177 HD
HETATM   12  C3  UNL     1     -12.415  21.871  62.345  1.00  0.00     0.171 C 
HETATM   13  C8  UNL     1     -10.174  20.834  61.816  1.00  0.00     0.171 C 
HETATM   14  C4  UNL     1     -12.377  21.149  63.674  1.00  0.00     0.293 C 
HETATM   15  N3  UNL     1     -11.622  19.925  63.429  1.00  0.00     0.093 N 
HETATM   16  C7  UNL     1     -10.248  20.197  63.215  1.00  0.00     0.293 C 
HETATM   17  C10 UNL     1     -12.597  24.105  57.770  1.00  0.00    -0.029 C 
HETATM   18  C11 UNL     1     -12.003  25.490  57.650  1.00  0.00     0.016 C 
HETATM   19  C12 UNL     1     -13.953  24.108  57.132  1.00  0.00     0.016 C 
HETATM   20  C13 UNL     1     -11.648  23.136  57.128  1.00  0.00     0.037 C 
BRANCH  15  21
HETATM   21  C5  UNL     1     -11.994  18.862  64.269  1.00  0.00     0.298 C 
BRANCH  21  22
HETATM   22  C6  UNL     1     -13.489  18.799  64.435  1.00  0.00     0.194 C 
BRANCH  22  23
HETATM   23  O1  UNL     1     -14.026  17.747  63.655  1.00  0.00    -0.399 OA
ATOM     24  H1  UNL     1     -14.611  18.094  62.992  1.00  0.00     0.209 HD
ENDBRANCH  22  23
ENDBRANCH  21  22
ENDBRANCH  15  21
ENDBRANCH   1   4
TORSDOF 4
ENDMDL
MODEL 5
REMARK VINA RESULT: -6.019979584      4.604      8.009
REMARK  4 active torsions:
REMARK  status: ('A' for Active; 'I' for Inactive)
REMARK       I    between atoms: C2_4  and  N2_5 
REMARK       I    between atoms: C2_4  and  N4_15 
REMARK    1  A    between atoms: N3_8  and  C5_9 
REMARK    2  A    between atoms: C5_9  and  C6_10 
REMARK    3  A    between atoms: C6_10  and  O1_11 
REMARK    4  A    between atoms: C14_21  and  C15_22 
ROOT
HETATM    1  C15 UNL     1      -9.171  27.975  61.655  1.00  0.00     0.149 C 
HETATM    2  C16 UNL     1      -9.312  29.058  60.690  1.00  0.00     0.061 C 
HETATM    3  N5  UNL     1      -9.437  29.919  59.940  1.00  0.00    -0.197 NA
ENDROOT
BRANCH   1   4
HETATM    4  C14 UNL     1      -8.314  28.416  62.839  1.00  0.00     0.116 C 
HETATM    5  N4  UNL     1      -8.369  27.500  63.923  1.00  0.00    -0.212 N 
HETATM    6  C2  UNL     1      -8.045  26.122  63.952  1.00  0.00     0.674 C 
HETATM    7  C9  UNL     1      -8.822  28.187  65.106  1.00  0.00     0.150 C 
HETATM    8  N1  UNL     1      -6.786  25.773  63.934  1.00  0.00    -0.231 N 
HETATM    9  N2  UNL     1      -8.982  25.051  64.006  1.00  0.00    -0.215 N 
HETATM   10  C1  UNL     1      -6.319  24.426  63.964  1.00  0.00     0.165 C 
ATOM     11  H1  UNL     1      -6.089  26.516  63.895  1.00  0.00     0.177 HD
HETATM   12  C3  UNL     1      -9.686  24.697  65.211  1.00  0.00     0.171 C 
HETATM   13  C8  UNL     1      -9.184  24.334  62.763  1.00  0.00     0.171 C 
HETATM   14  C4  UNL     1     -10.066  23.235  65.297  1.00  0.00     0.293 C 
HETATM   15  N3  UNL     1     -10.588  22.893  63.978  1.00  0.00     0.093 N 
HETATM   16  C7  UNL     1      -9.559  22.861  63.004  1.00  0.00     0.293 C 
HETATM   17  C10 UNL     1      -8.604  29.661  64.821  1.00  0.00    -0.029 C 
HETATM   18  C11 UNL     1      -7.173  30.080  65.069  1.00  0.00     0.016 C 
HETATM   19  C12 UNL     1      -9.510  30.559  65.607  1.00  0.00     0.016 C 
HETATM   20  C13 UNL     1      -8.856  29.720  63.344  1.00  0.00     0.037 C 
BRANCH  15  21
HETATM   21  C5  UNL     1     -11.545  21.865  64.005  1.00  0.00     0.298 C 
BRANCH  21  22
HETATM   22  C6  UNL     1     -12.135  21.637  62.638  1.00  0.00     0.194 C 
BRANCH  22  23
HETATM   23  O1  UNL     1     -12.140  20.255  62.330  1.00  0.00    -0.399 OA
ATOM     24  H1  UNL     1     -11.711  20.102  61.497  1.00  0.00     0.209 HD
ENDBRANCH  22  23
ENDBRANCH  21  22
ENDBRANCH  15  21
ENDBRANCH   1   4
TORSDOF 4
ENDMDL
