MODEL 1
REMARK VINA RESULT: -10.220296013      0.000      0.000
REMARK  6 active torsions:
REMARK  status: ('A' for Active; 'I' for Inactive)
REMARK    1  A    between atoms: C2_2  and  O1_3 
REMARK    2  A    between atoms: C2_2  and  C3_5 
REMARK    3  A    between atoms: C5_7  and  C6_8 
REMARK    4  A    between atoms: C13_15  and  C14_16 
REMARK    5  A    between atoms: C14_16  and  C16_18 
REMARK    6  A    between atoms: C16_18  and  C17_19 
ROOT
HETATM    1  C3  UNL     1     -11.080  -9.297   7.556  1.00  0.00     0.044 C 
HETATM    2  C4  UNL     1     -10.936  -7.813   7.940  1.00  0.00     0.017 C 
HETATM    3  C5  UNL     1     -12.216  -7.509   8.674  1.00  0.00     0.001 C 
HETATM    4  C9  UNL     1     -13.478  -7.799   7.984  1.00  0.00    -0.009 C 
HETATM    5  C10 UNL     1     -14.516  -8.069   9.103  1.00  0.00     0.018 C 
HETATM    6  C11 UNL     1     -14.041  -6.618   7.210  1.00  0.00     0.015 C 
HETATM    7  C12 UNL     1     -15.451  -6.985   6.739  1.00  0.00     0.033 C 
HETATM    8  C13 UNL     1     -15.487  -8.273   6.009  1.00  0.00     0.126 C 
HETATM    9  O2  UNL     1     -14.260  -8.833   5.923  1.00  0.00    -0.374 OA
HETATM   10  C20 UNL     1     -13.477  -8.953   7.029  1.00  0.00     0.066 C 
HETATM   11  C21 UNL     1     -13.944 -10.219   7.765  1.00  0.00     0.047 C 
HETATM   12  C22 UNL     1     -12.103  -9.302   6.485  1.00  0.00     0.049 C 
ENDROOT
BRANCH   8  13
HETATM   13  C14 UNL     1     -15.945  -8.093   4.520  1.00  0.00     0.011 C 
HETATM   14  C15 UNL     1     -14.905  -8.829   3.681  1.00  0.00     0.012 C 
BRANCH  13  15
HETATM   15  C16 UNL     1     -15.994  -6.671   4.163  1.00  0.00     0.010 C 
BRANCH  15  16
HETATM   16  C17 UNL     1     -17.341  -6.144   3.839  1.00  0.00    -0.022 C 
HETATM   17  C18 UNL     1     -17.932  -5.050   4.626  1.00  0.00     0.009 C 
HETATM   18  C19 UNL     1     -18.373  -7.311   3.800  1.00  0.00     0.009 C 
ENDBRANCH  15  16
ENDBRANCH  13  15
ENDBRANCH   8  13
BRANCH   3  19
HETATM   19  C6  UNL     1     -12.098  -6.172   9.329  1.00  0.00    -0.018 C 
HETATM   20  C7  UNL     1     -12.455  -6.385  10.819  1.00  0.00     0.010 C 
HETATM   21  C8  UNL     1     -10.679  -5.628   9.365  1.00  0.00     0.010 C 
ENDBRANCH   3  19
BRANCH   1  22
HETATM   22  C2  UNL     1      -9.800  -9.906   7.250  1.00  0.00     0.038 C 
HETATM   23  C1  UNL     1      -8.670  -9.290   7.489  1.00  0.00     0.046 C 
BRANCH  22  24
HETATM   24  O1  UNL     1      -9.773 -11.172   6.691  1.00  0.00    -0.365 OA
ATOM     25  H1  UNL     1     -10.296 -11.863   7.082  1.00  0.00     0.217 HD
ENDBRANCH  22  24
ENDBRANCH   1  22
TORSDOF 6
ENDMDL
MODEL 2
REMARK VINA RESULT: -9.316753673      1.743      2.206
REMARK  6 active torsions:
REMARK  status: ('A' for Active; 'I' for Inactive)
REMARK    1  A    between atoms: C2_2  and  O1_3 
REMARK    2  A    between atoms: C2_2  and  C3_5 
REMARK    3  A    between atoms: C5_7  and  C6_8 
REMARK    4  A    between atoms: C13_15  and  C14_16 
REMARK    5  A    between atoms: C14_16  and  C16_18 
REMARK    6  A    between atoms: C16_18  and  C17_19 
ROOT
HETATM    1  C3  UNL     1     -10.206  -7.381   8.359  1.00  0.00     0.044 C 
HETATM    2  C4  UNL     1     -10.816  -6.231   9.183  1.00  0.00     0.017 C 
HETATM    3  C5  UNL     1     -12.044  -6.848   9.801  1.00  0.00     0.001 C 
HETATM    4  C9  UNL     1     -13.012  -7.480   8.898  1.00  0.00    -0.009 C 
HETATM    5  C10 UNL     1     -13.726  -8.567   9.742  1.00  0.00     0.018 C 
HETATM    6  C11 UNL     1     -14.127  -6.550   8.444  1.00  0.00     0.015 C 
HETATM    7  C12 UNL     1     -15.176  -7.386   7.706  1.00  0.00     0.033 C 
HETATM    8  C13 UNL     1     -14.586  -8.213   6.628  1.00  0.00     0.126 C 
HETATM    9  O2  UNL     1     -13.248  -8.038   6.540  1.00  0.00    -0.374 OA
HETATM   10  C20 UNL     1     -12.468  -8.107   7.652  1.00  0.00     0.066 C 
HETATM   11  C21 UNL     1     -12.200  -9.599   7.912  1.00  0.00     0.047 C 
HETATM   12  C22 UNL     1     -11.129  -7.541   7.212  1.00  0.00     0.049 C 
ENDROOT
BRANCH   8  13
HETATM   13  C14 UNL     1     -15.131  -7.813   5.213  1.00  0.00     0.011 C 
HETATM   14  C15 UNL     1     -14.694  -8.933   4.275  1.00  0.00     0.012 C 
BRANCH  13  15
HETATM   15  C16 UNL     1     -14.569  -6.525   4.789  1.00  0.00     0.010 C 
BRANCH  15  16
HETATM   16  C17 UNL     1     -15.477  -5.361   4.925  1.00  0.00    -0.022 C 
HETATM   17  C18 UNL     1     -16.875  -5.440   4.472  1.00  0.00     0.009 C 
HETATM   18  C19 UNL     1     -14.834  -4.105   4.265  1.00  0.00     0.009 C 
ENDBRANCH  15  16
ENDBRANCH  13  15
ENDBRANCH   8  13
BRANCH   3  19
HETATM   19  C6  UNL     1     -12.592  -5.918  10.833  1.00  0.00    -0.018 C 
HETATM   20  C7  UNL     1     -11.489  -5.764  11.907  1.00  0.00     0.010 C 
HETATM   21  C8  UNL     1     -12.814  -4.501  10.328  1.00  0.00     0.010 C 
ENDBRANCH   3  19
BRANCH   1  22
HETATM   22  C2  UNL     1      -8.807  -7.148   8.055  1.00  0.00     0.038 C 
HETATM   23  C1  UNL     1      -7.893  -8.057   8.282  1.00  0.00     0.046 C 
BRANCH  22  24
HETATM   24  O1  UNL     1      -8.431  -5.932   7.511  1.00  0.00    -0.365 OA
ATOM     25  H1  UNL     1      -7.523  -5.659   7.568  1.00  0.00     0.217 HD
ENDBRANCH  22  24
ENDBRANCH   1  22
TORSDOF 6
ENDMDL
MODEL 3
REMARK VINA RESULT: -8.909622142      0.683      1.187
REMARK  6 active torsions:
REMARK  status: ('A' for Active; 'I' for Inactive)
REMARK    1  A    between atoms: C2_2  and  O1_3 
REMARK    2  A    between atoms: C2_2  and  C3_5 
REMARK    3  A    between atoms: C5_7  and  C6_8 
REMARK    4  A    between atoms: C13_15  and  C14_16 
REMARK    5  A    between atoms: C14_16  and  C16_18 
REMARK    6  A    between atoms: C16_18  and  C17_19 
ROOT
HETATM    1  C3  UNL     1     -10.829  -9.257   7.670  1.00  0.00     0.044 C 
HETATM    2  C4  UNL     1     -10.780  -7.769   8.068  1.00  0.00     0.017 C 
HETATM    3  C5  UNL     1     -12.134  -7.520   8.680  1.00  0.00     0.001 C 
HETATM    4  C9  UNL     1     -13.313  -7.857   7.875  1.00  0.00    -0.009 C 
HETATM    5  C10 UNL     1     -14.439  -8.172   8.892  1.00  0.00     0.018 C 
HETATM    6  C11 UNL     1     -13.850  -6.695   7.054  1.00  0.00     0.015 C 
HETATM    7  C12 UNL     1     -15.194  -7.115   6.453  1.00  0.00     0.033 C 
HETATM    8  C13 UNL     1     -15.111  -8.399   5.721  1.00  0.00     0.126 C 
HETATM    9  O2  UNL     1     -13.859  -8.911   5.749  1.00  0.00    -0.374 OA
HETATM   10  C20 UNL     1     -13.178  -9.005   6.923  1.00  0.00     0.066 C 
HETATM   11  C21 UNL     1     -13.661 -10.292   7.611  1.00  0.00     0.047 C 
HETATM   12  C22 UNL     1     -11.747  -9.296   6.509  1.00  0.00     0.049 C 
ENDROOT
BRANCH   8  13
HETATM   13  C14 UNL     1     -15.435  -8.231   4.196  1.00  0.00     0.011 C 
HETATM   14  C15 UNL     1     -15.356  -6.732   3.925  1.00  0.00     0.012 C 
BRANCH  13  15
HETATM   15  C16 UNL     1     -16.774  -8.748   3.894  1.00  0.00     0.010 C 
BRANCH  15  16
HETATM   16  C17 UNL     1     -17.880  -8.141   4.673  1.00  0.00    -0.022 C 
HETATM   17  C18 UNL     1     -18.959  -8.976   5.224  1.00  0.00     0.009 C 
HETATM   18  C19 UNL     1     -18.539  -6.991   3.855  1.00  0.00     0.009 C 
ENDBRANCH  15  16
ENDBRANCH  13  15
ENDBRANCH   8  13
BRANCH   3  19
HETATM   19  C6  UNL     1     -12.131  -6.183   9.344  1.00  0.00    -0.018 C 
HETATM   20  C7  UNL     1     -12.521  -6.431  10.821  1.00  0.00     0.010 C 
HETATM   21  C8  UNL     1     -10.755  -5.542   9.430  1.00  0.00     0.010 C 
ENDBRANCH   3  19
BRANCH   1  22
HETATM   22  C2  UNL     1      -9.502  -9.813   7.484  1.00  0.00     0.038 C 
HETATM   23  C1  UNL     1      -8.423  -9.103   7.694  1.00  0.00     0.046 C 
BRANCH  22  24
HETATM   24  O1  UNL     1      -9.376 -11.129   7.075  1.00  0.00    -0.365 OA
ATOM     25  H1  UNL     1      -9.357 -11.818   7.728  1.00  0.00     0.217 HD
ENDBRANCH  22  24
ENDBRANCH   1  22
TORSDOF 6
ENDMDL
MODEL 4
REMARK VINA RESULT: -7.157848122      2.006      6.749
REMARK  6 active torsions:
REMARK  status: ('A' for Active; 'I' for Inactive)
REMARK    1  A    between atoms: C2_2  and  O1_3 
REMARK    2  A    between atoms: C2_2  and  C3_5 
REMARK    3  A    between atoms: C5_7  and  C6_8 
REMARK    4  A    between atoms: C13_15  and  C14_16 
REMARK    5  A    between atoms: C14_16  and  C16_18 
REMARK    6  A    between atoms: C16_18  and  C17_19 
ROOT
HETATM    1  C3  UNL     1     -15.210  -5.653   5.186  1.00  0.00     0.044 C 
HETATM    2  C4  UNL     1     -15.642  -6.893   4.381  1.00  0.00     0.017 C 
HETATM    3  C5  UNL     1     -15.837  -7.951   5.436  1.00  0.00     0.001 C 
HETATM    4  C9  UNL     1     -14.715  -8.221   6.341  1.00  0.00    -0.009 C 
HETATM    5  C10 UNL     1     -15.351  -8.752   7.651  1.00  0.00     0.018 C 
HETATM    6  C11 UNL     1     -13.803  -9.342   5.872  1.00  0.00     0.015 C 
HETATM    7  C12 UNL     1     -12.825  -9.668   7.004  1.00  0.00     0.033 C 
HETATM    8  C13 UNL     1     -12.117  -8.467   7.505  1.00  0.00     0.126 C 
HETATM    9  O2  UNL     1     -12.497  -7.351   6.843  1.00  0.00    -0.374 OA
HETATM   10  C20 UNL     1     -13.816  -7.068   6.667  1.00  0.00     0.066 C 
HETATM   11  C21 UNL     1     -14.301  -6.398   7.963  1.00  0.00     0.047 C 
HETATM   12  C22 UNL     1     -13.831  -5.963   5.627  1.00  0.00     0.049 C 
ENDROOT
BRANCH   8  13
HETATM   13  C14 UNL     1     -10.569  -8.557   7.274  1.00  0.00     0.011 C 
HETATM   14  C15 UNL     1     -10.270 -10.040   7.077  1.00  0.00     0.012 C 
BRANCH  13  15
HETATM   15  C16 UNL     1      -9.843  -8.027   8.434  1.00  0.00     0.010 C 
BRANCH  15  16
HETATM   16  C17 UNL     1      -8.640  -7.221   8.115  1.00  0.00    -0.022 C 
HETATM   17  C18 UNL     1      -8.514  -6.536   6.819  1.00  0.00     0.009 C 
HETATM   18  C19 UNL     1      -7.356  -8.078   8.326  1.00  0.00     0.009 C 
ENDBRANCH  15  16
ENDBRANCH  13  15
ENDBRANCH   8  13
BRANCH   3  19
HETATM   19  C6  UNL     1     -16.507  -9.136   4.821  1.00  0.00    -0.018 C 
HETATM   20  C7  UNL     1     -18.012  -8.786   4.731  1.00  0.00     0.010 C 
HETATM   21  C8  UNL     1     -16.102  -9.391   3.378  1.00  0.00     0.010 C 
ENDBRANCH   3  19
BRANCH   1  22
HETATM   22  C2  UNL     1     -15.406  -4.425   4.438  1.00  0.00     0.038 C 
HETATM   23  C1  UNL     1     -14.558  -3.431   4.513  1.00  0.00     0.046 C 
BRANCH  22  24
HETATM   24  O1  UNL     1     -16.519  -4.304   3.623  1.00  0.00    -0.365 OA
ATOM     25  H1  UNL     1     -16.468  -4.600   2.721  1.00  0.00     0.217 HD
ENDBRANCH  22  24
ENDBRANCH   1  22
TORSDOF 6
ENDMDL
MODEL 5
REMARK VINA RESULT: -6.858939477      1.104      1.806
REMARK  6 active torsions:
REMARK  status: ('A' for Active; 'I' for Inactive)
REMARK    1  A    between atoms: C2_2  and  O1_3 
REMARK    2  A    between atoms: C2_2  and  C3_5 
REMARK    3  A    between atoms: C5_7  and  C6_8 
REMARK    4  A    between atoms: C13_15  and  C14_16 
REMARK    5  A    between atoms: C14_16  and  C16_18 
REMARK    6  A    between atoms: C16_18  and  C17_19 
ROOT
HETATM    1  C3  UNL     1     -11.192  -9.272   7.592  1.00  0.00     0.044 C 
HETATM    2  C4  UNL     1     -10.977  -7.781   7.915  1.00  0.00     0.017 C 
HETATM    3  C5  UNL     1     -12.114  -7.452   8.846  1.00  0.00     0.001 C 
HETATM    4  C9  UNL     1     -13.475  -7.745   8.385  1.00  0.00    -0.009 C 
HETATM    5  C10 UNL     1     -14.312  -7.984   9.668  1.00  0.00     0.018 C 
HETATM    6  C11 UNL     1     -14.155  -6.575   7.692  1.00  0.00     0.015 C 
HETATM    7  C12 UNL     1     -15.626  -6.939   7.472  1.00  0.00     0.033 C 
HETATM    8  C13 UNL     1     -15.791  -8.240   6.785  1.00  0.00     0.126 C 
HETATM    9  O2  UNL     1     -14.598  -8.813   6.507  1.00  0.00    -0.374 OA
HETATM   10  C20 UNL     1     -13.641  -8.918   7.468  1.00  0.00     0.066 C 
HETATM   11  C21 UNL     1     -13.984 -10.165   8.298  1.00  0.00     0.047 C 
HETATM   12  C22 UNL     1     -12.380  -9.289   6.708  1.00  0.00     0.049 C 
ENDROOT
BRANCH   8  13
HETATM   13  C14 UNL     1     -16.492  -8.086   5.391  1.00  0.00     0.011 C 
HETATM   14  C15 UNL     1     -17.954  -8.452   5.627  1.00  0.00     0.012 C 
BRANCH  13  15
HETATM   15  C16 UNL     1     -15.880  -8.984   4.405  1.00  0.00     0.010 C 
BRANCH  15  16
HETATM   16  C17 UNL     1     -15.252  -8.314   3.241  1.00  0.00    -0.022 C 
HETATM   17  C18 UNL     1     -14.017  -8.846   2.643  1.00  0.00     0.009 C 
HETATM   18  C19 UNL     1     -15.014  -6.807   3.560  1.00  0.00     0.009 C 
ENDBRANCH  15  16
ENDBRANCH  13  15
ENDBRANCH   8  13
BRANCH   3  19
HETATM   19  C6  UNL     1     -11.881  -6.104   9.444  1.00  0.00    -0.018 C 
HETATM   20  C7  UNL     1     -12.008  -6.280  10.976  1.00  0.00     0.010 C 
HETATM   21  C8  UNL     1     -10.466  -5.581   9.250  1.00  0.00     0.010 C 
ENDBRANCH   3  19
BRANCH   1  22
HETATM   22  C2  UNL     1      -9.984  -9.897   7.087  1.00  0.00     0.038 C 
HETATM   23  C1  UNL     1      -8.824  -9.292   7.135  1.00  0.00     0.046 C 
BRANCH  22  24
HETATM   24  O1  UNL     1     -10.061 -11.168   6.543  1.00  0.00    -0.365 OA
ATOM     25  H1  UNL     1     -10.441 -11.280   5.680  1.00  0.00     0.217 HD
ENDBRANCH  22  24
ENDBRANCH   1  22
TORSDOF 6
ENDMDL
