MODEL 1
REMARK VINA RESULT: -7.147260675      0.000      0.000
REMARK  4 active torsions:
REMARK  status: ('A' for Active; 'I' for Inactive)
REMARK       I    between atoms: C2_2  and  N1_4 
REMARK    1  A    between atoms: N1_4  and  C3_6 
REMARK    2  A    between atoms: C4_8  and  C5_9 
REMARK    3  A    between atoms: C9_13  and  O2_14 
REMARK    4  A    between atoms: C10_16  and  C11_17 
ROOT
HETATM    1  C3  UNL     1      12.273  52.400  59.775  1.00  0.00     0.086 A 
HETATM    2  S1  UNL     1      12.634  51.872  58.200  1.00  0.00    -0.073 SA
HETATM    3  C4  UNL     1      13.943  50.822  58.561  1.00  0.00     0.026 A 
HETATM    4  C9  UNL     1      14.044  50.928  59.906  1.00  0.00     0.089 A 
HETATM    5  C10 UNL     1      13.192  51.737  60.554  1.00  0.00     0.018 A 
ENDROOT
BRANCH   1   6
HETATM    6  N1  UNL     1      11.245  53.318  60.115  1.00  0.00    -0.321 N 
HETATM    7  C2  UNL     1       9.893  52.953  59.880  1.00  0.00     0.218 C 
HETATM    8  C1  UNL     1       8.752  53.837  60.198  1.00  0.00     0.117 C 
HETATM    9  O1  UNL     1       9.602  51.823  59.372  1.00  0.00    -0.274 OA
ATOM     10  H1  UNL     1      11.475  54.225  60.521  1.00  0.00     0.169 HD
ENDBRANCH   1   6
BRANCH   5  11
HETATM   11  C11 UNL     1      13.147  51.978  62.049  1.00  0.00    -0.019 C 
HETATM   12  C12 UNL     1      14.144  51.171  62.809  1.00  0.00     0.019 C 
HETATM   13  C13 UNL     1      11.768  51.624  62.538  1.00  0.00     0.019 C 
HETATM   14  C14 UNL     1      13.474  53.446  62.315  1.00  0.00     0.019 C 
ENDBRANCH   5  11
BRANCH   3  15
HETATM   15  C5  UNL     1      14.762  49.995  57.599  1.00  0.00    -0.015 C 
HETATM   16  C6  UNL     1      14.022  50.042  56.277  1.00  0.00     0.020 C 
HETATM   17  C7  UNL     1      14.835  48.567  58.044  1.00  0.00     0.020 C 
HETATM   18  C8  UNL     1      16.119  50.603  57.388  1.00  0.00     0.020 C 
ENDBRANCH   3  15
BRANCH   4  19
HETATM   19  O2  UNL     1      15.041  50.186  60.589  1.00  0.00    -0.359 OA
ATOM     20  H2  UNL     1      15.338  50.481  61.441  1.00  0.00     0.217 HD
ENDBRANCH   4  19
TORSDOF 4
ENDMDL
MODEL 2
REMARK VINA RESULT: -7.023940358      2.111      5.024
REMARK  4 active torsions:
REMARK  status: ('A' for Active; 'I' for Inactive)
REMARK       I    between atoms: C2_2  and  N1_4 
REMARK    1  A    between atoms: N1_4  and  C3_6 
REMARK    2  A    between atoms: C4_8  and  C5_9 
REMARK    3  A    between atoms: C9_13  and  O2_14 
REMARK    4  A    between atoms: C10_16  and  C11_17 
ROOT
HETATM    1  C3  UNL     1      13.272  50.291  59.126  1.00  0.00     0.086 A 
HETATM    2  S1  UNL     1      11.743  50.583  58.444  1.00  0.00    -0.073 SA
HETATM    3  C4  UNL     1      11.038  51.474  59.731  1.00  0.00     0.026 A 
HETATM    4  C9  UNL     1      12.034  51.506  60.646  1.00  0.00     0.089 A 
HETATM    5  C10 UNL     1      13.195  50.903  60.356  1.00  0.00     0.018 A 
ENDROOT
BRANCH   1   6
HETATM    6  N1  UNL     1      14.322  49.570  58.502  1.00  0.00    -0.321 N 
HETATM    7  C2  UNL     1      15.135  50.232  57.545  1.00  0.00     0.218 C 
HETATM    8  C1  UNL     1      16.253  49.569  56.839  1.00  0.00     0.117 C 
HETATM    9  O1  UNL     1      14.930  51.452  57.247  1.00  0.00    -0.274 OA
ATOM     10  H1  UNL     1      14.490  48.591  58.737  1.00  0.00     0.169 HD
ENDBRANCH   1   6
BRANCH   5  11
HETATM   11  C11 UNL     1      14.420  50.840  61.246  1.00  0.00    -0.019 C 
HETATM   12  C12 UNL     1      14.124  51.115  62.681  1.00  0.00     0.019 C 
HETATM   13  C13 UNL     1      15.408  51.864  60.754  1.00  0.00     0.019 C 
HETATM   14  C14 UNL     1      14.999  49.428  61.178  1.00  0.00     0.019 C 
ENDBRANCH   5  11
BRANCH   3  15
HETATM   15  C5  UNL     1       9.650  52.064  59.800  1.00  0.00    -0.015 C 
HETATM   16  C6  UNL     1       8.799  51.235  58.859  1.00  0.00     0.020 C 
HETATM   17  C7  UNL     1       9.643  53.481  59.313  1.00  0.00     0.020 C 
HETATM   18  C8  UNL     1       9.076  51.928  61.181  1.00  0.00     0.020 C 
ENDBRANCH   3  15
BRANCH   4  19
HETATM   19  O2  UNL     1      11.822  52.174  61.879  1.00  0.00    -0.359 OA
ATOM     20  H2  UNL     1      12.459  52.812  62.178  1.00  0.00     0.217 HD
ENDBRANCH   4  19
TORSDOF 4
ENDMDL
MODEL 3
REMARK VINA RESULT: -7.006113381      2.213      5.141
REMARK  4 active torsions:
REMARK  status: ('A' for Active; 'I' for Inactive)
REMARK       I    between atoms: C2_2  and  N1_4 
REMARK    1  A    between atoms: N1_4  and  C3_6 
REMARK    2  A    between atoms: C4_8  and  C5_9 
REMARK    3  A    between atoms: C9_13  and  O2_14 
REMARK    4  A    between atoms: C10_16  and  C11_17 
ROOT
HETATM    1  C3  UNL     1      12.878  50.719  58.812  1.00  0.00     0.086 A 
HETATM    2  S1  UNL     1      11.216  50.553  58.494  1.00  0.00    -0.073 SA
HETATM    3  C4  UNL     1      10.624  51.825  59.482  1.00  0.00     0.026 A 
HETATM    4  C9  UNL     1      11.756  52.330  60.022  1.00  0.00     0.089 A 
HETATM    5  C10 UNL     1      12.931  51.775  59.691  1.00  0.00     0.018 A 
ENDROOT
BRANCH   1   6
HETATM    6  N1  UNL     1      13.902  49.908  58.258  1.00  0.00    -0.321 N 
HETATM    7  C2  UNL     1      14.326  50.154  56.925  1.00  0.00     0.218 C 
HETATM    8  C1  UNL     1      15.384  49.365  56.258  1.00  0.00     0.117 C 
HETATM    9  O1  UNL     1      13.800  51.083  56.234  1.00  0.00    -0.274 OA
ATOM     10  H1  UNL     1      14.326  49.161  58.808  1.00  0.00     0.169 HD
ENDBRANCH   1   6
BRANCH   5  11
HETATM   11  C11 UNL     1      14.297  52.206  60.185  1.00  0.00    -0.019 C 
HETATM   12  C12 UNL     1      14.239  53.211  61.286  1.00  0.00     0.019 C 
HETATM   13  C13 UNL     1      15.046  52.806  59.026  1.00  0.00     0.019 C 
HETATM   14  C14 UNL     1      15.020  50.982  60.744  1.00  0.00     0.019 C 
ENDBRANCH   5  11
BRANCH   3  15
HETATM   15  C5  UNL     1       9.190  52.254  59.681  1.00  0.00    -0.015 C 
HETATM   16  C6  UNL     1       8.351  51.298  58.857  1.00  0.00     0.020 C 
HETATM   17  C7  UNL     1       8.966  53.641  59.160  1.00  0.00     0.020 C 
HETATM   18  C8  UNL     1       8.778  52.106  61.117  1.00  0.00     0.020 C 
ENDBRANCH   3  15
BRANCH   4  19
HETATM   19  O2  UNL     1      11.670  53.426  60.918  1.00  0.00    -0.359 OA
ATOM     20  H2  UNL     1      12.411  53.632  61.474  1.00  0.00     0.217 HD
ENDBRANCH   4  19
TORSDOF 4
ENDMDL
MODEL 4
REMARK VINA RESULT: -6.965010185      1.591      3.416
REMARK  4 active torsions:
REMARK  status: ('A' for Active; 'I' for Inactive)
REMARK       I    between atoms: C2_2  and  N1_4 
REMARK    1  A    between atoms: N1_4  and  C3_6 
REMARK    2  A    between atoms: C4_8  and  C5_9 
REMARK    3  A    between atoms: C9_13  and  O2_14 
REMARK    4  A    between atoms: C10_16  and  C11_17 
ROOT
HETATM    1  C3  UNL     1      13.104  52.593  60.338  1.00  0.00     0.086 A 
HETATM    2  S1  UNL     1      14.554  52.275  59.509  1.00  0.00    -0.073 SA
HETATM    3  C4  UNL     1      13.958  51.176  58.333  1.00  0.00     0.026 A 
HETATM    4  C9  UNL     1      12.642  51.103  58.639  1.00  0.00     0.089 A 
HETATM    5  C10 UNL     1      12.179  51.825  59.669  1.00  0.00     0.018 A 
ENDROOT
BRANCH   1   6
HETATM    6  N1  UNL     1      12.972  53.460  61.453  1.00  0.00    -0.321 N 
HETATM    7  C2  UNL     1      13.532  53.067  62.698  1.00  0.00     0.218 C 
HETATM    8  C1  UNL     1      13.448  53.899  63.917  1.00  0.00     0.117 C 
HETATM    9  O1  UNL     1      14.141  51.957  62.817  1.00  0.00    -0.274 OA
ATOM     10  H1  UNL     1      12.483  54.351  61.362  1.00  0.00     0.169 HD
ENDBRANCH   1   6
BRANCH   5  11
HETATM   11  C11 UNL     1      10.744  51.878  60.154  1.00  0.00    -0.019 C 
HETATM   12  C12 UNL     1       9.821  51.010  59.368  1.00  0.00     0.019 C 
HETATM   13  C13 UNL     1      10.269  53.303  60.051  1.00  0.00     0.019 C 
HETATM   14  C14 UNL     1      10.700  51.377  61.596  1.00  0.00     0.019 C 
ENDBRANCH   5  11
BRANCH   3  15
HETATM   15  C5  UNL     1      14.730  50.478  57.240  1.00  0.00    -0.015 C 
HETATM   16  C6  UNL     1      16.162  50.957  57.371  1.00  0.00     0.020 C 
HETATM   17  C7  UNL     1      14.225  50.876  55.886  1.00  0.00     0.020 C 
HETATM   18  C8  UNL     1      14.723  48.990  57.442  1.00  0.00     0.020 C 
ENDBRANCH   3  15
BRANCH   4  19
HETATM   19  O2  UNL     1      11.794  50.269  57.866  1.00  0.00    -0.359 OA
ATOM     20  H2  UNL     1      12.072  50.000  56.999  1.00  0.00     0.217 HD
ENDBRANCH   4  19
TORSDOF 4
ENDMDL
MODEL 5
REMARK VINA RESULT: -6.915110569      2.118      4.932
REMARK  4 active torsions:
REMARK  status: ('A' for Active; 'I' for Inactive)
REMARK       I    between atoms: C2_2  and  N1_4 
REMARK    1  A    between atoms: N1_4  and  C3_6 
REMARK    2  A    between atoms: C4_8  and  C5_9 
REMARK    3  A    between atoms: C9_13  and  O2_14 
REMARK    4  A    between atoms: C10_16  and  C11_17 
ROOT
HETATM    1  C3  UNL     1      13.320  50.299  59.147  1.00  0.00     0.086 A 
HETATM    2  S1  UNL     1      11.778  50.550  58.477  1.00  0.00    -0.073 SA
HETATM    3  C4  UNL     1      11.081  51.473  59.745  1.00  0.00     0.026 A 
HETATM    4  C9  UNL     1      12.089  51.547  60.645  1.00  0.00     0.089 A 
HETATM    5  C10 UNL     1      13.253  50.949  60.357  1.00  0.00     0.018 A 
ENDROOT
BRANCH   1   6
HETATM    6  N1  UNL     1      14.371  49.571  58.531  1.00  0.00    -0.321 N 
HETATM    7  C2  UNL     1      15.170  50.216  57.550  1.00  0.00     0.218 C 
HETATM    8  C1  UNL     1      16.287  49.545  56.851  1.00  0.00     0.117 C 
HETATM    9  O1  UNL     1      14.952  51.426  57.225  1.00  0.00    -0.274 OA
ATOM     10  H1  UNL     1      14.549  48.600  58.788  1.00  0.00     0.169 HD
ENDBRANCH   1   6
BRANCH   5  11
HETATM   11  C11 UNL     1      14.491  50.930  61.231  1.00  0.00    -0.019 C 
HETATM   12  C12 UNL     1      15.233  49.638  61.179  1.00  0.00     0.019 C 
HETATM   13  C13 UNL     1      14.063  51.182  62.652  1.00  0.00     0.019 C 
HETATM   14  C14 UNL     1      15.452  52.010  60.737  1.00  0.00     0.019 C 
ENDBRANCH   5  11
BRANCH   3  15
HETATM   15  C5  UNL     1       9.686  52.048  59.815  1.00  0.00    -0.015 C 
HETATM   16  C6  UNL     1       8.844  51.212  58.873  1.00  0.00     0.020 C 
HETATM   17  C7  UNL     1       9.664  53.466  59.331  1.00  0.00     0.020 C 
HETATM   18  C8  UNL     1       9.113  51.903  61.195  1.00  0.00     0.020 C 
ENDBRANCH   3  15
BRANCH   4  19
HETATM   19  O2  UNL     1      11.886  52.252  61.859  1.00  0.00    -0.359 OA
ATOM     20  H2  UNL     1      12.636  52.600  62.325  1.00  0.00     0.217 HD
ENDBRANCH   4  19
TORSDOF 4
ENDMDL
