MODEL 1
REMARK VINA RESULT: -7.238712292      0.000      0.000
REMARK  4 active torsions:
REMARK  status: ('A' for Active; 'I' for Inactive)
REMARK    1  A    between atoms: N1_4  and  C4_5 
REMARK    2  A    between atoms: C4_5  and  C5_6 
REMARK       I    between atoms: C5_6  and  N2_8 
REMARK    3  A    between atoms: C8_11  and  O2_12 
REMARK    4  A    between atoms: C11_16  and  C12_17 
ROOT
HETATM    1  C1  UNL     1      -2.218   6.135   9.985  1.00  0.00     0.042 C 
HETATM    2  C2  UNL     1      -3.175   5.052  10.433  1.00  0.00     0.210 C 
HETATM    3  C3  UNL     1      -3.086   4.951  11.913  1.00  0.00     0.306 C 
HETATM    4  N1  UNL     1      -3.764   3.840  12.521  1.00  0.00     0.111 N 
HETATM    5  C11 UNL     1      -3.516   2.624  11.865  1.00  0.00     0.320 C 
HETATM    6  C14 UNL     1      -3.493   2.776  10.338  1.00  0.00     0.274 C 
HETATM    7  N3  UNL     1      -2.595   3.802   9.904  1.00  0.00    -0.067 N 
ATOM      8  H31 UNL     1      -1.624   3.648  10.176  1.00  0.00     0.277 HD
ATOM      9  H32 UNL     1      -2.432   3.813   8.898  1.00  0.00     0.277 HD
ENDROOT
BRANCH   4  10
HETATM   10  C4  UNL     1      -3.538   3.877  13.918  1.00  0.00     0.375 C 
BRANCH  10  11
HETATM   11  C5  UNL     1      -4.771   4.043  14.732  1.00  0.00     0.248 C 
HETATM   12  O1  UNL     1      -5.609   4.966  14.555  1.00  0.00    -0.271 OA
HETATM   13  N2  UNL     1      -5.015   3.119  15.763  1.00  0.00    -0.350 N 
HETATM   14  C6  UNL     1      -4.101   2.053  16.067  1.00  0.00     0.128 C 
HETATM   15  C10 UNL     1      -6.224   3.225  16.544  1.00  0.00     0.128 C 
HETATM   16  C7  UNL     1      -4.883   0.759  16.097  1.00  0.00     0.051 C 
HETATM   17  C8  UNL     1      -5.987   0.787  17.116  1.00  0.00     0.121 C 
HETATM   18  C9  UNL     1      -6.308   2.165  17.614  1.00  0.00     0.051 C 
BRANCH  17  19
HETATM   19  O2  UNL     1      -7.163   0.189  16.640  1.00  0.00    -0.395 OA
ATOM     20  H2  UNL     1      -7.546   0.675  15.919  1.00  0.00     0.210 HD
ENDBRANCH  17  19
ENDBRANCH  10  11
ENDBRANCH   4  10
BRANCH   5  21
HETATM   21  C12 UNL     1      -4.531   1.524  12.091  1.00  0.00     0.272 C 
HETATM   22  C13 UNL     1      -4.662   0.714  10.841  1.00  0.00     0.092 C 
HETATM   23  F1  UNL     1      -5.690   1.899  12.675  1.00  0.00    -0.204 F 
HETATM   24  F2  UNL     1      -3.913   0.668  13.028  1.00  0.00    -0.204 F 
ENDBRANCH   5  21
TORSDOF 4
ENDMDL
MODEL 2
REMARK VINA RESULT: -6.727776517      2.536      6.523
REMARK  4 active torsions:
REMARK  status: ('A' for Active; 'I' for Inactive)
REMARK    1  A    between atoms: N1_4  and  C4_5 
REMARK    2  A    between atoms: C4_5  and  C5_6 
REMARK       I    between atoms: C5_6  and  N2_8 
REMARK    3  A    between atoms: C8_11  and  O2_12 
REMARK    4  A    between atoms: C11_16  and  C12_17 
ROOT
HETATM    1  C1  UNL     1      -7.008   0.864  17.217  1.00  0.00     0.042 C 
HETATM    2  C2  UNL     1      -6.844   2.106  16.367  1.00  0.00     0.210 C 
HETATM    3  C3  UNL     1      -5.662   1.902  15.490  1.00  0.00     0.306 C 
HETATM    4  N1  UNL     1      -5.210   3.046  14.749  1.00  0.00     0.111 N 
HETATM    5  C11 UNL     1      -5.126   4.207  15.533  1.00  0.00     0.320 C 
HETATM    6  C14 UNL     1      -6.296   4.335  16.518  1.00  0.00     0.274 C 
HETATM    7  N3  UNL     1      -6.463   3.163  17.323  1.00  0.00    -0.067 N 
ATOM      8  H31 UNL     1      -5.651   2.933  17.896  1.00  0.00     0.277 HD
ATOM      9  H32 UNL     1      -7.119   3.281  18.096  1.00  0.00     0.277 HD
ENDROOT
BRANCH   4  10
HETATM   10  C4  UNL     1      -4.060   2.685  14.007  1.00  0.00     0.375 C 
BRANCH  10  11
HETATM   11  C5  UNL     1      -4.263   2.663  12.535  1.00  0.00     0.248 C 
HETATM   12  O1  UNL     1      -5.277   2.170  11.973  1.00  0.00    -0.271 OA
HETATM   13  N2  UNL     1      -3.265   3.225  11.718  1.00  0.00    -0.350 N 
HETATM   14  C6  UNL     1      -2.056   3.780  12.261  1.00  0.00     0.128 C 
HETATM   15  C10 UNL     1      -3.451   3.260  10.287  1.00  0.00     0.128 C 
HETATM   16  C7  UNL     1      -1.882   5.170  11.691  1.00  0.00     0.051 C 
HETATM   17  C8  UNL     1      -1.809   5.163  10.190  1.00  0.00     0.121 C 
HETATM   18  C9  UNL     1      -2.274   3.877   9.574  1.00  0.00     0.051 C 
BRANCH  17  19
HETATM   19  O2  UNL     1      -2.523   6.226   9.620  1.00  0.00    -0.395 OA
ATOM     20  H2  UNL     1      -2.506   6.203   8.671  1.00  0.00     0.210 HD
ENDBRANCH  17  19
ENDBRANCH  10  11
ENDBRANCH   4  10
BRANCH   5  21
HETATM   21  C12 UNL     1      -5.154   5.523  14.787  1.00  0.00     0.272 C 
HETATM   22  C13 UNL     1      -6.375   5.572  13.925  1.00  0.00     0.092 C 
HETATM   23  F1  UNL     1      -3.997   5.891  14.193  1.00  0.00    -0.204 F 
HETATM   24  F2  UNL     1      -5.368   6.489  15.793  1.00  0.00    -0.204 F 
ENDBRANCH   5  21
TORSDOF 4
ENDMDL
MODEL 3
REMARK VINA RESULT: -6.531710477      2.042      2.691
REMARK  4 active torsions:
REMARK  status: ('A' for Active; 'I' for Inactive)
REMARK    1  A    between atoms: N1_4  and  C4_5 
REMARK    2  A    between atoms: C4_5  and  C5_6 
REMARK       I    between atoms: C5_6  and  N2_8 
REMARK    3  A    between atoms: C8_11  and  O2_12 
REMARK    4  A    between atoms: C11_16  and  C12_17 
ROOT
HETATM    1  C1  UNL     1      -2.238   7.614  14.345  1.00  0.00     0.042 C 
HETATM    2  C2  UNL     1      -2.580   6.857  13.079  1.00  0.00     0.210 C 
HETATM    3  C3  UNL     1      -3.166   5.550  13.476  1.00  0.00     0.306 C 
HETATM    4  N1  UNL     1      -3.370   4.595  12.424  1.00  0.00     0.111 N 
HETATM    5  C11 UNL     1      -2.258   4.470  11.575  1.00  0.00     0.320 C 
HETATM    6  C14 UNL     1      -1.596   5.822  11.276  1.00  0.00     0.274 C 
HETATM    7  N3  UNL     1      -1.274   6.548  12.467  1.00  0.00    -0.067 N 
ATOM      8  H31 UNL     1      -0.628   6.062  13.089  1.00  0.00     0.277 HD
ATOM      9  H32 UNL     1      -0.685   7.366  12.308  1.00  0.00     0.277 HD
ENDROOT
BRANCH   4  10
HETATM   10  C4  UNL     1      -3.889   3.403  12.984  1.00  0.00     0.375 C 
BRANCH  10  11
HETATM   11  C5  UNL     1      -5.103   3.598  13.820  1.00  0.00     0.248 C 
HETATM   12  O1  UNL     1      -6.079   4.319  13.483  1.00  0.00    -0.271 OA
HETATM   13  N2  UNL     1      -5.165   2.942  15.062  1.00  0.00    -0.350 N 
HETATM   14  C6  UNL     1      -4.088   2.127  15.552  1.00  0.00     0.128 C 
HETATM   15  C10 UNL     1      -6.348   3.075  15.880  1.00  0.00     0.128 C 
HETATM   16  C7  UNL     1      -4.662   0.788  15.959  1.00  0.00     0.051 C 
HETATM   17  C8  UNL     1      -5.720   0.922  17.017  1.00  0.00     0.121 C 
HETATM   18  C9  UNL     1      -6.230   2.323  17.181  1.00  0.00     0.051 C 
BRANCH  17  19
HETATM   19  O2  UNL     1      -6.806   0.065  16.791  1.00  0.00    -0.395 OA
ATOM     20  H2  UNL     1      -6.974  -0.067  15.865  1.00  0.00     0.210 HD
ENDBRANCH  17  19
ENDBRANCH  10  11
ENDBRANCH   4  10
BRANCH   5  21
HETATM   21  C12 UNL     1      -2.527   3.902  10.199  1.00  0.00     0.272 C 
HETATM   22  C13 UNL     1      -2.987   5.002   9.296  1.00  0.00     0.092 C 
HETATM   23  F1  UNL     1      -3.254   2.764  10.160  1.00  0.00    -0.204 F 
HETATM   24  F2  UNL     1      -1.252   3.534   9.720  1.00  0.00    -0.204 F 
ENDBRANCH   5  21
TORSDOF 4
ENDMDL
MODEL 4
REMARK VINA RESULT: -6.472500806      2.916      3.701
REMARK  4 active torsions:
REMARK  status: ('A' for Active; 'I' for Inactive)
REMARK    1  A    between atoms: N1_4  and  C4_5 
REMARK    2  A    between atoms: C4_5  and  C5_6 
REMARK       I    between atoms: C5_6  and  N2_8 
REMARK    3  A    between atoms: C8_11  and  O2_12 
REMARK    4  A    between atoms: C11_16  and  C12_17 
ROOT
HETATM    1  C1  UNL     1      -1.001   7.341  13.491  1.00  0.00     0.042 C 
HETATM    2  C2  UNL     1      -2.465   7.543  13.165  1.00  0.00     0.210 C 
HETATM    3  C3  UNL     1      -3.160   6.245  13.371  1.00  0.00     0.306 C 
HETATM    4  N1  UNL     1      -4.520   6.168  12.919  1.00  0.00     0.111 N 
HETATM    5  C11 UNL     1      -4.699   6.695  11.629  1.00  0.00     0.320 C 
HETATM    6  C14 UNL     1      -3.877   7.970  11.399  1.00  0.00     0.274 C 
HETATM    7  N3  UNL     1      -2.491   7.792  11.711  1.00  0.00    -0.067 N 
ATOM      8  H31 UNL     1      -2.030   7.069  11.158  1.00  0.00     0.277 HD
ATOM      9  H32 UNL     1      -1.895   8.563  11.410  1.00  0.00     0.277 HD
ENDROOT
BRANCH   4  10
HETATM   10  C4  UNL     1      -5.006   4.859  13.153  1.00  0.00     0.375 C 
BRANCH  10  11
HETATM   11  C5  UNL     1      -5.784   4.711  14.411  1.00  0.00     0.248 C 
HETATM   12  O1  UNL     1      -6.729   5.474  14.746  1.00  0.00    -0.271 OA
HETATM   13  N2  UNL     1      -5.445   3.661  15.282  1.00  0.00    -0.350 N 
HETATM   14  C6  UNL     1      -4.360   2.759  15.007  1.00  0.00     0.128 C 
HETATM   15  C10 UNL     1      -6.208   3.462  16.491  1.00  0.00     0.128 C 
HETATM   16  C7  UNL     1      -4.882   1.346  15.133  1.00  0.00     0.051 C 
HETATM   17  C8  UNL     1      -5.440   1.067  16.500  1.00  0.00     0.121 C 
HETATM   18  C9  UNL     1      -5.691   2.305  17.308  1.00  0.00     0.051 C 
BRANCH  17  19
HETATM   19  O2  UNL     1      -6.619   0.310  16.447  1.00  0.00    -0.395 OA
ATOM     20  H2  UNL     1      -6.522  -0.470  15.914  1.00  0.00     0.210 HD
ENDBRANCH  17  19
ENDBRANCH  10  11
ENDBRANCH   4  10
BRANCH   5  21
HETATM   21  C12 UNL     1      -6.106   7.117  11.268  1.00  0.00     0.272 C 
HETATM   22  C13 UNL     1      -6.082   8.527  10.772  1.00  0.00     0.092 C 
HETATM   23  F1  UNL     1      -7.063   6.827  12.176  1.00  0.00    -0.204 F 
HETATM   24  F2  UNL     1      -6.426   6.330  10.141  1.00  0.00    -0.204 F 
ENDBRANCH   5  21
TORSDOF 4
ENDMDL
MODEL 5
REMARK VINA RESULT: -6.446739476      3.296      6.435
REMARK  4 active torsions:
REMARK  status: ('A' for Active; 'I' for Inactive)
REMARK    1  A    between atoms: N1_4  and  C4_5 
REMARK    2  A    between atoms: C4_5  and  C5_6 
REMARK       I    between atoms: C5_6  and  N2_8 
REMARK    3  A    between atoms: C8_11  and  O2_12 
REMARK    4  A    between atoms: C11_16  and  C12_17 
ROOT
HETATM    1  C1  UNL     1      -4.125   0.399  11.998  1.00  0.00     0.042 C 
HETATM    2  C2  UNL     1      -4.846   1.615  12.538  1.00  0.00     0.210 C 
HETATM    3  C3  UNL     1      -4.163   2.822  12.004  1.00  0.00     0.306 C 
HETATM    4  N1  UNL     1      -4.564   4.084  12.560  1.00  0.00     0.111 N 
HETATM    5  C11 UNL     1      -4.640   4.064  13.961  1.00  0.00     0.320 C 
HETATM    6  C14 UNL     1      -5.238   2.756  14.496  1.00  0.00     0.274 C 
HETATM    7  N3  UNL     1      -4.568   1.599  13.987  1.00  0.00    -0.067 N 
ATOM      8  H31 UNL     1      -3.575   1.557  14.219  1.00  0.00     0.277 HD
ATOM      9  H32 UNL     1      -4.830   0.729  14.451  1.00  0.00     0.277 HD
ENDROOT
BRANCH   4  10
HETATM   10  C4  UNL     1      -3.787   5.110  11.971  1.00  0.00     0.375 C 
BRANCH  10  11
HETATM   11  C5  UNL     1      -4.125   5.397  10.552  1.00  0.00     0.248 C 
HETATM   12  O1  UNL     1      -3.803   4.651   9.590  1.00  0.00    -0.271 OA
HETATM   13  N2  UNL     1      -4.845   6.569  10.265  1.00  0.00    -0.350 N 
HETATM   14  C6  UNL     1      -5.228   7.502  11.289  1.00  0.00     0.128 C 
HETATM   15  C10 UNL     1      -5.228   6.856   8.903  1.00  0.00     0.128 C 
HETATM   16  C7  UNL     1      -6.710   7.768  11.151  1.00  0.00     0.051 C 
HETATM   17  C8  UNL     1      -7.063   8.324   9.800  1.00  0.00     0.121 C 
HETATM   18  C9  UNL     1      -5.974   8.161   8.782  1.00  0.00     0.051 C 
BRANCH  17  19
HETATM   19  O2  UNL     1      -8.248   7.770   9.293  1.00  0.00    -0.395 OA
ATOM     20  H2  UNL     1      -9.020   8.134   9.709  1.00  0.00     0.210 HD
ENDBRANCH  17  19
ENDBRANCH  10  11
ENDBRANCH   4  10
BRANCH   5  21
HETATM   21  C12 UNL     1      -5.505   5.129  14.600  1.00  0.00     0.272 C 
HETATM   22  C13 UNL     1      -6.046   4.611  15.893  1.00  0.00     0.092 C 
HETATM   23  F1  UNL     1      -6.398   5.733  13.785  1.00  0.00    -0.204 F 
HETATM   24  F2  UNL     1      -4.595   6.147  14.956  1.00  0.00    -0.204 F 
ENDBRANCH   5  21
TORSDOF 4
ENDMDL
