MODEL 1
REMARK VINA RESULT: -7.656552881      0.000      0.000
REMARK  4 active torsions:
REMARK  status: ('A' for Active; 'I' for Inactive)
REMARK    1  A    between atoms: O1_1  and  C1_3 
REMARK    2  A    between atoms: C1_3  and  C2_4 
REMARK    3  A    between atoms: C3_6  and  C4_7 
REMARK    4  A    between atoms: C6_12  and  O4_13 
ROOT
HETATM    1  C2  UNL     1      -3.969   1.733  12.668  1.00  0.00     0.155 C 
HETATM    2  O2  UNL     1      -2.744   2.036  12.168  1.00  0.00    -0.348 OA
HETATM    3  C3  UNL     1      -2.326   3.309  12.176  1.00  0.00     0.325 C 
HETATM    4  O3  UNL     1      -3.272   4.290  12.297  1.00  0.00    -0.347 OA
HETATM    5  C5  UNL     1      -3.881   4.062  13.558  1.00  0.00     0.162 C 
HETATM    6  C6  UNL     1      -4.702   5.302  13.792  1.00  0.00     0.165 C 
HETATM    7  C7  UNL     1      -5.330   5.183  15.162  1.00  0.00     0.148 C 
HETATM    8  N1  UNL     1      -6.452   4.329  15.029  1.00  0.00    -0.414 N 
ATOM      9  H1  UNL     1      -7.351   4.672  14.695  1.00  0.00     0.153 HD
HETATM   10  C8  UNL     1      -6.257   2.967  15.388  1.00  0.00     0.081 C 
HETATM   11  C9  UNL     1      -5.968   2.859  16.880  1.00  0.00     0.025 C 
HETATM   12  C10 UNL     1      -5.015   1.707  16.949  1.00  0.00     0.002 C 
HETATM   13  C11 UNL     1      -4.139   1.963  15.713  1.00  0.00     0.007 C 
HETATM   14  C12 UNL     1      -5.198   2.234  14.688  1.00  0.00     0.017 C 
HETATM   15  C13 UNL     1      -4.678   2.818  13.414  1.00  0.00     0.054 C 
ENDROOT
BRANCH   1  16
HETATM   16  C1  UNL     1      -4.815   1.203  11.497  1.00  0.00     0.196 C 
BRANCH  16  17
HETATM   17  O1  UNL     1      -5.469   2.258  10.857  1.00  0.00    -0.398 OA
ATOM     18  H1  UNL     1      -4.889   2.671  10.229  1.00  0.00     0.209 HD
ENDBRANCH  16  17
ENDBRANCH   1  16
BRANCH   3  19
HETATM   19  C4  UNL     1      -1.520   3.613  10.909  1.00  0.00     0.407 C 
HETATM   20  F1  UNL     1      -0.267   3.064  10.961  1.00  0.00    -0.209 F 
HETATM   21  F2  UNL     1      -2.223   3.222   9.787  1.00  0.00    -0.209 F 
ENDBRANCH   3  19
BRANCH   6  22
HETATM   22  O4  UNL     1      -5.612   5.558  12.795  1.00  0.00    -0.391 OA
ATOM     23  H4  UNL     1      -6.087   6.373  12.912  1.00  0.00     0.210 HD
ENDBRANCH   6  22
TORSDOF 4
ENDMDL
MODEL 2
REMARK VINA RESULT: -6.907315080      0.819      1.074
REMARK  4 active torsions:
REMARK  status: ('A' for Active; 'I' for Inactive)
REMARK    1  A    between atoms: O1_1  and  C1_3 
REMARK    2  A    between atoms: C1_3  and  C2_4 
REMARK    3  A    between atoms: C3_6  and  C4_7 
REMARK    4  A    between atoms: C6_12  and  O4_13 
ROOT
HETATM    1  C2  UNL     1      -3.630   2.093  12.260  1.00  0.00     0.155 C 
HETATM    2  O2  UNL     1      -2.333   2.294  11.915  1.00  0.00    -0.348 OA
HETATM    3  C3  UNL     1      -1.804   3.520  12.031  1.00  0.00     0.325 C 
HETATM    4  O3  UNL     1      -2.663   4.582  12.094  1.00  0.00    -0.347 OA
HETATM    5  C5  UNL     1      -3.432   4.367  13.266  1.00  0.00     0.162 C 
HETATM    6  C6  UNL     1      -4.157   5.670  13.468  1.00  0.00     0.165 C 
HETATM    7  C7  UNL     1      -4.947   5.561  14.753  1.00  0.00     0.148 C 
HETATM    8  N1  UNL     1      -6.119   4.825  14.455  1.00  0.00    -0.414 N 
ATOM      9  H1  UNL     1      -6.939   5.266  14.039  1.00  0.00     0.153 HD
HETATM   10  C8  UNL     1      -6.093   3.438  14.766  1.00  0.00     0.081 C 
HETATM   11  C9  UNL     1      -5.988   3.246  16.274  1.00  0.00     0.025 C 
HETATM   12  C10 UNL     1      -5.160   2.005  16.392  1.00  0.00     0.002 C 
HETATM   13  C11 UNL     1      -4.128   2.222  15.275  1.00  0.00     0.007 C 
HETATM   14  C12 UNL     1      -5.032   2.633  14.153  1.00  0.00     0.017 C 
HETATM   15  C13 UNL     1      -4.318   3.212  12.974  1.00  0.00     0.054 C 
ENDROOT
BRANCH   1  16
HETATM   16  C1  UNL     1      -4.380   1.691  10.978  1.00  0.00     0.196 C 
BRANCH  16  17
HETATM   17  O1  UNL     1      -5.757   1.678  11.209  1.00  0.00    -0.398 OA
ATOM     18  H1  UNL     1      -6.042   0.802  11.439  1.00  0.00     0.209 HD
ENDBRANCH  16  17
ENDBRANCH   1  16
BRANCH   3  19
HETATM   19  C4  UNL     1      -0.832   3.792  10.877  1.00  0.00     0.407 C 
HETATM   20  F1  UNL     1      -1.491   4.143   9.731  1.00  0.00    -0.209 F 
HETATM   21  F2  UNL     1       0.111   4.728  11.254  1.00  0.00    -0.209 F 
ENDBRANCH   3  19
BRANCH   6  22
HETATM   22  O4  UNL     1      -4.919   6.051  12.390  1.00  0.00    -0.391 OA
ATOM     23  H4  UNL     1      -4.996   6.993  12.290  1.00  0.00     0.210 HD
ENDBRANCH   6  22
TORSDOF 4
ENDMDL
MODEL 3
REMARK VINA RESULT: -6.901010653      3.320      5.248
REMARK  4 active torsions:
REMARK  status: ('A' for Active; 'I' for Inactive)
REMARK    1  A    between atoms: O1_1  and  C1_3 
REMARK    2  A    between atoms: C1_3  and  C2_4 
REMARK    3  A    between atoms: C3_6  and  C4_7 
REMARK    4  A    between atoms: C6_12  and  O4_13 
ROOT
HETATM    1  C2  UNL     1      -4.970   4.366  14.822  1.00  0.00     0.155 C 
HETATM    2  O2  UNL     1      -5.024   3.405  15.780  1.00  0.00    -0.348 OA
HETATM    3  C3  UNL     1      -4.971   2.115  15.421  1.00  0.00     0.325 C 
HETATM    4  O3  UNL     1      -5.275   1.801  14.125  1.00  0.00    -0.347 OA
HETATM    5  C5  UNL     1      -4.299   2.472  13.344  1.00  0.00     0.162 C 
HETATM    6  C6  UNL     1      -4.473   1.888  11.968  1.00  0.00     0.165 C 
HETATM    7  C7  UNL     1      -3.411   2.491  11.076  1.00  0.00     0.148 C 
HETATM    8  N1  UNL     1      -3.864   3.782  10.710  1.00  0.00    -0.414 N 
ATOM      9  H1  UNL     1      -4.523   3.922   9.945  1.00  0.00     0.153 HD
HETATM   10  C8  UNL     1      -3.350   4.872  11.465  1.00  0.00     0.081 C 
HETATM   11  C9  UNL     1      -1.849   5.000  11.236  1.00  0.00     0.025 C 
HETATM   12  C10 UNL     1      -1.353   5.480  12.564  1.00  0.00     0.002 C 
HETATM   13  C11 UNL     1      -2.213   4.648  13.528  1.00  0.00     0.007 C 
HETATM   14  C12 UNL     1      -3.567   4.845  12.914  1.00  0.00     0.017 C 
HETATM   15  C13 UNL     1      -4.615   3.919  13.440  1.00  0.00     0.054 C 
ENDROOT
BRANCH   1  16
HETATM   16  C1  UNL     1      -6.318   5.108  14.852  1.00  0.00     0.196 C 
BRANCH  16  17
HETATM   17  O1  UNL     1      -6.890   5.118  13.578  1.00  0.00    -0.398 OA
ATOM     18  H1  UNL     1      -7.834   5.033  13.642  1.00  0.00     0.209 HD
ENDBRANCH  16  17
ENDBRANCH   1  16
BRANCH   3  19
HETATM   19  C4  UNL     1      -5.889   1.276  16.317  1.00  0.00     0.407 C 
HETATM   20  F1  UNL     1      -5.318   1.024  17.534  1.00  0.00    -0.209 F 
HETATM   21  F2  UNL     1      -7.130   1.873  16.427  1.00  0.00    -0.209 F 
ENDBRANCH   3  19
BRANCH   6  22
HETATM   22  O4  UNL     1      -5.746   2.023  11.468  1.00  0.00    -0.391 OA
ATOM     23  H4  UNL     1      -5.987   2.922  11.274  1.00  0.00     0.210 HD
ENDBRANCH   6  22
TORSDOF 4
ENDMDL
MODEL 4
REMARK VINA RESULT: -6.871458358      3.291      4.792
REMARK  4 active torsions:
REMARK  status: ('A' for Active; 'I' for Inactive)
REMARK    1  A    between atoms: O1_1  and  C1_3 
REMARK    2  A    between atoms: C1_3  and  C2_4 
REMARK    3  A    between atoms: C3_6  and  C4_7 
REMARK    4  A    between atoms: C6_12  and  O4_13 
ROOT
HETATM    1  C2  UNL     1      -5.064   3.046  12.895  1.00  0.00     0.155 C 
HETATM    2  O2  UNL     1      -5.269   2.629  14.169  1.00  0.00    -0.348 OA
HETATM    3  C3  UNL     1      -4.389   2.965  15.122  1.00  0.00     0.325 C 
HETATM    4  O3  UNL     1      -3.137   3.350  14.726  1.00  0.00    -0.347 OA
HETATM    5  C5  UNL     1      -3.340   4.514  13.942  1.00  0.00     0.162 C 
HETATM    6  C6  UNL     1      -1.955   5.075  13.762  1.00  0.00     0.165 C 
HETATM    7  C7  UNL     1      -2.081   6.374  12.998  1.00  0.00     0.148 C 
HETATM    8  N1  UNL     1      -2.244   6.035  11.633  1.00  0.00    -0.414 N 
ATOM      9  H1  UNL     1      -1.447   5.812  11.037  1.00  0.00     0.153 HD
HETATM   10  C8  UNL     1      -3.576   6.021  11.137  1.00  0.00     0.081 C 
HETATM   11  C9  UNL     1      -4.157   7.430  11.172  1.00  0.00     0.025 C 
HETATM   12  C10 UNL     1      -5.602   7.183  11.473  1.00  0.00     0.002 C 
HETATM   13  C11 UNL     1      -5.508   6.047  12.503  1.00  0.00     0.007 C 
HETATM   14  C12 UNL     1      -4.534   5.141  11.812  1.00  0.00     0.017 C 
HETATM   15  C13 UNL     1      -3.984   4.059  12.684  1.00  0.00     0.054 C 
ENDROOT
BRANCH   1  16
HETATM   16  C1  UNL     1      -4.837   1.787  12.039  1.00  0.00     0.196 C 
BRANCH  16  17
HETATM   17  O1  UNL     1      -5.762   1.740  10.995  1.00  0.00    -0.398 OA
ATOM     18  H1  UNL     1      -6.646   1.711  11.341  1.00  0.00     0.209 HD
ENDBRANCH  16  17
ENDBRANCH   1  16
BRANCH   3  19
HETATM   19  C4  UNL     1      -4.214   1.812  16.117  1.00  0.00     0.407 C 
HETATM   20  F1  UNL     1      -4.998   1.976  17.226  1.00  0.00    -0.209 F 
HETATM   21  F2  UNL     1      -4.429   0.600  15.490  1.00  0.00    -0.209 F 
ENDBRANCH   3  19
BRANCH   6  22
HETATM   22  O4  UNL     1      -1.070   4.191  13.192  1.00  0.00    -0.391 OA
ATOM     23  H4  UNL     1      -0.701   4.495  12.371  1.00  0.00     0.210 HD
ENDBRANCH   6  22
TORSDOF 4
ENDMDL
MODEL 5
REMARK VINA RESULT: -6.659112312      1.928      3.538
REMARK  4 active torsions:
REMARK  status: ('A' for Active; 'I' for Inactive)
REMARK    1  A    between atoms: O1_1  and  C1_3 
REMARK    2  A    between atoms: C1_3  and  C2_4 
REMARK    3  A    between atoms: C3_6  and  C4_7 
REMARK    4  A    between atoms: C6_12  and  O4_13 
ROOT
HETATM    1  C2  UNL     1      -2.777   5.639  12.549  1.00  0.00     0.155 C 
HETATM    2  O2  UNL     1      -2.957   6.020  11.258  1.00  0.00    -0.348 OA
HETATM    3  C3  UNL     1      -3.359   5.115  10.355  1.00  0.00     0.325 C 
HETATM    4  O3  UNL     1      -3.181   3.793  10.655  1.00  0.00    -0.347 OA
HETATM    5  C5  UNL     1      -3.961   3.569  11.818  1.00  0.00     0.162 C 
HETATM    6  C6  UNL     1      -3.981   2.070  11.959  1.00  0.00     0.165 C 
HETATM    7  C7  UNL     1      -4.865   1.732  13.138  1.00  0.00     0.148 C 
HETATM    8  N1  UNL     1      -4.094   1.945  14.306  1.00  0.00    -0.414 N 
ATOM      9  H1  UNL     1      -3.439   1.244  14.652  1.00  0.00     0.153 HD
HETATM   10  C8  UNL     1      -4.281   3.187  14.972  1.00  0.00     0.081 C 
HETATM   11  C9  UNL     1      -5.699   3.271  15.524  1.00  0.00     0.025 C 
HETATM   12  C10 UNL     1      -6.019   4.727  15.390  1.00  0.00     0.002 C 
HETATM   13  C11 UNL     1      -5.389   5.053  14.028  1.00  0.00     0.007 C 
HETATM   14  C12 UNL     1      -4.046   4.407  14.194  1.00  0.00     0.017 C 
HETATM   15  C13 UNL     1      -3.269   4.278  12.924  1.00  0.00     0.054 C 
ENDROOT
BRANCH   1  16
HETATM   16  C1  UNL     1      -1.279   5.808  12.863  1.00  0.00     0.196 C 
BRANCH  16  17
HETATM   17  O1  UNL     1      -0.577   4.659  12.494  1.00  0.00    -0.398 OA
ATOM     18  H1  UNL     1       0.116   4.483  13.120  1.00  0.00     0.209 HD
ENDBRANCH  16  17
ENDBRANCH   1  16
BRANCH   3  19
HETATM   19  C4  UNL     1      -2.676   5.369   9.007  1.00  0.00     0.407 C 
HETATM   20  F1  UNL     1      -1.418   5.883   9.164  1.00  0.00    -0.209 F 
HETATM   21  F2  UNL     1      -2.687   4.221   8.239  1.00  0.00    -0.209 F 
ENDBRANCH   3  19
BRANCH   6  22
HETATM   22  O4  UNL     1      -2.730   1.507  12.035  1.00  0.00    -0.391 OA
ATOM     23  H4  UNL     1      -2.731   0.619  12.376  1.00  0.00     0.210 HD
ENDBRANCH   6  22
TORSDOF 4
ENDMDL
