MODEL 1
REMARK VINA RESULT: -6.250947059      0.000      0.000
REMARK  4 active torsions:
REMARK  status: ('A' for Active; 'I' for Inactive)
REMARK    1  A    between atoms: C1_2  and  C2_4 
REMARK    2  A    between atoms: C3_6  and  C4_7 
REMARK       I    between atoms: C4_7  and  N1_9 
REMARK    3  A    between atoms: N1_9  and  C5_11 
REMARK    4  A    between atoms: C6_14  and  O5_15 
ROOT
HETATM    1  C2  UNL     1      -4.379   2.494  14.823  1.00  0.00     0.223 C 
HETATM    2  O3  UNL     1      -3.333   3.069  14.151  1.00  0.00    -0.322 OA
HETATM    3  C3  UNL     1      -4.235   3.795  13.406  1.00  0.00     0.242 C 
HETATM    4  S1  UNL     1      -5.264   2.356  13.261  1.00  0.00    -0.066 SA
HETATM    5  C6  UNL     1      -4.950   4.693  14.424  1.00  0.00     0.205 C 
HETATM    6 CL2  UNL     1      -4.000   6.104  14.852  1.00  0.00    -0.082 Cl
HETATM    7  C7  UNL     1      -5.006   3.666  15.572  1.00  0.00     0.193 C 
HETATM    8 CL3  UNL     1      -6.649   3.344  16.083  1.00  0.00    -0.116 Cl
ENDROOT
BRANCH   3   9
HETATM    9  C4  UNL     1      -3.745   4.444  12.203  1.00  0.00     0.268 C 
HETATM   10  O4  UNL     1      -4.585   5.128  11.526  1.00  0.00    -0.269 OA
HETATM   11  N1  UNL     1      -2.413   4.376  11.726  1.00  0.00    -0.345 N 
ATOM     12  H1  UNL     1      -1.722   3.836  12.248  1.00  0.00     0.163 HD
BRANCH  11  13
HETATM   13  C5  UNL     1      -2.011   5.057  10.512  1.00  0.00     0.238 C 
HETATM   14 CL1  UNL     1      -2.334   3.919   9.164  1.00  0.00    -0.109 Cl
ENDBRANCH  11  13
ENDBRANCH   3   9
BRANCH   5  15
HETATM   15  O5  UNL     1      -6.236   5.005  13.980  1.00  0.00    -0.370 OA
ATOM     16  H5  UNL     1      -6.241   5.848  13.542  1.00  0.00     0.212 HD
ENDBRANCH   5  15
BRANCH   1  17
HETATM   17  C1  UNL     1      -4.141   1.285  15.575  1.00  0.00     0.222 C 
HETATM   18  O1  UNL     1      -3.277   1.272  16.490  1.00  0.00    -0.645 OA
HETATM   19  O2  UNL     1      -4.848   0.119  15.315  1.00  0.00    -0.645 OA
ENDBRANCH   1  17
TORSDOF 4
ENDMDL
MODEL 2
REMARK VINA RESULT: -6.190044975      1.614      1.667
REMARK  4 active torsions:
REMARK  status: ('A' for Active; 'I' for Inactive)
REMARK    1  A    between atoms: C1_2  and  C2_4 
REMARK    2  A    between atoms: C3_6  and  C4_7 
REMARK       I    between atoms: C4_7  and  N1_9 
REMARK    3  A    between atoms: N1_9  and  C5_11 
REMARK    4  A    between atoms: C6_14  and  O5_15 
ROOT
HETATM    1  C2  UNL     1      -4.133   2.773  15.354  1.00  0.00     0.223 C 
HETATM    2  O3  UNL     1      -2.897   3.253  15.013  1.00  0.00    -0.322 OA
HETATM    3  C3  UNL     1      -3.434   3.756  13.849  1.00  0.00     0.242 C 
HETATM    4  S1  UNL     1      -4.371   2.261  13.643  1.00  0.00    -0.066 SA
HETATM    5  C6  UNL     1      -4.455   4.803  14.309  1.00  0.00     0.205 C 
HETATM    6 CL2  UNL     1      -3.699   6.324  14.747  1.00  0.00    -0.082 Cl
HETATM    7  C7  UNL     1      -4.965   4.037  15.545  1.00  0.00     0.193 C 
HETATM    8 CL3  UNL     1      -6.688   3.735  15.465  1.00  0.00    -0.116 Cl
ENDROOT
BRANCH   3   9
HETATM    9  C4  UNL     1      -2.512   4.167  12.805  1.00  0.00     0.268 C 
HETATM   10  O4  UNL     1      -2.999   4.817  11.819  1.00  0.00    -0.269 OA
HETATM   11  N1  UNL     1      -1.120   3.901  12.798  1.00  0.00    -0.345 N 
ATOM     12  H1  UNL     1      -0.706   3.383  13.573  1.00  0.00     0.163 HD
BRANCH  11  13
HETATM   13  C5  UNL     1      -0.273   4.351  11.712  1.00  0.00     0.238 C 
HETATM   14 CL1  UNL     1       0.336   5.971  12.184  1.00  0.00    -0.109 Cl
ENDBRANCH  11  13
ENDBRANCH   3   9
BRANCH   5  15
HETATM   15  O5  UNL     1      -5.473   4.942  13.363  1.00  0.00    -0.370 OA
ATOM     16  H5  UNL     1      -6.293   4.606  13.705  1.00  0.00     0.212 HD
ENDBRANCH   5  15
BRANCH   1  17
HETATM   17  C1  UNL     1      -4.227   1.762  16.381  1.00  0.00     0.222 C 
HETATM   18  O1  UNL     1      -3.487   0.746  16.334  1.00  0.00    -0.645 OA
HETATM   19  O2  UNL     1      -5.122   1.881  17.435  1.00  0.00    -0.645 OA
ENDBRANCH   1  17
TORSDOF 4
ENDMDL
MODEL 3
REMARK VINA RESULT: -6.155778783      1.896      1.977
REMARK  4 active torsions:
REMARK  status: ('A' for Active; 'I' for Inactive)
REMARK    1  A    between atoms: C1_2  and  C2_4 
REMARK    2  A    between atoms: C3_6  and  C4_7 
REMARK       I    between atoms: C4_7  and  N1_9 
REMARK    3  A    between atoms: N1_9  and  C5_11 
REMARK    4  A    between atoms: C6_14  and  O5_15 
ROOT
HETATM    1  C2  UNL     1      -3.934   3.341  15.143  1.00  0.00     0.223 C 
HETATM    2  O3  UNL     1      -2.630   3.557  14.784  1.00  0.00    -0.322 OA
HETATM    3  C3  UNL     1      -3.068   4.120  13.606  1.00  0.00     0.242 C 
HETATM    4  S1  UNL     1      -4.283   2.834  13.451  1.00  0.00    -0.066 SA
HETATM    5  C6  UNL     1      -3.858   5.362  14.035  1.00  0.00     0.205 C 
HETATM    6 CL2  UNL     1      -2.813   6.717  14.422  1.00  0.00    -0.082 Cl
HETATM    7  C7  UNL     1      -4.498   4.750  15.296  1.00  0.00     0.193 C 
HETATM    8 CL3  UNL     1      -6.247   4.792  15.231  1.00  0.00    -0.116 Cl
ENDROOT
BRANCH   3   9
HETATM    9  C4  UNL     1      -2.092   4.309  12.546  1.00  0.00     0.268 C 
HETATM   10  O4  UNL     1      -2.431   5.057  11.568  1.00  0.00    -0.269 OA
HETATM   11  N1  UNL     1      -0.800   3.727  12.517  1.00  0.00    -0.345 N 
ATOM     12  H1  UNL     1      -0.506   3.125  13.286  1.00  0.00     0.163 HD
BRANCH  11  13
HETATM   13  C5  UNL     1       0.110   3.971  11.418  1.00  0.00     0.238 C 
HETATM   14 CL1  UNL     1       1.018   5.461  11.833  1.00  0.00    -0.109 Cl
ENDBRANCH  11  13
ENDBRANCH   3   9
BRANCH   5  15
HETATM   15  O5  UNL     1      -4.837   5.670  13.088  1.00  0.00    -0.370 OA
ATOM     16  H5  UNL     1      -5.420   6.343  13.419  1.00  0.00     0.212 HD
ENDBRANCH   5  15
BRANCH   1  17
HETATM   17  C1  UNL     1      -4.215   2.401  16.202  1.00  0.00     0.222 C 
HETATM   18  O1  UNL     1      -5.177   2.605  16.987  1.00  0.00    -0.645 OA
HETATM   19  O2  UNL     1      -3.444   1.261  16.383  1.00  0.00    -0.645 OA
ENDBRANCH   1  17
TORSDOF 4
ENDMDL
MODEL 4
REMARK VINA RESULT: -6.082216921      1.041      1.041
REMARK  4 active torsions:
REMARK  status: ('A' for Active; 'I' for Inactive)
REMARK    1  A    between atoms: C1_2  and  C2_4 
REMARK    2  A    between atoms: C3_6  and  C4_7 
REMARK       I    between atoms: C4_7  and  N1_9 
REMARK    3  A    between atoms: N1_9  and  C5_11 
REMARK    4  A    between atoms: C6_14  and  O5_15 
ROOT
HETATM    1  C2  UNL     1      -4.365   2.153  14.887  1.00  0.00     0.223 C 
HETATM    2  O3  UNL     1      -3.183   2.726  14.499  1.00  0.00    -0.322 OA
HETATM    3  C3  UNL     1      -3.870   3.468  13.565  1.00  0.00     0.242 C 
HETATM    4  S1  UNL     1      -4.841   2.039  13.154  1.00  0.00    -0.066 SA
HETATM    5  C6  UNL     1      -4.808   4.361  14.387  1.00  0.00     0.205 C 
HETATM    6 CL2  UNL     1      -3.984   5.759  15.052  1.00  0.00    -0.082 Cl
HETATM    7  C7  UNL     1      -5.150   3.323  15.473  1.00  0.00     0.193 C 
HETATM    8 CL3  UNL     1      -6.870   3.009  15.562  1.00  0.00    -0.116 Cl
ENDROOT
BRANCH   3   9
HETATM    9  C4  UNL     1      -3.096   4.125  12.526  1.00  0.00     0.268 C 
HETATM   10  O4  UNL     1      -3.723   4.920  11.748  1.00  0.00    -0.269 OA
HETATM   11  N1  UNL     1      -1.706   3.951  12.314  1.00  0.00    -0.345 N 
ATOM     12  H1  UNL     1      -1.182   3.321  12.922  1.00  0.00     0.163 HD
BRANCH  11  13
HETATM   13  C5  UNL     1      -1.014   4.650  11.251  1.00  0.00     0.238 C 
HETATM   14 CL1  UNL     1       0.507   3.745  10.958  1.00  0.00    -0.109 Cl
ENDBRANCH  11  13
ENDBRANCH   3   9
BRANCH   5  15
HETATM   15  O5  UNL     1      -5.944   4.689  13.645  1.00  0.00    -0.370 OA
ATOM     16  H5  UNL     1      -6.125   4.015  13.000  1.00  0.00     0.212 HD
ENDBRANCH   5  15
BRANCH   1  17
HETATM   17  C1  UNL     1      -4.326   0.934  15.660  1.00  0.00     0.222 C 
HETATM   18  O1  UNL     1      -3.778   0.923  16.792  1.00  0.00    -0.645 OA
HETATM   19  O2  UNL     1      -4.883  -0.244  15.182  1.00  0.00    -0.645 OA
ENDBRANCH   1  17
TORSDOF 4
ENDMDL
MODEL 5
REMARK VINA RESULT: -5.997524570      2.092      5.294
REMARK  4 active torsions:
REMARK  status: ('A' for Active; 'I' for Inactive)
REMARK    1  A    between atoms: C1_2  and  C2_4 
REMARK    2  A    between atoms: C3_6  and  C4_7 
REMARK       I    between atoms: C4_7  and  N1_9 
REMARK    3  A    between atoms: N1_9  and  C5_11 
REMARK    4  A    between atoms: C6_14  and  O5_15 
ROOT
HETATM    1  C2  UNL     1      -3.681   4.328  11.664  1.00  0.00     0.223 C 
HETATM    2  O3  UNL     1      -4.687   4.266  12.591  1.00  0.00    -0.322 OA
HETATM    3  C3  UNL     1      -3.787   3.770  13.507  1.00  0.00     0.242 C 
HETATM    4  S1  UNL     1      -3.088   2.731  12.248  1.00  0.00    -0.066 SA
HETATM    5  C6  UNL     1      -2.767   4.897  13.703  1.00  0.00     0.205 C 
HETATM    6 CL2  UNL     1      -3.352   6.145  14.788  1.00  0.00    -0.082 Cl
HETATM    7  C7  UNL     1      -2.734   5.376  12.239  1.00  0.00     0.193 C 
HETATM    8 CL3  UNL     1      -1.125   5.285  11.555  1.00  0.00    -0.116 Cl
ENDROOT
BRANCH   3   9
HETATM    9  C4  UNL     1      -4.321   3.164  14.715  1.00  0.00     0.268 C 
HETATM   10  O4  UNL     1      -3.479   2.739  15.575  1.00  0.00    -0.269 OA
HETATM   11  N1  UNL     1      -5.699   3.009  15.006  1.00  0.00    -0.345 N 
ATOM     12  H1  UNL     1      -6.393   3.339  14.335  1.00  0.00     0.163 HD
BRANCH  11  13
HETATM   13  C5  UNL     1      -6.143   2.391  16.239  1.00  0.00     0.238 C 
HETATM   14 CL1  UNL     1      -6.685   3.727  17.307  1.00  0.00    -0.109 Cl
ENDBRANCH  11  13
ENDBRANCH   3   9
BRANCH   5  15
HETATM   15  O5  UNL     1      -1.527   4.374  14.077  1.00  0.00    -0.370 OA
ATOM     16  H5  UNL     1      -1.140   4.900  14.768  1.00  0.00     0.212 HD
ENDBRANCH   5  15
BRANCH   1  17
HETATM   17  C1  UNL     1      -4.029   4.450  10.268  1.00  0.00     0.222 C 
HETATM   18  O1  UNL     1      -4.923   5.260   9.910  1.00  0.00    -0.645 OA
HETATM   19  O2  UNL     1      -3.396   3.689   9.294  1.00  0.00    -0.645 OA
ENDBRANCH   1  17
TORSDOF 4
ENDMDL
