MODEL 1
REMARK VINA RESULT: -4.280567843      0.000      0.000
REMARK  12 active torsions:
REMARK  status: ('A' for Active; 'I' for Inactive)
REMARK    1  A    between atoms: N1_2  and  C3_4 
REMARK    2  A    between atoms: C3_4  and  C4_5 
REMARK    3  A    between atoms: C4_5  and  C5_6 
REMARK    4  A    between atoms: C5_6  and  C6_9 
REMARK    5  A    between atoms: C6_9  and  N2_10 
REMARK    6  A    between atoms: N2_10  and  C7_12 
REMARK    7  A    between atoms: C8_15  and  N4_16 
REMARK    8  A    between atoms: C9_21  and  N6_22 
REMARK    9  A    between atoms: C10_25  and  N7_26 
REMARK   10  A    between atoms: C11_30  and  C12_31 
REMARK   11  A    between atoms: C12_31  and  N10_32 
REMARK   12  A    between atoms: C14_39  and  N13_40 
ROOT
HETATM    1  C7  UNL     1      57.636   8.573  28.687  1.00  0.00     0.151 A 
HETATM    2  N3  UNL     1      57.082   7.524  28.015  1.00  0.00    -0.175 N 
ATOM      3  H3  UNL     1      57.564   6.626  28.002  1.00  0.00     0.186 HD
HETATM    4  C8  UNL     1      55.909   7.655  27.370  1.00  0.00     0.679 A 
HETATM    5  N5  UNL     1      55.282   8.838  27.392  1.00  0.00    -0.175 N 
ATOM      6  H5  UNL     1      54.392   8.938  26.904  1.00  0.00     0.186 HD
HETATM    7  C9  UNL     1      55.799   9.905  28.046  1.00  0.00     0.148 A 
HETATM    8  C10 UNL     1      56.988   9.804  28.712  1.00  0.00     0.161 A 
ENDROOT
BRANCH   8   9
HETATM    9  N7  UNL     1      57.572  10.893  29.416  1.00  0.00    -0.172 N 
HETATM   10  N8  UNL     1      58.021  12.042  28.928  1.00  0.00     0.003 NA
HETATM   11  N9  UNL     1      58.496  12.807  29.895  1.00  0.00    -0.269 N 
HETATM   12  C11 UNL     1      58.360  12.150  31.058  1.00  0.00     0.129 A 
ATOM     13  H9  UNL     1      58.898  13.738  29.778  1.00  0.00     0.185 HD
HETATM   14  N15 UNL     1      57.786  10.975  30.719  1.00  0.00    -0.266 N 
ATOM     15  H15 UNL     1      57.548  10.241  31.386  1.00  0.00     0.190 HD
BRANCH  12  16
HETATM   16  C12 UNL     1      58.754  12.619  32.414  1.00  0.00     0.231 C 
BRANCH  16  17
HETATM   17  N10 UNL     1      59.028  14.032  32.471  1.00  0.00    -0.125 N 
HETATM   18  C13 UNL     1      58.115  14.908  32.920  1.00  0.00     0.697 A 
HETATM   19  N11 UNL     1      56.943  14.582  33.347  1.00  0.00    -0.234 N 
HETATM   20  N12 UNL     1      58.434  16.240  32.939  1.00  0.00    -0.022 N 
ATOM     21 2H11 UNL     1      56.706  13.590  33.333  1.00  0.00     0.174 HD
ATOM     22 1H11 UNL     1      56.250  15.248  33.688  1.00  0.00     0.174 HD
HETATM   23  C14 UNL     1      59.616  16.716  32.532  1.00  0.00     0.694 A 
ATOM     24  H12 UNL     1      57.737  16.902  33.281  1.00  0.00     0.203 HD
HETATM   25  N14 UNL     1      60.499  15.798  32.091  1.00  0.00    -0.140 N 
HETATM   26  C15 UNL     1      60.220  14.489  32.059  1.00  0.00     0.355 A 
ATOM     27  H14 UNL     1      61.415  16.112  31.771  1.00  0.00     0.189 HD
HETATM   28  O1  UNL     1      61.124  13.694  31.624  1.00  0.00    -0.245 OA
BRANCH  23  29
HETATM   29  N13 UNL     1      59.896  17.973  32.558  1.00  0.00    -0.234 N 
ATOM     30 2H13 UNL     1      59.964  18.529  31.706  1.00  0.00     0.174 HD
ATOM     31 1H13 UNL     1      60.063  18.473  33.431  1.00  0.00     0.174 HD
ENDBRANCH  23  29
ENDBRANCH  16  17
ENDBRANCH  12  16
ENDBRANCH   8   9
BRANCH   1  32
HETATM   32  N2  UNL     1      58.870   8.489  29.339  1.00  0.00    -0.368 N 
ATOM     33  H2  UNL     1      59.318   9.348  29.657  1.00  0.00     0.161 HD
BRANCH  32  34
HETATM   34  C6  UNL     1      59.531   7.236  29.577  1.00  0.00     0.200 C 
BRANCH  34  35
HETATM   35  C5  UNL     1      61.016   7.291  29.484  1.00  0.00     0.260 C 
HETATM   36  F1  UNL     1      61.516   8.044  30.584  1.00  0.00    -0.204 F 
HETATM   37  F2  UNL     1      61.676   6.091  29.573  1.00  0.00    -0.204 F 
BRANCH  35  38
HETATM   38  C4  UNL     1      61.435   7.961  28.206  1.00  0.00     0.111 C 
BRANCH  38  39
HETATM   39  C3  UNL     1      61.342   9.439  28.306  1.00  0.00     0.277 C 
BRANCH  39  40
HETATM   40  N1  UNL     1      60.848  10.044  27.066  1.00  0.00     0.080 N 
HETATM   41  C1  UNL     1      61.832  10.908  26.465  1.00  0.00     0.309 C 
HETATM   42  C2  UNL     1      60.312   9.056  26.171  1.00  0.00     0.309 C 
ENDBRANCH  39  40
ENDBRANCH  38  39
ENDBRANCH  35  38
ENDBRANCH  34  35
ENDBRANCH  32  34
ENDBRANCH   1  32
BRANCH   7  43
HETATM   43  N6  UNL     1      55.184  11.039  28.054  1.00  0.00    -0.383 N 
ATOM     44  H62 UNL     1      55.008  11.503  27.162  1.00  0.00     0.157 HD
ATOM     45  H61 UNL     1      54.878  11.463  28.930  1.00  0.00     0.157 HD
ENDBRANCH   7  43
BRANCH   4  46
HETATM   46  N4  UNL     1      55.368   6.656  26.727  1.00  0.00    -0.234 N 
ATOM     47  H42 UNL     1      54.517   6.229  27.092  1.00  0.00     0.174 HD
ATOM     48  H41 UNL     1      55.777   6.289  25.867  1.00  0.00     0.174 HD
ENDBRANCH   4  46
TORSDOF 12
ENDMDL
MODEL 2
REMARK VINA RESULT: -3.739476598      1.397      2.100
REMARK  12 active torsions:
REMARK  status: ('A' for Active; 'I' for Inactive)
REMARK    1  A    between atoms: N1_2  and  C3_4 
REMARK    2  A    between atoms: C3_4  and  C4_5 
REMARK    3  A    between atoms: C4_5  and  C5_6 
REMARK    4  A    between atoms: C5_6  and  C6_9 
REMARK    5  A    between atoms: C6_9  and  N2_10 
REMARK    6  A    between atoms: N2_10  and  C7_12 
REMARK    7  A    between atoms: C8_15  and  N4_16 
REMARK    8  A    between atoms: C9_21  and  N6_22 
REMARK    9  A    between atoms: C10_25  and  N7_26 
REMARK   10  A    between atoms: C11_30  and  C12_31 
REMARK   11  A    between atoms: C12_31  and  N10_32 
REMARK   12  A    between atoms: C14_39  and  N13_40 
ROOT
HETATM    1  C7  UNL     1      57.734   8.810  27.995  1.00  0.00     0.151 A 
HETATM    2  N3  UNL     1      57.192   7.753  27.328  1.00  0.00    -0.175 N 
ATOM      3  H3  UNL     1      57.804   7.112  26.823  1.00  0.00     0.186 HD
HETATM    4  C8  UNL     1      55.864   7.540  27.324  1.00  0.00     0.679 A 
HETATM    5  N5  UNL     1      55.067   8.386  27.989  1.00  0.00    -0.175 N 
ATOM      6  H5  UNL     1      54.060   8.226  27.987  1.00  0.00     0.186 HD
HETATM    7  C9  UNL     1      55.565   9.450  28.663  1.00  0.00     0.148 A 
HETATM    8  C10 UNL     1      56.909   9.693  28.687  1.00  0.00     0.161 A 
ENDROOT
BRANCH   8   9
HETATM    9  N7  UNL     1      57.481  10.793  29.382  1.00  0.00    -0.172 N 
HETATM   10  N8  UNL     1      57.809  11.987  28.906  1.00  0.00     0.003 NA
HETATM   11  N9  UNL     1      58.318  12.748  29.859  1.00  0.00    -0.269 N 
HETATM   12  C11 UNL     1      58.331  12.041  31.001  1.00  0.00     0.129 A 
ATOM     13  H9  UNL     1      58.646  13.707  29.746  1.00  0.00     0.185 HD
HETATM   14  N15 UNL     1      57.806  10.843  30.664  1.00  0.00    -0.266 N 
ATOM     15  H15 UNL     1      57.677  10.071  31.318  1.00  0.00     0.190 HD
BRANCH  12  16
HETATM   16  C12 UNL     1      58.813  12.487  32.336  1.00  0.00     0.231 C 
BRANCH  16  17
HETATM   17  N10 UNL     1      59.069  13.903  32.406  1.00  0.00    -0.125 N 
HETATM   18  C13 UNL     1      58.146  14.763  32.864  1.00  0.00     0.697 A 
HETATM   19  N11 UNL     1      56.979  14.417  33.291  1.00  0.00    -0.234 N 
HETATM   20  N12 UNL     1      58.447  16.099  32.895  1.00  0.00    -0.022 N 
ATOM     21 2H11 UNL     1      56.755  13.422  33.268  1.00  0.00     0.174 HD
ATOM     22 1H11 UNL     1      56.278  15.071  33.639  1.00  0.00     0.174 HD
HETATM   23  C14 UNL     1      59.623  16.594  32.490  1.00  0.00     0.694 A 
ATOM     24  H12 UNL     1      57.742  16.748  33.245  1.00  0.00     0.203 HD
HETATM   25  N14 UNL     1      60.517  15.691  32.039  1.00  0.00    -0.140 N 
HETATM   26  C15 UNL     1      60.254  14.379  31.995  1.00  0.00     0.355 A 
ATOM     27  H14 UNL     1      61.427  16.020  31.720  1.00  0.00     0.189 HD
HETATM   28  O1  UNL     1      61.167  13.600  31.551  1.00  0.00    -0.245 OA
BRANCH  23  29
HETATM   29  N13 UNL     1      59.886  17.854  32.528  1.00  0.00    -0.234 N 
ATOM     30 2H13 UNL     1      59.160  18.561  32.412  1.00  0.00     0.174 HD
ATOM     31 1H13 UNL     1      60.831  18.207  32.676  1.00  0.00     0.174 HD
ENDBRANCH  23  29
ENDBRANCH  16  17
ENDBRANCH  12  16
ENDBRANCH   8   9
BRANCH   1  32
HETATM   32  N2  UNL     1      59.104   9.087  27.993  1.00  0.00    -0.368 N 
ATOM     33  H2  UNL     1      59.565   9.295  28.880  1.00  0.00     0.161 HD
BRANCH  32  34
HETATM   34  C6  UNL     1      59.887   9.091  26.789  1.00  0.00     0.200 C 
BRANCH  34  35
HETATM   35  C5  UNL     1      61.320   9.443  26.983  1.00  0.00     0.260 C 
HETATM   36  F1  UNL     1      62.120   8.543  26.224  1.00  0.00    -0.204 F 
HETATM   37  F2  UNL     1      61.706  10.685  26.544  1.00  0.00    -0.204 F 
BRANCH  35  38
HETATM   38  C4  UNL     1      61.696   9.322  28.433  1.00  0.00     0.111 C 
BRANCH  38  39
HETATM   39  C3  UNL     1      61.741   7.905  28.871  1.00  0.00     0.277 C 
BRANCH  39  40
HETATM   40  N1  UNL     1      61.295   7.744  30.257  1.00  0.00     0.080 N 
HETATM   41  C1  UNL     1      61.398   8.976  30.998  1.00  0.00     0.309 C 
HETATM   42  C2  UNL     1      59.999   7.125  30.329  1.00  0.00     0.309 C 
ENDBRANCH  39  40
ENDBRANCH  38  39
ENDBRANCH  35  38
ENDBRANCH  34  35
ENDBRANCH  32  34
ENDBRANCH   1  32
BRANCH   7  43
HETATM   43  N6  UNL     1      54.782  10.258  29.295  1.00  0.00    -0.383 N 
ATOM     44  H62 UNL     1      53.846  10.419  28.923  1.00  0.00     0.157 HD
ATOM     45  H61 UNL     1      55.090  10.725  30.148  1.00  0.00     0.157 HD
ENDBRANCH   7  43
BRANCH   4  46
HETATM   46  N4  UNL     1      55.336   6.528  26.691  1.00  0.00    -0.234 N 
ATOM     47  H42 UNL     1      55.572   5.579  26.981  1.00  0.00     0.174 HD
ATOM     48  H41 UNL     1      54.693   6.662  25.910  1.00  0.00     0.174 HD
ENDBRANCH   4  46
TORSDOF 12
ENDMDL
MODEL 3
REMARK VINA RESULT: -3.651796679      0.873      1.394
REMARK  12 active torsions:
REMARK  status: ('A' for Active; 'I' for Inactive)
REMARK    1  A    between atoms: N1_2  and  C3_4 
REMARK    2  A    between atoms: C3_4  and  C4_5 
REMARK    3  A    between atoms: C4_5  and  C5_6 
REMARK    4  A    between atoms: C5_6  and  C6_9 
REMARK    5  A    between atoms: C6_9  and  N2_10 
REMARK    6  A    between atoms: N2_10  and  C7_12 
REMARK    7  A    between atoms: C8_15  and  N4_16 
REMARK    8  A    between atoms: C9_21  and  N6_22 
REMARK    9  A    between atoms: C10_25  and  N7_26 
REMARK   10  A    between atoms: C11_30  and  C12_31 
REMARK   11  A    between atoms: C12_31  and  N10_32 
REMARK   12  A    between atoms: C14_39  and  N13_40 
ROOT
HETATM    1  C7  UNL     1      57.527   8.619  28.748  1.00  0.00     0.151 A 
HETATM    2  N3  UNL     1      56.923   7.575  28.114  1.00  0.00    -0.175 N 
ATOM      3  H3  UNL     1      57.365   6.656  28.130  1.00  0.00     0.186 HD
HETATM    4  C8  UNL     1      55.756   7.736  27.467  1.00  0.00     0.679 A 
HETATM    5  N5  UNL     1      55.182   8.947  27.450  1.00  0.00    -0.175 N 
ATOM      6  H5  UNL     1      54.297   9.071  26.960  1.00  0.00     0.186 HD
HETATM    7  C9  UNL     1      55.750  10.010  28.067  1.00  0.00     0.148 A 
HETATM    8  C10 UNL     1      56.936   9.879  28.733  1.00  0.00     0.161 A 
ENDROOT
BRANCH   8   9
HETATM    9  N7  UNL     1      57.570  10.963  29.398  1.00  0.00    -0.172 N 
HETATM   10  N8  UNL     1      57.997  12.109  28.883  1.00  0.00     0.003 NA
HETATM   11  N9  UNL     1      58.537  12.870  29.818  1.00  0.00    -0.269 N 
HETATM   12  C11 UNL     1      58.469  12.215  30.988  1.00  0.00     0.129 A 
ATOM     13  H9  UNL     1      58.938  13.798  29.675  1.00  0.00     0.185 HD
HETATM   14  N15 UNL     1      57.866  11.044  30.685  1.00  0.00    -0.266 N 
ATOM     15  H15 UNL     1      57.664  10.312  31.367  1.00  0.00     0.190 HD
BRANCH  12  16
HETATM   16  C12 UNL     1      58.950  12.680  32.316  1.00  0.00     0.231 C 
BRANCH  16  17
HETATM   17  N10 UNL     1      59.168  14.103  32.376  1.00  0.00    -0.125 N 
HETATM   18  C13 UNL     1      60.335  14.652  32.002  1.00  0.00     0.697 A 
HETATM   19  N11 UNL     1      61.340  13.984  31.549  1.00  0.00    -0.234 N 
HETATM   20  N12 UNL     1      60.484  16.011  32.093  1.00  0.00    -0.022 N 
ATOM     21 2H11 UNL     1      61.230  12.972  31.480  1.00  0.00     0.174 HD
ATOM     22 1H11 UNL     1      62.227  14.401  31.264  1.00  0.00     0.174 HD
HETATM   23  C14 UNL     1      59.519  16.824  32.538  1.00  0.00     0.694 A 
ATOM     24  H12 UNL     1      61.372  16.423  31.807  1.00  0.00     0.203 HD
HETATM   25  N14 UNL     1      58.367  16.227  32.902  1.00  0.00    -0.140 N 
HETATM   26  C15 UNL     1      58.189  14.902  32.826  1.00  0.00     0.355 A 
ATOM     27  H14 UNL     1      57.602  16.805  33.247  1.00  0.00     0.189 HD
HETATM   28  O1  UNL     1      57.059  14.427  33.194  1.00  0.00    -0.245 OA
BRANCH  23  29
HETATM   29  N13 UNL     1      59.679  18.100  32.616  1.00  0.00    -0.234 N 
ATOM     30 2H13 UNL     1      59.185  18.745  32.000  1.00  0.00     0.174 HD
ATOM     31 1H13 UNL     1      60.307  18.528  33.296  1.00  0.00     0.174 HD
ENDBRANCH  23  29
ENDBRANCH  16  17
ENDBRANCH  12  16
ENDBRANCH   8   9
BRANCH   1  32
HETATM   32  N2  UNL     1      58.758   8.501  29.400  1.00  0.00    -0.368 N 
ATOM     33  H2  UNL     1      59.184   9.337  29.801  1.00  0.00     0.161 HD
BRANCH  32  34
HETATM   34  C6  UNL     1      59.446   7.247  29.525  1.00  0.00     0.200 C 
BRANCH  34  35
HETATM   35  C5  UNL     1      60.931   7.352  29.539  1.00  0.00     0.260 C 
HETATM   36  F1  UNL     1      61.322   8.170  30.637  1.00  0.00    -0.204 F 
HETATM   37  F2  UNL     1      61.623   6.182  29.731  1.00  0.00    -0.204 F 
BRANCH  35  38
HETATM   38  C4  UNL     1      61.422   7.982  28.266  1.00  0.00     0.111 C 
BRANCH  38  39
HETATM   39  C3  UNL     1      61.366   9.464  28.330  1.00  0.00     0.277 C 
BRANCH  39  40
HETATM   40  N1  UNL     1      60.836  10.048  27.096  1.00  0.00     0.080 N 
HETATM   41  C1  UNL     1      61.802  10.902  26.452  1.00  0.00     0.309 C 
HETATM   42  C2  UNL     1      60.274   9.045  26.232  1.00  0.00     0.309 C 
ENDBRANCH  39  40
ENDBRANCH  38  39
ENDBRANCH  35  38
ENDBRANCH  34  35
ENDBRANCH  32  34
ENDBRANCH   1  32
BRANCH   7  43
HETATM   43  N6  UNL     1      55.186  11.171  28.037  1.00  0.00    -0.383 N 
ATOM     44  H62 UNL     1      55.369  11.820  28.803  1.00  0.00     0.157 HD
ATOM     45  H61 UNL     1      54.575  11.437  27.266  1.00  0.00     0.157 HD
ENDBRANCH   7  43
BRANCH   4  46
HETATM   46  N4  UNL     1      55.168   6.742  26.859  1.00  0.00    -0.234 N 
ATOM     47  H42 UNL     1      54.964   5.889  27.379  1.00  0.00     0.174 HD
ATOM     48  H41 UNL     1      54.908   6.796  25.874  1.00  0.00     0.174 HD
ENDBRANCH   4  46
TORSDOF 12
ENDMDL
MODEL 4
REMARK VINA RESULT: -3.558912898      4.209      5.611
REMARK  12 active torsions:
REMARK  status: ('A' for Active; 'I' for Inactive)
REMARK    1  A    between atoms: N1_2  and  C3_4 
REMARK    2  A    between atoms: C3_4  and  C4_5 
REMARK    3  A    between atoms: C4_5  and  C5_6 
REMARK    4  A    between atoms: C5_6  and  C6_9 
REMARK    5  A    between atoms: C6_9  and  N2_10 
REMARK    6  A    between atoms: N2_10  and  C7_12 
REMARK    7  A    between atoms: C8_15  and  N4_16 
REMARK    8  A    between atoms: C9_21  and  N6_22 
REMARK    9  A    between atoms: C10_25  and  N7_26 
REMARK   10  A    between atoms: C11_30  and  C12_31 
REMARK   11  A    between atoms: C12_31  and  N10_32 
REMARK   12  A    between atoms: C14_39  and  N13_40 
ROOT
HETATM    1  C7  UNL     1      56.576   7.012  26.849  1.00  0.00     0.151 A 
HETATM    2  N3  UNL     1      56.648   5.741  26.362  1.00  0.00    -0.175 N 
ATOM      3  H3  UNL     1      57.520   5.410  25.951  1.00  0.00     0.186 HD
HETATM    4  C8  UNL     1      55.587   4.917  26.415  1.00  0.00     0.679 A 
HETATM    5  N5  UNL     1      54.444   5.359  26.956  1.00  0.00    -0.175 N 
ATOM      6  H5  UNL     1      53.639   4.735  26.997  1.00  0.00     0.186 HD
HETATM    7  C9  UNL     1      54.331   6.615  27.449  1.00  0.00     0.148 A 
HETATM    8  C10 UNL     1      55.391   7.477  27.410  1.00  0.00     0.161 A 
ENDROOT
BRANCH   8   9
HETATM    9  N7  UNL     1      55.324   8.804  27.917  1.00  0.00    -0.172 N 
HETATM   10  N8  UNL     1      55.640   9.237  29.131  1.00  0.00     0.003 NA
HETATM   11  N9  UNL     1      55.443  10.540  29.228  1.00  0.00    -0.269 N 
HETATM   12  C11 UNL     1      54.984  10.987  28.048  1.00  0.00     0.129 A 
ATOM     13  H9  UNL     1      55.611  11.110  30.058  1.00  0.00     0.185 HD
HETATM   14  N15 UNL     1      54.926   9.885  27.268  1.00  0.00    -0.266 N 
ATOM     15  H15 UNL     1      54.612   9.888  26.297  1.00  0.00     0.190 HD
BRANCH  12  16
HETATM   16  C12 UNL     1      54.625  12.385  27.685  1.00  0.00     0.231 C 
BRANCH  16  17
HETATM   17  N10 UNL     1      55.278  12.848  26.488  1.00  0.00    -0.125 N 
HETATM   18  C13 UNL     1      56.571  13.212  26.487  1.00  0.00     0.697 A 
HETATM   19  N11 UNL     1      57.339  13.167  27.521  1.00  0.00    -0.234 N 
HETATM   20  N12 UNL     1      57.130  13.654  25.317  1.00  0.00    -0.022 N 
ATOM     21 2H11 UNL     1      56.922  12.837  28.392  1.00  0.00     0.174 HD
ATOM     22 1H11 UNL     1      58.321  13.442  27.520  1.00  0.00     0.174 HD
HETATM   23  C14 UNL     1      56.450  13.743  24.168  1.00  0.00     0.694 A 
ATOM     24  H12 UNL     1      58.112  13.928  25.322  1.00  0.00     0.203 HD
HETATM   25  N14 UNL     1      55.157  13.367  24.220  1.00  0.00    -0.140 N 
HETATM   26  C15 UNL     1      54.579  12.930  25.345  1.00  0.00     0.355 A 
ATOM     27  H14 UNL     1      54.598  13.417  23.369  1.00  0.00     0.189 HD
HETATM   28  O1  UNL     1      53.345  12.596  25.295  1.00  0.00    -0.245 OA
BRANCH  23  29
HETATM   29  N13 UNL     1      56.996  14.162  23.079  1.00  0.00    -0.234 N 
ATOM     30 2H13 UNL     1      56.527  14.824  22.461  1.00  0.00     0.174 HD
ATOM     31 1H13 UNL     1      57.921  13.853  22.782  1.00  0.00     0.174 HD
ENDBRANCH  23  29
ENDBRANCH  16  17
ENDBRANCH  12  16
ENDBRANCH   8   9
BRANCH   1  32
HETATM   32  N2  UNL     1      57.644   7.912  26.779  1.00  0.00    -0.368 N 
ATOM     33  H2  UNL     1      57.658   8.602  26.027  1.00  0.00     0.161 HD
BRANCH  32  34
HETATM   34  C6  UNL     1      58.723   7.901  27.728  1.00  0.00     0.200 C 
BRANCH  34  35
HETATM   35  C5  UNL     1      59.100   9.242  28.254  1.00  0.00     0.260 C 
HETATM   36  F1  UNL     1      60.338   9.631  27.671  1.00  0.00    -0.204 F 
HETATM   37  F2  UNL     1      58.248  10.275  27.951  1.00  0.00    -0.204 F 
BRANCH  35  38
HETATM   38  C4  UNL     1      59.260   9.191  29.747  1.00  0.00     0.111 C 
BRANCH  38  39
HETATM   39  C3  UNL     1      59.611   7.827  30.215  1.00  0.00     0.277 C 
BRANCH  39  40
HETATM   40  N1  UNL     1      61.036   7.704  30.530  1.00  0.00     0.080 N 
HETATM   41  C1  UNL     1      61.753   7.000  29.498  1.00  0.00     0.309 C 
HETATM   42  C2  UNL     1      61.613   8.972  30.882  1.00  0.00     0.309 C 
ENDBRANCH  39  40
ENDBRANCH  38  39
ENDBRANCH  35  38
ENDBRANCH  34  35
ENDBRANCH  32  34
ENDBRANCH   1  32
BRANCH   7  43
HETATM   43  N6  UNL     1      53.221   7.028  27.963  1.00  0.00    -0.383 N 
ATOM     44  H62 UNL     1      52.913   6.620  28.846  1.00  0.00     0.157 HD
ATOM     45  H61 UNL     1      52.665   7.746  27.499  1.00  0.00     0.157 HD
ENDBRANCH   7  43
BRANCH   4  46
HETATM   46  N4  UNL     1      55.646   3.696  25.955  1.00  0.00    -0.234 N 
ATOM     47  H42 UNL     1      56.520   3.176  26.031  1.00  0.00     0.174 HD
ATOM     48  H41 UNL     1      54.839   3.250  25.519  1.00  0.00     0.174 HD
ENDBRANCH   4  46
TORSDOF 12
ENDMDL
MODEL 5
REMARK VINA RESULT: -3.421391616      3.193      4.362
REMARK  12 active torsions:
REMARK  status: ('A' for Active; 'I' for Inactive)
REMARK    1  A    between atoms: N1_2  and  C3_4 
REMARK    2  A    between atoms: C3_4  and  C4_5 
REMARK    3  A    between atoms: C4_5  and  C5_6 
REMARK    4  A    between atoms: C5_6  and  C6_9 
REMARK    5  A    between atoms: C6_9  and  N2_10 
REMARK    6  A    between atoms: N2_10  and  C7_12 
REMARK    7  A    between atoms: C8_15  and  N4_16 
REMARK    8  A    between atoms: C9_21  and  N6_22 
REMARK    9  A    between atoms: C10_25  and  N7_26 
REMARK   10  A    between atoms: C11_30  and  C12_31 
REMARK   11  A    between atoms: C12_31  and  N10_32 
REMARK   12  A    between atoms: C14_39  and  N13_40 
ROOT
HETATM    1  C7  UNL     1      55.490  11.139  28.082  1.00  0.00     0.151 A 
HETATM    2  N3  UNL     1      54.527  11.392  27.151  1.00  0.00    -0.175 N 
ATOM      3  H3  UNL     1      53.725  10.766  27.077  1.00  0.00     0.186 HD
HETATM    4  C8  UNL     1      54.617  12.451  26.327  1.00  0.00     0.679 A 
HETATM    5  N5  UNL     1      55.675  13.267  26.429  1.00  0.00    -0.175 N 
ATOM      6  H5  UNL     1      55.744  14.070  25.806  1.00  0.00     0.186 HD
HETATM    7  C9  UNL     1      56.654  13.051  27.339  1.00  0.00     0.148 A 
HETATM    8  C10 UNL     1      56.591  11.984  28.191  1.00  0.00     0.161 A 
ENDROOT
BRANCH   8   9
HETATM    9  N7  UNL     1      57.591  11.716  29.165  1.00  0.00    -0.172 N 
HETATM   10  N8  UNL     1      58.466  10.719  29.193  1.00  0.00     0.003 NA
HETATM   11  N9  UNL     1      59.237  10.803  30.263  1.00  0.00    -0.269 N 
HETATM   12  C11 UNL     1      58.865  11.885  30.967  1.00  0.00     0.129 A 
ATOM     13  H9  UNL     1      59.987  10.157  30.512  1.00  0.00     0.185 HD
HETATM   14  N15 UNL     1      57.848  12.419  30.256  1.00  0.00    -0.266 N 
ATOM     15  H15 UNL     1      57.341  13.262  30.528  1.00  0.00     0.190 HD
BRANCH  12  16
HETATM   16  C12 UNL     1      59.449  12.380  32.242  1.00  0.00     0.231 C 
BRANCH  16  17
HETATM   17  N10 UNL     1      59.484  13.817  32.333  1.00  0.00    -0.125 N 
HETATM   18  C13 UNL     1      58.426  14.521  32.768  1.00  0.00     0.697 A 
HETATM   19  N11 UNL     1      57.313  13.995  33.152  1.00  0.00    -0.234 N 
HETATM   20  N12 UNL     1      58.519  15.886  32.821  1.00  0.00    -0.022 N 
ATOM     21 2H11 UNL     1      57.244  12.978  33.113  1.00  0.00     0.174 HD
ATOM     22 1H11 UNL     1      56.509  14.530  33.482  1.00  0.00     0.174 HD
HETATM   23  C14 UNL     1      59.617  16.560  32.460  1.00  0.00     0.694 A 
ATOM     24  H12 UNL     1      57.712  16.415  33.152  1.00  0.00     0.203 HD
HETATM   25  N14 UNL     1      60.652  15.810  32.031  1.00  0.00    -0.140 N 
HETATM   26  C15 UNL     1      60.595  14.474  31.967  1.00  0.00     0.355 A 
ATOM     27  H14 UNL     1      61.512  16.278  31.745  1.00  0.00     0.189 HD
HETATM   28  O1  UNL     1      61.630  13.849  31.546  1.00  0.00    -0.245 OA
BRANCH  23  29
HETATM   29  N13 UNL     1      59.684  17.845  32.517  1.00  0.00    -0.234 N 
ATOM     30 2H13 UNL     1      59.921  18.335  33.379  1.00  0.00     0.174 HD
ATOM     31 1H13 UNL     1      59.504  18.434  31.705  1.00  0.00     0.174 HD
ENDBRANCH  23  29
ENDBRANCH  16  17
ENDBRANCH  12  16
ENDBRANCH   8   9
BRANCH   1  32
HETATM   32  N2  UNL     1      55.452  10.030  28.931  1.00  0.00    -0.368 N 
ATOM     33  H2  UNL     1      56.200   9.907  29.614  1.00  0.00     0.161 HD
BRANCH  32  34
HETATM   34  C6  UNL     1      54.398   9.055  28.877  1.00  0.00     0.200 C 
BRANCH  34  35
HETATM   35  C5  UNL     1      54.480   8.117  27.723  1.00  0.00     0.260 C 
HETATM   36  F1  UNL     1      53.590   7.030  27.952  1.00  0.00    -0.204 F 
HETATM   37  F2  UNL     1      54.093   8.616  26.504  1.00  0.00    -0.204 F 
BRANCH  35  38
HETATM   38  C4  UNL     1      55.877   7.580  27.586  1.00  0.00     0.111 C 
BRANCH  38  39
HETATM   39  C3  UNL     1      56.027   6.748  26.366  1.00  0.00     0.277 C 
BRANCH  39  40
HETATM   40  N1  UNL     1      56.258   5.338  26.687  1.00  0.00     0.080 N 
HETATM   41  C1  UNL     1      55.022   4.604  26.791  1.00  0.00     0.309 C 
HETATM   42  C2  UNL     1      57.219   4.742  25.799  1.00  0.00     0.309 C 
ENDBRANCH  39  40
ENDBRANCH  38  39
ENDBRANCH  35  38
ENDBRANCH  34  35
ENDBRANCH  32  34
ENDBRANCH   1  32
BRANCH   7  43
HETATM   43  N6  UNL     1      57.668  13.844  27.422  1.00  0.00    -0.383 N 
ATOM     44  H62 UNL     1      58.297  13.749  28.220  1.00  0.00     0.157 HD
ATOM     45  H61 UNL     1      57.840  14.550  26.705  1.00  0.00     0.157 HD
ENDBRANCH   7  43
BRANCH   4  46
HETATM   46  N4  UNL     1      53.699  12.703  25.434  1.00  0.00    -0.234 N 
ATOM     47  H42 UNL     1      53.508  13.670  25.174  1.00  0.00     0.174 HD
ATOM     48  H41 UNL     1      53.164  11.955  24.992  1.00  0.00     0.174 HD
ENDBRANCH   4  46
TORSDOF 12
ENDMDL
