MODEL 1
REMARK VINA RESULT: -4.761849871      0.000      0.000
REMARK  3 active torsions:
REMARK  status: ('A' for Active; 'I' for Inactive)
REMARK    1  A    between atoms: C2_2  and  N1_3 
REMARK    2  A    between atoms: N1_3  and  C3_5 
REMARK    3  A    between atoms: C3_5  and  N2_7 
ROOT
HETATM    1  C3  UNL     1      12.081 -20.471   5.932  1.00  0.00     0.169 C 
HETATM    2  S1  UNL     1      10.472 -20.697   5.968  1.00  0.00    -0.041 SA
ENDROOT
BRANCH   1   3
HETATM    3  N1  UNL     1      12.943 -21.306   6.650  1.00  0.00    -0.367 N 
ATOM      4  H1  UNL     1      13.717 -20.913   7.186  1.00  0.00     0.161 HD
BRANCH   3   5
HETATM    5  C2  UNL     1      12.719 -22.737   6.619  1.00  0.00     0.117 C 
HETATM    6  C1  UNL     1      13.462 -23.466   7.715  1.00  0.00     0.026 C 
ENDBRANCH   3   5
ENDBRANCH   1   3
BRANCH   1   7
HETATM    7  N2  UNL     1      12.567 -19.386   5.175  1.00  0.00    -0.358 N 
HETATM    8  C4  UNL     1      13.431 -19.393   4.007  1.00  0.00     0.125 C 
HETATM    9  C5  UNL     1      12.642 -18.421   3.116  1.00  0.00     0.021 C 
HETATM   10  C6  UNL     1      12.110 -17.394   4.094  1.00  0.00     0.021 C 
HETATM   11  C7  UNL     1      12.255 -17.990   5.469  1.00  0.00     0.125 C 
ENDBRANCH   1   7
TORSDOF 3
ENDMDL
MODEL 2
REMARK VINA RESULT: -4.312159363      1.712      1.964
REMARK  3 active torsions:
REMARK  status: ('A' for Active; 'I' for Inactive)
REMARK    1  A    between atoms: C2_2  and  N1_3 
REMARK    2  A    between atoms: N1_3  and  C3_5 
REMARK    3  A    between atoms: C3_5  and  N2_7 
ROOT
HETATM    1  C3  UNL     1      12.417 -20.115   5.352  1.00  0.00     0.169 C 
HETATM    2  S1  UNL     1      13.654 -20.329   4.319  1.00  0.00    -0.041 SA
ENDROOT
BRANCH   1   3
HETATM    3  N1  UNL     1      12.185 -21.012   6.398  1.00  0.00    -0.367 N 
ATOM      4  H1  UNL     1      11.837 -20.682   7.297  1.00  0.00     0.161 HD
BRANCH   3   5
HETATM    5  C2  UNL     1      12.447 -22.421   6.182  1.00  0.00     0.117 C 
HETATM    6  C1  UNL     1      13.286 -23.033   7.281  1.00  0.00     0.026 C 
ENDBRANCH   3   5
ENDBRANCH   1   3
BRANCH   1   7
HETATM    7  N2  UNL     1      11.575 -19.007   5.132  1.00  0.00    -0.358 N 
HETATM    8  C4  UNL     1      11.912 -17.596   5.049  1.00  0.00     0.125 C 
HETATM    9  C5  UNL     1      11.124 -17.231   3.781  1.00  0.00     0.021 C 
HETATM   10  C6  UNL     1       9.864 -18.064   3.894  1.00  0.00     0.021 C 
HETATM   11  C7  UNL     1      10.130 -19.113   4.941  1.00  0.00     0.125 C 
ENDBRANCH   1   7
TORSDOF 3
ENDMDL
MODEL 3
REMARK VINA RESULT: -4.040441596      1.896      2.905
REMARK  3 active torsions:
REMARK  status: ('A' for Active; 'I' for Inactive)
REMARK    1  A    between atoms: C2_2  and  N1_3 
REMARK    2  A    between atoms: N1_3  and  C3_5 
REMARK    3  A    between atoms: C3_5  and  N2_7 
ROOT
HETATM    1  C3  UNL     1      11.971 -20.370   5.799  1.00  0.00     0.169 C 
HETATM    2  S1  UNL     1      12.697 -21.726   6.325  1.00  0.00    -0.041 SA
ENDROOT
BRANCH   1   3
HETATM    3  N1  UNL     1      10.621 -20.124   6.063  1.00  0.00    -0.367 N 
ATOM      4  H1  UNL     1      10.278 -20.087   7.023  1.00  0.00     0.161 HD
BRANCH   3   5
HETATM    5  C2  UNL     1       9.715 -19.922   4.950  1.00  0.00     0.117 C 
HETATM    6  C1  UNL     1       9.613 -18.470   4.539  1.00  0.00     0.026 C 
ENDBRANCH   3   5
ENDBRANCH   1   3
BRANCH   1   7
HETATM    7  N2  UNL     1      12.749 -19.470   5.044  1.00  0.00    -0.358 N 
HETATM    8  C4  UNL     1      13.519 -19.709   3.835  1.00  0.00     0.125 C 
HETATM    9  C5  UNL     1      13.050 -18.504   3.005  1.00  0.00     0.021 C 
HETATM   10  C6  UNL     1      12.914 -17.398   4.031  1.00  0.00     0.021 C 
HETATM   11  C7  UNL     1      12.914 -18.059   5.384  1.00  0.00     0.125 C 
ENDBRANCH   1   7
TORSDOF 3
ENDMDL
MODEL 4
REMARK VINA RESULT: -3.750164035      7.495      8.372
REMARK  3 active torsions:
REMARK  status: ('A' for Active; 'I' for Inactive)
REMARK    1  A    between atoms: C2_2  and  N1_3 
REMARK    2  A    between atoms: N1_3  and  C3_5 
REMARK    3  A    between atoms: C3_5  and  N2_7 
ROOT
HETATM    1  C3  UNL     1      11.789 -24.404  11.920  1.00  0.00     0.169 C 
HETATM    2  S1  UNL     1      12.029 -25.334  13.231  1.00  0.00    -0.041 SA
ENDROOT
BRANCH   1   3
HETATM    3  N1  UNL     1      12.435 -23.172  11.780  1.00  0.00    -0.367 N 
ATOM      4  H1  UNL     1      12.715 -22.835  10.859  1.00  0.00     0.161 HD
BRANCH   3   5
HETATM    5  C2  UNL     1      12.699 -22.381  12.965  1.00  0.00     0.117 C 
HETATM    6  C1  UNL     1      13.285 -21.026  12.641  1.00  0.00     0.026 C 
ENDBRANCH   3   5
ENDBRANCH   1   3
BRANCH   1   7
HETATM    7  N2  UNL     1      10.883 -24.875  10.948  1.00  0.00    -0.358 N 
HETATM    8  C4  UNL     1      11.150 -25.577   9.705  1.00  0.00     0.125 C 
HETATM    9  C5  UNL     1      10.112 -26.703   9.832  1.00  0.00     0.021 C 
HETATM   10  C6  UNL     1       8.928 -26.022  10.487  1.00  0.00     0.021 C 
HETATM   11  C7  UNL     1       9.434 -24.719  11.049  1.00  0.00     0.125 C 
ENDBRANCH   1   7
TORSDOF 3
ENDMDL
MODEL 5
REMARK VINA RESULT: -3.705307738      5.416      8.867
REMARK  3 active torsions:
REMARK  status: ('A' for Active; 'I' for Inactive)
REMARK    1  A    between atoms: C2_2  and  N1_3 
REMARK    2  A    between atoms: N1_3  and  C3_5 
REMARK    3  A    between atoms: C3_5  and  N2_7 
ROOT
HETATM    1  C3  UNL     1      11.472 -25.683  10.099  1.00  0.00     0.169 C 
HETATM    2  S1  UNL     1      10.263 -24.819  10.758  1.00  0.00    -0.041 SA
ENDROOT
BRANCH   1   3
HETATM    3  N1  UNL     1      12.051 -25.305   8.884  1.00  0.00    -0.367 N 
ATOM      4  H1  UNL     1      11.680 -25.655   8.001  1.00  0.00     0.161 HD
BRANCH   3   5
HETATM    5  C2  UNL     1      13.188 -24.407   8.901  1.00  0.00     0.117 C 
HETATM    6  C1  UNL     1      13.268 -23.545   7.661  1.00  0.00     0.026 C 
ENDBRANCH   3   5
ENDBRANCH   1   3
BRANCH   1   7
HETATM    7  N2  UNL     1      11.890 -26.841  10.785  1.00  0.00    -0.358 N 
HETATM    8  C4  UNL     1      11.470 -28.220  10.604  1.00  0.00     0.125 C 
HETATM    9  C5  UNL     1      12.851 -28.895  10.587  1.00  0.00     0.021 C 
HETATM   10  C6  UNL     1      13.645 -28.104  11.605  1.00  0.00     0.021 C 
HETATM   11  C7  UNL     1      12.878 -26.833  11.860  1.00  0.00     0.125 C 
ENDBRANCH   1   7
TORSDOF 3
ENDMDL
