MODEL 1
REMARK VINA RESULT: -9.826478590      0.000      0.000
REMARK  7 active torsions:
REMARK  status: ('A' for Active; 'I' for Inactive)
REMARK    1  A    between atoms: C2_2  and  N1_3 
REMARK    2  A    between atoms: C2_2  and  C22_30 
REMARK    3  A    between atoms: N1_3  and  C3_5 
REMARK    4  A    between atoms: C4_6  and  N2_7 
REMARK    5  A    between atoms: N2_7  and  C5_9 
REMARK    6  A    between atoms: C8_12  and  C9_13 
REMARK    7  A    between atoms: C14_20  and  C15_21 
ROOT
HETATM    1  C5  UNL     1     -11.060  -7.786  35.831  1.00  0.00     0.033 A 
HETATM    2  C6  UNL     1     -11.813  -8.245  34.768  1.00  0.00     0.030 A 
HETATM    3  C7  UNL     1     -13.133  -8.592  34.966  1.00  0.00     0.010 A 
HETATM    4  C8  UNL     1     -13.757  -8.496  36.222  1.00  0.00    -0.045 A 
HETATM    5  C14 UNL     1     -13.010  -8.041  37.258  1.00  0.00    -0.041 A 
HETATM    6  C19 UNL     1     -11.655  -7.686  37.060  1.00  0.00     0.038 A 
ENDROOT
BRANCH   1   7
HETATM    7  N2  UNL     1      -9.724  -7.415  35.547  1.00  0.00    -0.351 N 
ATOM      8  H2  UNL     1      -8.990  -8.118  35.633  1.00  0.00     0.166 HD
BRANCH   7   9
HETATM    9  C4  UNL     1      -9.369  -6.105  35.149  1.00  0.00     0.118 A 
HETATM   10  C3  UNL     1      -8.914  -5.002  35.876  1.00  0.00     0.114 A 
HETATM   11  C21 UNL     1      -8.895  -4.257  34.736  1.00  0.00     0.252 A 
HETATM   12  C20 UNL     1      -9.349  -5.355  34.008  1.00  0.00     0.253 A 
HETATM   13  O2  UNL     1      -8.591  -3.069  34.468  1.00  0.00    -0.281 OA
HETATM   14  O1  UNL     1      -9.601  -5.481  32.804  1.00  0.00    -0.281 OA
BRANCH  10  15
HETATM   15  N1  UNL     1      -8.608  -4.778  37.243  1.00  0.00    -0.380 N 
ATOM     16  H1  UNL     1      -8.358  -5.563  37.846  1.00  0.00     0.160 HD
BRANCH  15  17
HETATM   17  C2  UNL     1      -8.652  -3.449  37.775  1.00  0.00     0.085 C 
HETATM   18  C1  UNL     1     -10.040  -2.974  38.030  1.00  0.00     0.033 C 
BRANCH  17  19
HETATM   19  C22 UNL     1      -7.756  -3.304  39.000  1.00  0.00    -0.031 C 
HETATM   20  C23 UNL     1      -7.145  -1.936  39.052  1.00  0.00     0.016 C 
HETATM   21  C24 UNL     1      -6.677  -4.375  38.903  1.00  0.00     0.016 C 
HETATM   22  C25 UNL     1      -8.546  -3.579  40.256  1.00  0.00     0.016 C 
ENDBRANCH  17  19
ENDBRANCH  15  17
ENDBRANCH  10  15
ENDBRANCH   7   9
ENDBRANCH   1   7
BRANCH   5  23
HETATM   23  C15 UNL     1     -13.561  -7.838  38.612  1.00  0.00    -0.016 A 
HETATM   24  C16 UNL     1     -14.791  -6.966  38.790  1.00  0.00     0.020 C 
HETATM   25  C17 UNL     1     -12.600  -7.878  39.769  1.00  0.00     0.015 A 
HETATM   26  C18 UNL     1     -13.506  -9.028  39.540  1.00  0.00     0.015 A 
ENDBRANCH   5  23
BRANCH   4  27
HETATM   27  C9  UNL     1     -15.128  -8.948  36.355  1.00  0.00     0.036 C 
HETATM   28  C10 UNL     1     -15.839  -8.887  34.960  1.00  0.00     0.012 C 
HETATM   29  C11 UNL     1     -17.308  -9.115  35.227  1.00  0.00     0.020 C 
HETATM   30  C12 UNL     1     -17.558  -9.658  36.589  1.00  0.00     0.113 C 
HETATM   31  N3  UNL     1     -16.642 -10.668  37.008  1.00  0.00    -0.420 N 
HETATM   32  C13 UNL     1     -15.266 -10.450  36.649  1.00  0.00     0.123 C 
ATOM     33  H3  UNL     1     -16.944 -11.491  37.528  1.00  0.00     0.153 HD
ENDBRANCH   4  27
TORSDOF 7
ENDMDL
MODEL 2
REMARK VINA RESULT: -9.655970820      2.412      3.686
REMARK  7 active torsions:
REMARK  status: ('A' for Active; 'I' for Inactive)
REMARK    1  A    between atoms: C2_2  and  N1_3 
REMARK    2  A    between atoms: C2_2  and  C22_30 
REMARK    3  A    between atoms: N1_3  and  C3_5 
REMARK    4  A    between atoms: C4_6  and  N2_7 
REMARK    5  A    between atoms: N2_7  and  C5_9 
REMARK    6  A    between atoms: C8_12  and  C9_13 
REMARK    7  A    between atoms: C14_20  and  C15_21 
ROOT
HETATM    1  C5  UNL     1     -11.411  -6.212  35.546  1.00  0.00     0.033 A 
HETATM    2  C6  UNL     1     -10.531  -6.958  34.787  1.00  0.00     0.030 A 
HETATM    3  C7  UNL     1     -10.852  -8.256  34.447  1.00  0.00     0.010 A 
HETATM    4  C8  UNL     1     -12.057  -8.863  34.845  1.00  0.00    -0.045 A 
HETATM    5  C14 UNL     1     -12.915  -8.121  35.586  1.00  0.00    -0.041 A 
HETATM    6  C19 UNL     1     -12.589  -6.790  35.938  1.00  0.00     0.038 A 
ENDROOT
BRANCH   1   7
HETATM    7  N2  UNL     1     -11.032  -4.878  35.826  1.00  0.00    -0.351 N 
ATOM      8  H2  UNL     1     -11.676  -4.124  35.585  1.00  0.00     0.166 HD
BRANCH   7   9
HETATM    9  C4  UNL     1      -9.795  -4.551  36.428  1.00  0.00     0.118 A 
HETATM   10  C3  UNL     1      -9.293  -4.783  37.711  1.00  0.00     0.114 A 
HETATM   11  C21 UNL     1      -8.150  -4.118  37.385  1.00  0.00     0.252 A 
HETATM   12  C20 UNL     1      -8.647  -3.885  36.105  1.00  0.00     0.253 A 
HETATM   13  O2  UNL     1      -7.092  -3.838  37.999  1.00  0.00    -0.281 OA
HETATM   14  O1  UNL     1      -8.153  -3.293  35.138  1.00  0.00    -0.281 OA
BRANCH  10  15
HETATM   15  N1  UNL     1      -9.795  -5.442  38.863  1.00  0.00    -0.380 N 
ATOM     16  H1  UNL     1      -9.166  -5.981  39.458  1.00  0.00     0.160 HD
BRANCH  15  17
HETATM   17  C2  UNL     1     -11.186  -5.348  39.188  1.00  0.00     0.085 C 
HETATM   18  C1  UNL     1     -11.847  -6.679  39.286  1.00  0.00     0.033 C 
BRANCH  17  19
HETATM   19  C22 UNL     1     -11.419  -4.494  40.429  1.00  0.00    -0.031 C 
HETATM   20  C23 UNL     1     -10.115  -4.050  41.020  1.00  0.00     0.016 C 
HETATM   21  C24 UNL     1     -12.202  -5.342  41.423  1.00  0.00     0.016 C 
HETATM   22  C25 UNL     1     -12.278  -3.302  40.085  1.00  0.00     0.016 C 
ENDBRANCH  17  19
ENDBRANCH  15  17
ENDBRANCH  10  15
ENDBRANCH   7   9
ENDBRANCH   1   7
BRANCH   5  23
HETATM   23  C15 UNL     1     -14.236  -8.618  36.016  1.00  0.00    -0.016 A 
HETATM   24  C16 UNL     1     -15.299  -8.901  34.970  1.00  0.00     0.020 C 
HETATM   25  C17 UNL     1     -14.732  -8.199  37.373  1.00  0.00     0.015 A 
HETATM   26  C18 UNL     1     -14.239  -9.583  37.178  1.00  0.00     0.015 A 
ENDBRANCH   5  23
BRANCH   4  27
HETATM   27  C9  UNL     1     -12.282 -10.253  34.502  1.00  0.00     0.036 C 
HETATM   28  C10 UNL     1     -11.616 -10.569  33.119  1.00  0.00     0.012 C 
HETATM   29  C11 UNL     1     -12.113 -11.937  32.717  1.00  0.00     0.020 C 
HETATM   30  C12 UNL     1     -12.741 -12.667  33.849  1.00  0.00     0.113 C 
HETATM   31  N3  UNL     1     -12.052 -12.550  35.092  1.00  0.00    -0.420 N 
HETATM   32  C13 UNL     1     -11.516 -11.248  35.389  1.00  0.00     0.123 C 
ATOM     33  H3  UNL     1     -11.945 -13.339  35.730  1.00  0.00     0.153 HD
ENDBRANCH   4  27
TORSDOF 7
ENDMDL
MODEL 3
REMARK VINA RESULT: -9.627079012      2.373      3.802
REMARK  7 active torsions:
REMARK  status: ('A' for Active; 'I' for Inactive)
REMARK    1  A    between atoms: C2_2  and  N1_3 
REMARK    2  A    between atoms: C2_2  and  C22_30 
REMARK    3  A    between atoms: N1_3  and  C3_5 
REMARK    4  A    between atoms: C4_6  and  N2_7 
REMARK    5  A    between atoms: N2_7  and  C5_9 
REMARK    6  A    between atoms: C8_12  and  C9_13 
REMARK    7  A    between atoms: C14_20  and  C15_21 
ROOT
HETATM    1  C5  UNL     1     -11.208  -6.123  35.285  1.00  0.00     0.033 A 
HETATM    2  C6  UNL     1     -10.368  -6.927  34.541  1.00  0.00     0.030 A 
HETATM    3  C7  UNL     1     -10.728  -8.232  34.276  1.00  0.00     0.010 A 
HETATM    4  C8  UNL     1     -11.935  -8.789  34.736  1.00  0.00    -0.045 A 
HETATM    5  C14 UNL     1     -12.754  -7.990  35.462  1.00  0.00    -0.041 A 
HETATM    6  C19 UNL     1     -12.388  -6.651  35.738  1.00  0.00     0.038 A 
ENDROOT
BRANCH   1   7
HETATM    7  N2  UNL     1     -10.791  -4.787  35.487  1.00  0.00    -0.351 N 
ATOM      8  H2  UNL     1     -11.336  -4.033  35.068  1.00  0.00     0.166 HD
BRANCH   7   9
HETATM    9  C4  UNL     1      -9.646  -4.456  36.248  1.00  0.00     0.118 A 
HETATM   10  C3  UNL     1      -9.499  -4.032  37.572  1.00  0.00     0.114 A 
HETATM   11  C21 UNL     1      -8.152  -3.929  37.390  1.00  0.00     0.252 A 
HETATM   12  C20 UNL     1      -8.296  -4.351  36.069  1.00  0.00     0.253 A 
HETATM   13  O2  UNL     1      -7.191  -3.591  38.121  1.00  0.00    -0.281 OA
HETATM   14  O1  UNL     1      -7.457  -4.525  35.178  1.00  0.00    -0.281 OA
BRANCH  10  15
HETATM   15  N1  UNL     1     -10.401  -3.807  38.643  1.00  0.00    -0.380 N 
ATOM     16  H1  UNL     1     -10.995  -2.977  38.645  1.00  0.00     0.160 HD
BRANCH  15  17
HETATM   17  C2  UNL     1     -10.477  -4.746  39.721  1.00  0.00     0.085 C 
HETATM   18  C1  UNL     1     -10.192  -4.130  41.046  1.00  0.00     0.033 C 
BRANCH  17  19
HETATM   19  C22 UNL     1     -11.795  -5.511  39.709  1.00  0.00    -0.031 C 
HETATM   20  C23 UNL     1     -12.822  -4.789  38.892  1.00  0.00     0.016 C 
HETATM   21  C24 UNL     1     -12.253  -5.646  41.156  1.00  0.00     0.016 C 
HETATM   22  C25 UNL     1     -11.581  -6.907  39.177  1.00  0.00     0.016 C 
ENDBRANCH  17  19
ENDBRANCH  15  17
ENDBRANCH  10  15
ENDBRANCH   7   9
ENDBRANCH   1   7
BRANCH   5  23
HETATM   23  C15 UNL     1     -14.074  -8.433  35.952  1.00  0.00    -0.016 A 
HETATM   24  C16 UNL     1     -15.186  -8.696  34.954  1.00  0.00     0.020 C 
HETATM   25  C17 UNL     1     -14.501  -7.972  37.319  1.00  0.00     0.015 A 
HETATM   26  C18 UNL     1     -14.065  -9.375  37.132  1.00  0.00     0.015 A 
ENDBRANCH   5  23
BRANCH   4  27
HETATM   27  C9  UNL     1     -12.202 -10.188  34.471  1.00  0.00     0.036 C 
HETATM   28  C10 UNL     1     -11.579 -10.590  33.090  1.00  0.00     0.012 C 
HETATM   29  C11 UNL     1     -12.118 -11.964  32.770  1.00  0.00     0.020 C 
HETATM   30  C12 UNL     1     -12.735 -12.620  33.953  1.00  0.00     0.113 C 
HETATM   31  N3  UNL     1     -12.012 -12.458  35.172  1.00  0.00    -0.420 N 
HETATM   32  C13 UNL     1     -11.438 -11.156  35.389  1.00  0.00     0.123 C 
ATOM     33  H3  UNL     1     -11.908 -13.216  35.846  1.00  0.00     0.153 HD
ENDBRANCH   4  27
TORSDOF 7
ENDMDL
MODEL 4
REMARK VINA RESULT: -9.542860690      4.475      7.133
REMARK  7 active torsions:
REMARK  status: ('A' for Active; 'I' for Inactive)
REMARK    1  A    between atoms: C2_2  and  N1_3 
REMARK    2  A    between atoms: C2_2  and  C22_30 
REMARK    3  A    between atoms: N1_3  and  C3_5 
REMARK    4  A    between atoms: C4_6  and  N2_7 
REMARK    5  A    between atoms: N2_7  and  C5_9 
REMARK    6  A    between atoms: C8_12  and  C9_13 
REMARK    7  A    between atoms: C14_20  and  C15_21 
ROOT
HETATM    1  C5  UNL     1     -11.834  -3.155  36.314  1.00  0.00     0.033 A 
HETATM    2  C6  UNL     1     -11.782  -2.454  35.126  1.00  0.00     0.030 A 
HETATM    3  C7  UNL     1     -12.455  -1.256  35.009  1.00  0.00     0.010 A 
HETATM    4  C8  UNL     1     -13.205  -0.707  36.064  1.00  0.00    -0.045 A 
HETATM    5  C14 UNL     1     -13.247  -1.401  37.228  1.00  0.00    -0.041 A 
HETATM    6  C19 UNL     1     -12.559  -2.631  37.352  1.00  0.00     0.038 A 
ENDROOT
BRANCH   1   7
HETATM    7  N2  UNL     1     -11.091  -4.357  36.374  1.00  0.00    -0.351 N 
ATOM      8  H2  UNL     1     -11.435  -5.173  35.868  1.00  0.00     0.166 HD
BRANCH   7   9
HETATM    9  C4  UNL     1      -9.887  -4.469  37.108  1.00  0.00     0.118 A 
HETATM   10  C3  UNL     1      -9.627  -4.914  38.407  1.00  0.00     0.114 A 
HETATM   11  C21 UNL     1      -8.305  -4.629  38.241  1.00  0.00     0.252 A 
HETATM   12  C20 UNL     1      -8.561  -4.185  36.945  1.00  0.00     0.253 A 
HETATM   13  O2  UNL     1      -7.287  -4.730  38.967  1.00  0.00    -0.281 OA
HETATM   14  O1  UNL     1      -7.804  -3.730  36.079  1.00  0.00    -0.281 OA
BRANCH  10  15
HETATM   15  N1  UNL     1     -10.432  -5.438  39.451  1.00  0.00    -0.380 N 
ATOM     16  H1  UNL     1     -10.112  -5.387  40.418  1.00  0.00     0.160 HD
BRANCH  15  17
HETATM   17  C2  UNL     1     -11.694  -6.040  39.143  1.00  0.00     0.085 C 
HETATM   18  C1  UNL     1     -11.577  -7.483  38.797  1.00  0.00     0.033 C 
BRANCH  17  19
HETATM   19  C22 UNL     1     -12.720  -5.790  40.244  1.00  0.00    -0.031 C 
HETATM   20  C23 UNL     1     -14.093  -5.634  39.665  1.00  0.00     0.016 C 
HETATM   21  C24 UNL     1     -12.296  -4.525  40.979  1.00  0.00     0.016 C 
HETATM   22  C25 UNL     1     -12.692  -6.919  41.245  1.00  0.00     0.016 C 
ENDBRANCH  17  19
ENDBRANCH  15  17
ENDBRANCH  10  15
ENDBRANCH   7   9
ENDBRANCH   1   7
BRANCH   5  23
HETATM   23  C15 UNL     1     -13.947  -0.907  38.429  1.00  0.00    -0.016 A 
HETATM   24  C16 UNL     1     -13.711   0.520  38.891  1.00  0.00     0.020 C 
HETATM   25  C17 UNL     1     -14.285  -1.906  39.501  1.00  0.00     0.015 A 
HETATM   26  C18 UNL     1     -15.363  -1.394  38.623  1.00  0.00     0.015 A 
ENDBRANCH   5  23
BRANCH   4  27
HETATM   27  C9  UNL     1     -13.938   0.522  35.833  1.00  0.00     0.036 C 
HETATM   28  C10 UNL     1     -13.429   1.197  34.513  1.00  0.00     0.012 C 
HETATM   29  C11 UNL     1     -14.043   2.576  34.483  1.00  0.00     0.020 C 
HETATM   30  C12 UNL     1     -15.158   2.721  35.457  1.00  0.00     0.113 C 
HETATM   31  N3  UNL     1     -16.040   1.602  35.528  1.00  0.00    -0.420 N 
HETATM   32  C13 UNL     1     -15.414   0.309  35.460  1.00  0.00     0.123 C 
ATOM     33  H3  UNL     1     -17.049   1.713  35.620  1.00  0.00     0.153 HD
ENDBRANCH   4  27
TORSDOF 7
ENDMDL
MODEL 5
REMARK VINA RESULT: -9.448493679      3.337      5.333
REMARK  7 active torsions:
REMARK  status: ('A' for Active; 'I' for Inactive)
REMARK    1  A    between atoms: C2_2  and  N1_3 
REMARK    2  A    between atoms: C2_2  and  C22_30 
REMARK    3  A    between atoms: N1_3  and  C3_5 
REMARK    4  A    between atoms: C4_6  and  N2_7 
REMARK    5  A    between atoms: N2_7  and  C5_9 
REMARK    6  A    between atoms: C8_12  and  C9_13 
REMARK    7  A    between atoms: C14_20  and  C15_21 
ROOT
HETATM    1  C5  UNL     1     -14.128  -8.190  38.283  1.00  0.00     0.033 A 
HETATM    2  C6  UNL     1     -12.863  -8.738  38.206  1.00  0.00     0.030 A 
HETATM    3  C7  UNL     1     -12.506  -9.477  37.098  1.00  0.00     0.010 A 
HETATM    4  C8  UNL     1     -13.386  -9.701  36.024  1.00  0.00    -0.045 A 
HETATM    5  C14 UNL     1     -14.624  -9.155  36.108  1.00  0.00    -0.041 A 
HETATM    6  C19 UNL     1     -14.996  -8.397  37.244  1.00  0.00     0.038 A 
ENDROOT
BRANCH   1   7
HETATM    7  N2  UNL     1     -14.413  -7.415  39.431  1.00  0.00    -0.351 N 
ATOM      8  H2  UNL     1     -15.354  -7.446  39.824  1.00  0.00     0.166 HD
BRANCH   7   9
HETATM    9  C4  UNL     1     -13.442  -6.598  40.056  1.00  0.00     0.118 A 
HETATM   10  C3  UNL     1     -12.850  -5.393  39.669  1.00  0.00     0.114 A 
HETATM   11  C21 UNL     1     -12.077  -5.411  40.791  1.00  0.00     0.252 A 
HETATM   12  C20 UNL     1     -12.665  -6.614  41.180  1.00  0.00     0.253 A 
HETATM   13  O2  UNL     1     -11.199  -4.651  41.265  1.00  0.00    -0.281 OA
HETATM   14  O1  UNL     1     -12.475  -7.325  42.173  1.00  0.00    -0.281 OA
BRANCH  10  15
HETATM   15  N1  UNL     1     -13.008  -4.528  38.556  1.00  0.00    -0.380 N 
ATOM     16  H1  UNL     1     -13.889  -4.034  38.413  1.00  0.00     0.160 HD
BRANCH  15  17
HETATM   17  C2  UNL     1     -11.927  -4.351  37.633  1.00  0.00     0.085 C 
HETATM   18  C1  UNL     1     -12.011  -5.268  36.463  1.00  0.00     0.033 C 
BRANCH  17  19
HETATM   19  C22 UNL     1     -11.777  -2.892  37.216  1.00  0.00    -0.031 C 
HETATM   20  C23 UNL     1     -11.686  -2.773  35.725  1.00  0.00     0.016 C 
HETATM   21  C24 UNL     1     -10.514  -2.359  37.879  1.00  0.00     0.016 C 
HETATM   22  C25 UNL     1     -12.935  -2.080  37.742  1.00  0.00     0.016 C 
ENDBRANCH  17  19
ENDBRANCH  15  17
ENDBRANCH  10  15
ENDBRANCH   7   9
ENDBRANCH   1   7
BRANCH   5  23
HETATM   23  C15 UNL     1     -15.621  -9.264  35.026  1.00  0.00    -0.016 A 
HETATM   24  C16 UNL     1     -15.255  -8.792  33.630  1.00  0.00     0.020 C 
HETATM   25  C17 UNL     1     -17.074  -9.165  35.402  1.00  0.00     0.015 A 
HETATM   26  C18 UNL     1     -16.505 -10.488  35.054  1.00  0.00     0.015 A 
ENDBRANCH   5  23
BRANCH   4  27
HETATM   27  C9  UNL     1     -12.952 -10.547  34.931  1.00  0.00     0.036 C 
HETATM   28  C10 UNL     1     -11.776  -9.851  34.163  1.00  0.00     0.012 C 
HETATM   29  C11 UNL     1     -11.562 -10.658  32.904  1.00  0.00     0.020 C 
HETATM   30  C12 UNL     1     -12.234 -11.983  32.959  1.00  0.00     0.113 C 
HETATM   31  N3  UNL     1     -12.120 -12.660  34.209  1.00  0.00    -0.420 N 
HETATM   32  C13 UNL     1     -12.240 -11.833  35.380  1.00  0.00     0.123 C 
ATOM     33  H3  UNL     1     -11.964 -13.666  34.269  1.00  0.00     0.153 HD
ENDBRANCH   4  27
TORSDOF 7
ENDMDL
