MODEL 1
REMARK VINA RESULT: -7.765215227      0.000      0.000
REMARK  17 active torsions:
REMARK  status: ('A' for Active; 'I' for Inactive)
REMARK    1  A    between atoms: C2_2  and  C3_3 
REMARK    2  A    between atoms: C3_3  and  C4_4 
REMARK    3  A    between atoms: C4_4  and  C5_5 
REMARK    4  A    between atoms: C5_5  and  C6_6 
REMARK    5  A    between atoms: C5_5  and  C12_15 
REMARK    6  A    between atoms: C5_5  and  N2_19 
REMARK    7  A    between atoms: C6_6  and  C7_7 
REMARK    8  A    between atoms: C7_7  and  C8_8 
REMARK    9  A    between atoms: C8_8  and  C9_9 
REMARK   10  A    between atoms: C9_9  and  N1_10 
REMARK       I    between atoms: N1_10  and  C10_12 
REMARK   11  A    between atoms: C12_15  and  O3_17 
REMARK   12  A    between atoms: N3_24  and  C18_25 
REMARK   13  A    between atoms: C18_25  and  O4_27 
REMARK   14  A    between atoms: C20_29  and  C21_30 
REMARK   15  A    between atoms: C21_30  and  C22_31 
REMARK   16  A    between atoms: C22_31  and  C23_32 
REMARK   17  A    between atoms: C23_32  and  N4_33 
ROOT
HETATM    1  N2  UNL     1      19.478  32.914  15.032  1.00  0.00    -0.329 N 
HETATM    2  C14 UNL     1      18.480  33.833  14.538  1.00  0.00     0.157 C 
HETATM    3  C15 UNL     1      17.375  34.040  15.585  1.00  0.00     0.044 C 
HETATM    4  C16 UNL     1      16.480  32.787  15.588  1.00  0.00     0.040 C 
HETATM    5  C17 UNL     1      16.529  35.167  15.102  1.00  0.00     0.040 C 
HETATM    6  N3  UNL     1      17.926  34.271  16.893  1.00  0.00    -0.342 N 
HETATM    7  C20 UNL     1      19.324  34.384  17.136  1.00  0.00     0.179 C 
HETATM    8  C25 UNL     1      19.996  33.276  16.301  1.00  0.00     0.244 C 
HETATM    9  O5  UNL     1      21.000  32.763  16.838  1.00  0.00    -0.271 OA
ENDROOT
BRANCH   1  10
HETATM   10  C5  UNL     1      19.915  31.748  14.361  1.00  0.00     0.123 C 
BRANCH  10  11
HETATM   11  C4  UNL     1      18.774  31.384  13.385  1.00  0.00     0.042 C 
BRANCH  11  12
HETATM   12  C3  UNL     1      18.032  30.152  13.783  1.00  0.00     0.002 C 
BRANCH  12  13
HETATM   13  C2  UNL     1      17.770  29.278  12.545  1.00  0.00    -0.004 C 
HETATM   14  C1  UNL     1      17.611  27.859  13.051  1.00  0.00     0.005 C 
ENDBRANCH  12  13
ENDBRANCH  11  12
ENDBRANCH  10  11
BRANCH  10  15
HETATM   15  C6  UNL     1      20.174  30.517  15.133  1.00  0.00     0.042 C 
BRANCH  15  16
HETATM   16  C7  UNL     1      21.462  29.808  15.007  1.00  0.00     0.004 C 
BRANCH  16  17
HETATM   17  C8  UNL     1      21.116  28.370  14.535  1.00  0.00     0.020 C 
BRANCH  17  18
HETATM   18  C9  UNL     1      21.385  28.223  13.075  1.00  0.00     0.122 C 
BRANCH  18  19
HETATM   19  N1  UNL     1      22.799  28.199  12.825  1.00  0.00    -0.361 N 
HETATM   20  C10 UNL     1      23.392  27.165  12.091  1.00  0.00     0.213 C 
HETATM   21  C11 UNL     1      24.842  27.164  11.849  1.00  0.00     0.117 C 
HETATM   22  O1  UNL     1      22.679  26.239  11.641  1.00  0.00    -0.274 OA
ATOM     23  H1  UNL     1      23.383  28.951  13.190  1.00  0.00     0.162 HD
ENDBRANCH  18  19
ENDBRANCH  17  18
ENDBRANCH  16  17
ENDBRANCH  15  16
ENDBRANCH  10  15
BRANCH  10  24
HETATM   24  C12 UNL     1      21.116  32.017  13.489  1.00  0.00     0.287 C 
HETATM   25  O2  UNL     1      21.226  31.425  12.392  1.00  0.00    -0.262 OA
BRANCH  24  26
HETATM   26  O3  UNL     1      22.126  32.896  13.834  1.00  0.00    -0.325 OA
HETATM   27  C13 UNL     1      23.354  32.483  14.394  1.00  0.00     0.213 C 
ENDBRANCH  24  26
ENDBRANCH  10  24
ENDBRANCH   1  10
BRANCH   7  28
HETATM   28  C21 UNL     1      20.096  35.610  17.011  1.00  0.00     0.037 C 
BRANCH  28  29
HETATM   29  C22 UNL     1      20.592  36.398  18.152  1.00  0.00     0.022 C 
BRANCH  29  30
HETATM   30  C23 UNL     1      19.993  37.705  18.490  1.00  0.00     0.122 C 
BRANCH  30  31
HETATM   31  N4  UNL     1      19.176  38.243  17.411  1.00  0.00    -0.367 N 
HETATM   32  C24 UNL     1      17.905  38.295  17.554  1.00  0.00     0.196 C 
HETATM   33  N5  UNL     1      17.314  37.832  18.753  1.00  0.00    -0.067 NA
HETATM   34  N6  UNL     1      17.062  38.809  16.539  1.00  0.00    -0.067 NA
ATOM     35  H4  UNL     1      19.611  38.575  16.550  1.00  0.00     0.161 HD
ENDBRANCH  30  31
ENDBRANCH  29  30
ENDBRANCH  28  29
ENDBRANCH   7  28
BRANCH   6  36
HETATM   36  C18 UNL     1      17.041  34.334  18.007  1.00  0.00     0.110 C 
HETATM   37  C19 UNL     1      15.619  34.013  18.051  1.00  0.00     0.097 C 
BRANCH  36  38
HETATM   38  O4  UNL     1      17.616  34.734  19.107  1.00  0.00    -0.350 OA
ATOM     39  H4  UNL     1      17.472  35.654  19.298  1.00  0.00     0.219 HD
ENDBRANCH  36  38
ENDBRANCH   6  36
TORSDOF 17
ENDMDL
MODEL 2
REMARK VINA RESULT: -7.463168750      1.679      2.224
REMARK  17 active torsions:
REMARK  status: ('A' for Active; 'I' for Inactive)
REMARK    1  A    between atoms: C2_2  and  C3_3 
REMARK    2  A    between atoms: C3_3  and  C4_4 
REMARK    3  A    between atoms: C4_4  and  C5_5 
REMARK    4  A    between atoms: C5_5  and  C6_6 
REMARK    5  A    between atoms: C5_5  and  C12_15 
REMARK    6  A    between atoms: C5_5  and  N2_19 
REMARK    7  A    between atoms: C6_6  and  C7_7 
REMARK    8  A    between atoms: C7_7  and  C8_8 
REMARK    9  A    between atoms: C8_8  and  C9_9 
REMARK   10  A    between atoms: C9_9  and  N1_10 
REMARK       I    between atoms: N1_10  and  C10_12 
REMARK   11  A    between atoms: C12_15  and  O3_17 
REMARK   12  A    between atoms: N3_24  and  C18_25 
REMARK   13  A    between atoms: C18_25  and  O4_27 
REMARK   14  A    between atoms: C20_29  and  C21_30 
REMARK   15  A    between atoms: C21_30  and  C22_31 
REMARK   16  A    between atoms: C22_31  and  C23_32 
REMARK   17  A    between atoms: C23_32  and  N4_33 
ROOT
HETATM    1  N2  UNL     1      19.410  32.929  15.048  1.00  0.00    -0.329 N 
HETATM    2  C14 UNL     1      18.414  33.839  14.535  1.00  0.00     0.157 C 
HETATM    3  C15 UNL     1      17.286  34.034  15.562  1.00  0.00     0.044 C 
HETATM    4  C16 UNL     1      16.403  32.773  15.545  1.00  0.00     0.040 C 
HETATM    5  C17 UNL     1      16.439  35.154  15.063  1.00  0.00     0.040 C 
HETATM    6  N3  UNL     1      17.809  34.269  16.880  1.00  0.00    -0.342 N 
HETATM    7  C20 UNL     1      19.202  34.394  17.150  1.00  0.00     0.179 C 
HETATM    8  C25 UNL     1      19.901  33.294  16.327  1.00  0.00     0.244 C 
HETATM    9  O5  UNL     1      20.898  32.789  16.883  1.00  0.00    -0.271 OA
ENDROOT
BRANCH   1  10
HETATM   10  C5  UNL     1      19.871  31.768  14.384  1.00  0.00     0.123 C 
BRANCH  10  11
HETATM   11  C4  UNL     1      18.763  31.408  13.369  1.00  0.00     0.042 C 
BRANCH  11  12
HETATM   12  C3  UNL     1      18.017  30.167  13.731  1.00  0.00     0.002 C 
BRANCH  12  13
HETATM   13  C2  UNL     1      17.833  29.287  12.482  1.00  0.00    -0.004 C 
HETATM   14  C1  UNL     1      17.739  27.859  12.977  1.00  0.00     0.005 C 
ENDBRANCH  12  13
ENDBRANCH  11  12
ENDBRANCH  10  11
BRANCH  10  15
HETATM   15  C6  UNL     1      20.108  30.533  15.156  1.00  0.00     0.042 C 
BRANCH  15  16
HETATM   16  C7  UNL     1      21.408  29.840  15.086  1.00  0.00     0.004 C 
BRANCH  16  17
HETATM   17  C8  UNL     1      21.108  28.415  14.548  1.00  0.00     0.020 C 
BRANCH  17  18
HETATM   18  C9  UNL     1      21.831  28.181  13.264  1.00  0.00     0.122 C 
BRANCH  18  19
HETATM   19  N1  UNL     1      21.271  27.054  12.571  1.00  0.00    -0.361 N 
HETATM   20  C10 UNL     1      22.078  26.172  11.843  1.00  0.00     0.213 C 
HETATM   21  C11 UNL     1      21.480  25.025  11.143  1.00  0.00     0.117 C 
HETATM   22  O1  UNL     1      23.313  26.365  11.790  1.00  0.00    -0.274 OA
ATOM     23  H1  UNL     1      20.265  26.893  12.612  1.00  0.00     0.162 HD
ENDBRANCH  18  19
ENDBRANCH  17  18
ENDBRANCH  16  17
ENDBRANCH  15  16
ENDBRANCH  10  15
BRANCH  10  24
HETATM   24  C12 UNL     1      21.100  32.045  13.553  1.00  0.00     0.287 C 
HETATM   25  O2  UNL     1      21.257  31.442  12.467  1.00  0.00    -0.262 OA
BRANCH  24  26
HETATM   26  O3  UNL     1      22.083  32.942  13.924  1.00  0.00    -0.325 OA
HETATM   27  C13 UNL     1      23.341  32.547  14.427  1.00  0.00     0.213 C 
ENDBRANCH  24  26
ENDBRANCH  10  24
ENDBRANCH   1  10
BRANCH   7  28
HETATM   28  C21 UNL     1      19.965  35.628  17.041  1.00  0.00     0.037 C 
BRANCH  28  29
HETATM   29  C22 UNL     1      20.733  36.228  18.145  1.00  0.00     0.022 C 
BRANCH  29  30
HETATM   30  C23 UNL     1      22.206  36.118  18.191  1.00  0.00     0.122 C 
BRANCH  30  31
HETATM   31  N4  UNL     1      22.873  37.357  17.815  1.00  0.00    -0.367 N 
HETATM   32  C24 UNL     1      23.596  37.965  18.678  1.00  0.00     0.196 C 
HETATM   33  N5  UNL     1      23.737  37.428  19.980  1.00  0.00    -0.067 NA
HETATM   34  N6  UNL     1      24.268  39.172  18.368  1.00  0.00    -0.067 NA
ATOM     35  H4  UNL     1      22.766  37.735  16.874  1.00  0.00     0.161 HD
ENDBRANCH  30  31
ENDBRANCH  29  30
ENDBRANCH  28  29
ENDBRANCH   7  28
BRANCH   6  36
HETATM   36  C18 UNL     1      16.903  34.322  17.977  1.00  0.00     0.110 C 
HETATM   37  C19 UNL     1      15.491  33.956  18.001  1.00  0.00     0.097 C 
BRANCH  36  38
HETATM   38  O4  UNL     1      17.445  34.759  19.080  1.00  0.00    -0.350 OA
ATOM     39  H4  UNL     1      18.394  34.793  19.049  1.00  0.00     0.219 HD
ENDBRANCH  36  38
ENDBRANCH   6  36
TORSDOF 17
ENDMDL
MODEL 3
REMARK VINA RESULT: -7.087044001      1.276      2.826
REMARK  17 active torsions:
REMARK  status: ('A' for Active; 'I' for Inactive)
REMARK    1  A    between atoms: C2_2  and  C3_3 
REMARK    2  A    between atoms: C3_3  and  C4_4 
REMARK    3  A    between atoms: C4_4  and  C5_5 
REMARK    4  A    between atoms: C5_5  and  C6_6 
REMARK    5  A    between atoms: C5_5  and  C12_15 
REMARK    6  A    between atoms: C5_5  and  N2_19 
REMARK    7  A    between atoms: C6_6  and  C7_7 
REMARK    8  A    between atoms: C7_7  and  C8_8 
REMARK    9  A    between atoms: C8_8  and  C9_9 
REMARK   10  A    between atoms: C9_9  and  N1_10 
REMARK       I    between atoms: N1_10  and  C10_12 
REMARK   11  A    between atoms: C12_15  and  O3_17 
REMARK   12  A    between atoms: N3_24  and  C18_25 
REMARK   13  A    between atoms: C18_25  and  O4_27 
REMARK   14  A    between atoms: C20_29  and  C21_30 
REMARK   15  A    between atoms: C21_30  and  C22_31 
REMARK   16  A    between atoms: C22_31  and  C23_32 
REMARK   17  A    between atoms: C23_32  and  N4_33 
ROOT
HETATM    1  N2  UNL     1      19.588  32.337  14.989  1.00  0.00    -0.329 N 
HETATM    2  C14 UNL     1      18.713  33.284  14.341  1.00  0.00     0.157 C 
HETATM    3  C15 UNL     1      17.486  33.570  15.220  1.00  0.00     0.044 C 
HETATM    4  C16 UNL     1      16.540  32.358  15.129  1.00  0.00     0.040 C 
HETATM    5  C17 UNL     1      16.769  34.718  14.599  1.00  0.00     0.040 C 
HETATM    6  N3  UNL     1      17.863  33.816  16.586  1.00  0.00    -0.342 N 
HETATM    7  C20 UNL     1      19.218  33.874  17.017  1.00  0.00     0.179 C 
HETATM    8  C25 UNL     1      19.945  32.713  16.309  1.00  0.00     0.244 C 
HETATM    9  O5  UNL     1      20.840  32.172  16.991  1.00  0.00    -0.271 OA
ENDROOT
BRANCH   1  10
HETATM   10  C5  UNL     1      20.057  31.134  14.412  1.00  0.00     0.123 C 
BRANCH  10  11
HETATM   11  C4  UNL     1      21.573  31.098  14.709  1.00  0.00     0.042 C 
BRANCH  11  12
HETATM   12  C3  UNL     1      22.329  32.192  14.033  1.00  0.00     0.002 C 
BRANCH  12  13
HETATM   13  C2  UNL     1      23.726  32.327  14.665  1.00  0.00    -0.004 C 
HETATM   14  C1  UNL     1      23.590  33.334  15.787  1.00  0.00     0.005 C 
ENDBRANCH  12  13
ENDBRANCH  11  12
ENDBRANCH  10  11
BRANCH  10  15
HETATM   15  C6  UNL     1      19.942  30.931  12.955  1.00  0.00     0.042 C 
BRANCH  15  16
HETATM   16  C7  UNL     1      21.030  30.286  12.196  1.00  0.00     0.004 C 
BRANCH  16  17
HETATM   17  C8  UNL     1      20.577  28.820  11.957  1.00  0.00     0.020 C 
BRANCH  17  18
HETATM   18  C9  UNL     1      21.427  27.878  12.742  1.00  0.00     0.122 C 
BRANCH  18  19
HETATM   19  N1  UNL     1      22.804  28.004  12.354  1.00  0.00    -0.361 N 
HETATM   20  C10 UNL     1      23.530  26.905  11.878  1.00  0.00     0.213 C 
HETATM   21  C11 UNL     1      24.939  27.059  11.486  1.00  0.00     0.117 C 
HETATM   22  O1  UNL     1      22.971  25.789  11.786  1.00  0.00    -0.274 OA
ATOM     23  H1  UNL     1      23.263  28.911  12.427  1.00  0.00     0.162 HD
ENDBRANCH  18  19
ENDBRANCH  17  18
ENDBRANCH  16  17
ENDBRANCH  15  16
ENDBRANCH  10  15
BRANCH  10  24
HETATM   24  C12 UNL     1      19.485  29.919  15.101  1.00  0.00     0.287 C 
HETATM   25  O2  UNL     1      20.183  29.300  15.936  1.00  0.00    -0.262 OA
BRANCH  24  26
HETATM   26  O3  UNL     1      18.213  29.437  14.862  1.00  0.00    -0.325 OA
HETATM   27  C13 UNL     1      17.958  28.159  14.320  1.00  0.00     0.213 C 
ENDBRANCH  24  26
ENDBRANCH  10  24
ENDBRANCH   1  10
BRANCH   7  28
HETATM   28  C21 UNL     1      20.058  35.061  16.971  1.00  0.00     0.037 C 
BRANCH  28  29
HETATM   29  C22 UNL     1      20.477  35.827  18.157  1.00  0.00     0.022 C 
BRANCH  29  30
HETATM   30  C23 UNL     1      19.677  36.970  18.642  1.00  0.00     0.122 C 
BRANCH  30  31
HETATM   31  N4  UNL     1      19.043  37.711  17.561  1.00  0.00    -0.367 N 
HETATM   32  C24 UNL     1      17.785  37.940  17.613  1.00  0.00     0.196 C 
HETATM   33  N5  UNL     1      17.031  37.473  18.715  1.00  0.00    -0.067 NA
HETATM   34  N6  UNL     1      17.115  38.655  16.590  1.00  0.00    -0.067 NA
ATOM     35  H4  UNL     1      19.595  38.044  16.770  1.00  0.00     0.161 HD
ENDBRANCH  30  31
ENDBRANCH  29  30
ENDBRANCH  28  29
ENDBRANCH   7  28
BRANCH   6  36
HETATM   36  C18 UNL     1      16.838  33.950  17.566  1.00  0.00     0.110 C 
HETATM   37  C19 UNL     1      15.429  33.590  17.454  1.00  0.00     0.097 C 
BRANCH  36  38
HETATM   38  O4  UNL     1      17.255  34.466  18.689  1.00  0.00    -0.350 OA
ATOM     39  H4  UNL     1      16.681  34.288  19.424  1.00  0.00     0.219 HD
ENDBRANCH  36  38
ENDBRANCH   6  36
TORSDOF 17
ENDMDL
MODEL 4
REMARK VINA RESULT: -7.081136367      1.856      2.926
REMARK  17 active torsions:
REMARK  status: ('A' for Active; 'I' for Inactive)
REMARK    1  A    between atoms: C2_2  and  C3_3 
REMARK    2  A    between atoms: C3_3  and  C4_4 
REMARK    3  A    between atoms: C4_4  and  C5_5 
REMARK    4  A    between atoms: C5_5  and  C6_6 
REMARK    5  A    between atoms: C5_5  and  C12_15 
REMARK    6  A    between atoms: C5_5  and  N2_19 
REMARK    7  A    between atoms: C6_6  and  C7_7 
REMARK    8  A    between atoms: C7_7  and  C8_8 
REMARK    9  A    between atoms: C8_8  and  C9_9 
REMARK   10  A    between atoms: C9_9  and  N1_10 
REMARK       I    between atoms: N1_10  and  C10_12 
REMARK   11  A    between atoms: C12_15  and  O3_17 
REMARK   12  A    between atoms: N3_24  and  C18_25 
REMARK   13  A    between atoms: C18_25  and  O4_27 
REMARK   14  A    between atoms: C20_29  and  C21_30 
REMARK   15  A    between atoms: C21_30  and  C22_31 
REMARK   16  A    between atoms: C22_31  and  C23_32 
REMARK   17  A    between atoms: C23_32  and  N4_33 
ROOT
HETATM    1  N2  UNL     1      19.447  33.088  15.320  1.00  0.00    -0.329 N 
HETATM    2  C14 UNL     1      18.411  34.026  14.959  1.00  0.00     0.157 C 
HETATM    3  C15 UNL     1      17.638  34.479  16.208  1.00  0.00     0.044 C 
HETATM    4  C16 UNL     1      16.702  33.332  16.632  1.00  0.00     0.040 C 
HETATM    5  C17 UNL     1      16.763  35.609  15.786  1.00  0.00     0.040 C 
HETATM    6  N3  UNL     1      18.529  34.829  17.281  1.00  0.00    -0.342 N 
HETATM    7  C20 UNL     1      19.946  34.834  17.140  1.00  0.00     0.179 C 
HETATM    8  C25 UNL     1      20.305  33.564  16.344  1.00  0.00     0.244 C 
HETATM    9  O5  UNL     1      21.382  33.031  16.681  1.00  0.00    -0.271 OA
ENDROOT
BRANCH   1  10
HETATM   10  C5  UNL     1      19.619  31.806  14.749  1.00  0.00     0.123 C 
BRANCH  10  11
HETATM   11  C4  UNL     1      21.068  31.785  14.213  1.00  0.00     0.042 C 
BRANCH  11  12
HETATM   12  C3  UNL     1      21.183  31.177  12.855  1.00  0.00     0.002 C 
BRANCH  12  13
HETATM   13  C2  UNL     1      22.141  29.974  12.903  1.00  0.00    -0.004 C 
HETATM   14  C1  UNL     1      21.564  28.933  11.966  1.00  0.00     0.005 C 
ENDBRANCH  12  13
ENDBRANCH  11  12
ENDBRANCH  10  11
BRANCH  10  15
HETATM   15  C6  UNL     1      18.777  31.397  13.607  1.00  0.00     0.042 C 
BRANCH  15  16
HETATM   16  C7  UNL     1      17.750  30.350  13.766  1.00  0.00     0.004 C 
BRANCH  16  17
HETATM   17  C8  UNL     1      17.912  29.400  12.549  1.00  0.00     0.020 C 
BRANCH  17  18
HETATM   18  C9  UNL     1      17.466  28.021  12.902  1.00  0.00     0.122 C 
BRANCH  18  19
HETATM   19  N1  UNL     1      18.519  27.076  12.655  1.00  0.00    -0.361 N 
HETATM   20  C10 UNL     1      18.581  26.351  11.459  1.00  0.00     0.213 C 
HETATM   21  C11 UNL     1      19.670  25.389  11.230  1.00  0.00     0.117 C 
HETATM   22  O1  UNL     1      17.703  26.525  10.584  1.00  0.00    -0.274 OA
ATOM     23  H1  UNL     1      19.236  26.930  13.365  1.00  0.00     0.162 HD
ENDBRANCH  18  19
ENDBRANCH  17  18
ENDBRANCH  16  17
ENDBRANCH  15  16
ENDBRANCH  10  15
BRANCH  10  24
HETATM   24  C12 UNL     1      19.561  30.714  15.789  1.00  0.00     0.287 C 
HETATM   25  O2  UNL     1      18.642  30.722  16.638  1.00  0.00    -0.262 OA
BRANCH  24  26
HETATM   26  O3  UNL     1      20.478  29.684  15.862  1.00  0.00    -0.325 OA
HETATM   27  C13 UNL     1      20.196  28.363  15.451  1.00  0.00     0.213 C 
ENDBRANCH  24  26
ENDBRANCH  10  24
ENDBRANCH   1  10
BRANCH   7  28
HETATM   28  C21 UNL     1      20.729  35.951  16.634  1.00  0.00     0.037 C 
BRANCH  28  29
HETATM   29  C22 UNL     1      21.279  37.027  17.475  1.00  0.00     0.022 C 
BRANCH  29  30
HETATM   30  C23 UNL     1      20.438  38.169  17.891  1.00  0.00     0.122 C 
BRANCH  30  31
HETATM   31  N4  UNL     1      19.340  38.423  16.969  1.00  0.00    -0.367 N 
HETATM   32  C24 UNL     1      18.283  39.001  17.399  1.00  0.00     0.196 C 
HETATM   33  N5  UNL     1      18.195  39.383  18.759  1.00  0.00    -0.067 NA
HETATM   34  N6  UNL     1      17.185  39.274  16.548  1.00  0.00    -0.067 NA
ATOM     35  H4  UNL     1      19.413  38.144  15.990  1.00  0.00     0.161 HD
ENDBRANCH  30  31
ENDBRANCH  29  30
ENDBRANCH  28  29
ENDBRANCH   7  28
BRANCH   6  36
HETATM   36  C18 UNL     1      17.978  35.126  18.559  1.00  0.00     0.110 C 
HETATM   37  C19 UNL     1      16.846  35.991  18.876  1.00  0.00     0.097 C 
BRANCH  36  38
HETATM   38  O4  UNL     1      18.593  34.532  19.543  1.00  0.00    -0.350 OA
ATOM     39  H4  UNL     1      18.044  34.392  20.306  1.00  0.00     0.219 HD
ENDBRANCH  36  38
ENDBRANCH   6  36
TORSDOF 17
ENDMDL
MODEL 5
REMARK VINA RESULT: -7.016927400      1.436      2.031
REMARK  17 active torsions:
REMARK  status: ('A' for Active; 'I' for Inactive)
REMARK    1  A    between atoms: C2_2  and  C3_3 
REMARK    2  A    between atoms: C3_3  and  C4_4 
REMARK    3  A    between atoms: C4_4  and  C5_5 
REMARK    4  A    between atoms: C5_5  and  C6_6 
REMARK    5  A    between atoms: C5_5  and  C12_15 
REMARK    6  A    between atoms: C5_5  and  N2_19 
REMARK    7  A    between atoms: C6_6  and  C7_7 
REMARK    8  A    between atoms: C7_7  and  C8_8 
REMARK    9  A    between atoms: C8_8  and  C9_9 
REMARK   10  A    between atoms: C9_9  and  N1_10 
REMARK       I    between atoms: N1_10  and  C10_12 
REMARK   11  A    between atoms: C12_15  and  O3_17 
REMARK   12  A    between atoms: N3_24  and  C18_25 
REMARK   13  A    between atoms: C18_25  and  O4_27 
REMARK   14  A    between atoms: C20_29  and  C21_30 
REMARK   15  A    between atoms: C21_30  and  C22_31 
REMARK   16  A    between atoms: C22_31  and  C23_32 
REMARK   17  A    between atoms: C23_32  and  N4_33 
ROOT
HETATM    1  N2  UNL     1      19.586  31.933  14.708  1.00  0.00    -0.329 N 
HETATM    2  C14 UNL     1      18.634  32.907  14.231  1.00  0.00     0.157 C 
HETATM    3  C15 UNL     1      17.758  33.415  15.388  1.00  0.00     0.044 C 
HETATM    4  C16 UNL     1      16.735  32.315  15.729  1.00  0.00     0.040 C 
HETATM    5  C17 UNL     1      16.981  34.572  14.864  1.00  0.00     0.040 C 
HETATM    6  N3  UNL     1      18.550  33.745  16.542  1.00  0.00    -0.342 N 
HETATM    7  C20 UNL     1      19.973  33.689  16.546  1.00  0.00     0.179 C 
HETATM    8  C25 UNL     1      20.355  32.391  15.808  1.00  0.00     0.244 C 
HETATM    9  O5  UNL     1      21.368  31.819  16.261  1.00  0.00    -0.271 OA
ENDROOT
BRANCH   1  10
HETATM   10  C5  UNL     1      19.759  30.635  14.175  1.00  0.00     0.123 C 
BRANCH  10  11
HETATM   11  C4  UNL     1      18.494  29.849  14.586  1.00  0.00     0.042 C 
BRANCH  11  12
HETATM   12  C3  UNL     1      18.729  28.380  14.707  1.00  0.00     0.002 C 
BRANCH  12  13
HETATM   13  C2  UNL     1      17.441  27.616  14.353  1.00  0.00    -0.004 C 
HETATM   14  C1  UNL     1      17.778  26.742  13.163  1.00  0.00     0.005 C 
ENDBRANCH  12  13
ENDBRANCH  11  12
ENDBRANCH  10  11
BRANCH  10  15
HETATM   15  C6  UNL     1      20.895  29.807  14.627  1.00  0.00     0.042 C 
BRANCH  15  16
HETATM   16  C7  UNL     1      22.118  29.698  13.810  1.00  0.00     0.004 C 
BRANCH  16  17
HETATM   17  C8  UNL     1      22.271  28.193  13.462  1.00  0.00     0.020 C 
BRANCH  17  18
HETATM   18  C9  UNL     1      23.363  27.997  12.464  1.00  0.00     0.122 C 
BRANCH  18  19
HETATM   19  N1  UNL     1      22.969  27.035  11.473  1.00  0.00    -0.361 N 
HETATM   20  C10 UNL     1      23.683  25.845  11.289  1.00  0.00     0.213 C 
HETATM   21  C11 UNL     1      23.259  24.875  10.268  1.00  0.00     0.117 C 
HETATM   22  O1  UNL     1      24.686  25.610  12.000  1.00  0.00    -0.274 OA
ATOM     23  H1  UNL     1      22.153  27.223  10.892  1.00  0.00     0.162 HD
ENDBRANCH  18  19
ENDBRANCH  17  18
ENDBRANCH  16  17
ENDBRANCH  15  16
ENDBRANCH  10  15
BRANCH  10  24
HETATM   24  C12 UNL     1      19.754  30.640  12.666  1.00  0.00     0.287 C 
HETATM   25  O2  UNL     1      20.414  31.508  12.051  1.00  0.00    -0.262 OA
BRANCH  24  26
HETATM   26  O3  UNL     1      19.051  29.727  11.904  1.00  0.00    -0.325 OA
HETATM   27  C13 UNL     1      19.655  28.621  11.267  1.00  0.00     0.213 C 
ENDBRANCH  24  26
ENDBRANCH  10  24
ENDBRANCH   1  10
BRANCH   7  28
HETATM   28  C21 UNL     1      20.852  34.763  16.108  1.00  0.00     0.037 C 
BRANCH  28  29
HETATM   29  C22 UNL     1      21.799  35.469  16.987  1.00  0.00     0.022 C 
BRANCH  29  30
HETATM   30  C23 UNL     1      21.518  36.841  17.458  1.00  0.00     0.122 C 
BRANCH  30  31
HETATM   31  N4  UNL     1      20.225  37.336  17.007  1.00  0.00    -0.367 N 
HETATM   32  C24 UNL     1      19.272  37.456  17.852  1.00  0.00     0.196 C 
HETATM   33  N5  UNL     1      19.486  37.109  19.207  1.00  0.00    -0.067 NA
HETATM   34  N6  UNL     1      17.994  37.932  17.470  1.00  0.00    -0.067 NA
ATOM     35  H4  UNL     1      20.080  37.584  16.028  1.00  0.00     0.161 HD
ENDBRANCH  30  31
ENDBRANCH  29  30
ENDBRANCH  28  29
ENDBRANCH   7  28
BRANCH   6  36
HETATM   36  C18 UNL     1      17.886  34.088  17.753  1.00  0.00     0.110 C 
HETATM   37  C19 UNL     1      16.477  34.411  17.950  1.00  0.00     0.097 C 
BRANCH  36  38
HETATM   38  O4  UNL     1      18.673  34.107  18.792  1.00  0.00    -0.350 OA
ATOM     39  H4  UNL     1      18.269  34.478  19.568  1.00  0.00     0.219 HD
ENDBRANCH  36  38
ENDBRANCH   6  36
TORSDOF 17
ENDMDL
