MODEL 1
REMARK VINA RESULT: -6.066746799      0.000      0.000
REMARK  4 active torsions:
REMARK  status: ('A' for Active; 'I' for Inactive)
REMARK    1  A    between atoms: N1_1  and  C1_4 
REMARK    2  A    between atoms: C2_9  and  S1_10 
REMARK    3  A    between atoms: S1_10  and  N4_11 
REMARK    4  A    between atoms: C3_14  and  N5_15 
ROOT
HETATM    1  C1  UNL     1      10.611  27.260  36.183  1.00  0.00     0.692 A 
HETATM    2  N2  UNL     1      10.836  27.187  34.858  1.00  0.00    -0.131 N 
ATOM      3  H2  UNL     1      11.487  27.845  34.431  1.00  0.00     0.205 HD
HETATM    4  N3  UNL     1      10.237  26.283  34.088  1.00  0.00    -0.275 N 
ATOM      5  H3  UNL     1      10.416  26.238  33.085  1.00  0.00     0.188 HD
HETATM    6  C2  UNL     1       9.372  25.417  34.694  1.00  0.00     0.149 A 
HETATM    7  C3  UNL     1       9.140  25.491  36.050  1.00  0.00     0.151 A 
HETATM    8  N6  UNL     1       9.760  26.416  36.812  1.00  0.00    -0.173 N 
ATOM      9  H6  UNL     1       9.595  26.477  37.817  1.00  0.00     0.186 HD
ENDROOT
BRANCH   6  10
HETATM   10  S1  UNL     1       8.512  24.164  33.756  1.00  0.00     0.002 SA
BRANCH  10  11
HETATM   11  N4  UNL     1       9.492  23.641  32.385  1.00  0.00    -0.368 N 
ATOM     12  H42 UNL     1       9.205  23.734  31.411  1.00  0.00     0.164 HD
ATOM     13  H41 UNL     1      10.372  23.238  32.709  1.00  0.00     0.164 HD
ENDBRANCH  10  11
ENDBRANCH   6  10
BRANCH   7  14
HETATM   14  N5  UNL     1       8.307  24.646  36.583  1.00  0.00    -0.383 N 
ATOM     15  H52 UNL     1       7.332  24.620  36.284  1.00  0.00     0.157 HD
ATOM     16  H51 UNL     1       8.654  24.012  37.303  1.00  0.00     0.157 HD
ENDBRANCH   7  14
BRANCH   1  17
HETATM   17  N1  UNL     1      11.218  28.155  36.882  1.00  0.00    -0.233 N 
ATOM     18  H12 UNL     1      11.233  28.051  37.897  1.00  0.00     0.174 HD
ATOM     19  H11 UNL     1      11.667  28.941  36.413  1.00  0.00     0.174 HD
ENDBRANCH   1  17
TORSDOF 4
ENDMDL
MODEL 2
REMARK VINA RESULT: -5.687568076      1.012      2.361
REMARK  4 active torsions:
REMARK  status: ('A' for Active; 'I' for Inactive)
REMARK    1  A    between atoms: N1_1  and  C1_4 
REMARK    2  A    between atoms: C2_9  and  S1_10 
REMARK    3  A    between atoms: S1_10  and  N4_11 
REMARK    4  A    between atoms: C3_14  and  N5_15 
ROOT
HETATM    1  C1  UNL     1      10.585  27.308  36.255  1.00  0.00     0.692 A 
HETATM    2  N2  UNL     1       9.758  26.590  37.039  1.00  0.00    -0.131 N 
ATOM      3  H2  UNL     1       9.685  26.829  38.027  1.00  0.00     0.205 HD
HETATM    4  N3  UNL     1       9.034  25.580  36.565  1.00  0.00    -0.275 N 
ATOM      5  H3  UNL     1       8.412  25.044  37.169  1.00  0.00     0.188 HD
HETATM    6  C2  UNL     1       9.158  25.289  35.235  1.00  0.00     0.149 A 
HETATM    7  C3  UNL     1      10.004  26.023  34.433  1.00  0.00     0.151 A 
HETATM    8  N6  UNL     1      10.729  27.044  34.935  1.00  0.00    -0.173 N 
ATOM      9  H6  UNL     1      11.356  27.592  34.347  1.00  0.00     0.186 HD
ENDROOT
BRANCH   6  10
HETATM   10  S1  UNL     1       8.233  23.954  34.494  1.00  0.00     0.002 SA
BRANCH  10  11
HETATM   11  N4  UNL     1       6.568  23.959  35.079  1.00  0.00    -0.368 N 
ATOM     12  H42 UNL     1       6.283  24.329  35.986  1.00  0.00     0.164 HD
ATOM     13  H41 UNL     1       5.946  23.544  34.385  1.00  0.00     0.164 HD
ENDBRANCH  10  11
ENDBRANCH   6  10
BRANCH   7  14
HETATM   14  N5  UNL     1      10.089  25.708  33.173  1.00  0.00    -0.383 N 
ATOM     15  H52 UNL     1      10.751  26.186  32.563  1.00  0.00     0.157 HD
ATOM     16  H51 UNL     1       9.478  24.973  32.815  1.00  0.00     0.157 HD
ENDBRANCH   7  14
BRANCH   1  17
HETATM   17  N1  UNL     1      11.264  28.276  36.765  1.00  0.00    -0.233 N 
ATOM     18  H12 UNL     1      11.662  28.153  37.696  1.00  0.00     0.174 HD
ATOM     19  H11 UNL     1      11.388  29.138  36.234  1.00  0.00     0.174 HD
ENDBRANCH   1  17
TORSDOF 4
ENDMDL
MODEL 3
REMARK VINA RESULT: -5.582363753      0.990      1.281
REMARK  4 active torsions:
REMARK  status: ('A' for Active; 'I' for Inactive)
REMARK    1  A    between atoms: N1_1  and  C1_4 
REMARK    2  A    between atoms: C2_9  and  S1_10 
REMARK    3  A    between atoms: S1_10  and  N4_11 
REMARK    4  A    between atoms: C3_14  and  N5_15 
ROOT
HETATM    1  C1  UNL     1      10.512  27.080  35.998  1.00  0.00     0.692 A 
HETATM    2  N2  UNL     1      10.550  26.881  34.667  1.00  0.00    -0.131 N 
ATOM      3  H2  UNL     1      11.120  27.501  34.092  1.00  0.00     0.205 HD
HETATM    4  N3  UNL     1       9.869  25.902  34.079  1.00  0.00    -0.275 N 
ATOM      5  H3  UNL     1       9.905  25.762  33.070  1.00  0.00     0.188 HD
HETATM    6  C2  UNL     1       9.116  25.091  34.882  1.00  0.00     0.149 A 
HETATM    7  C3  UNL     1       9.077  25.295  36.244  1.00  0.00     0.151 A 
HETATM    8  N6  UNL     1       9.777  26.294  36.819  1.00  0.00    -0.173 N 
ATOM      9  H6  UNL     1       9.753  26.451  37.826  1.00  0.00     0.186 HD
ENDROOT
BRANCH   6  10
HETATM   10  S1  UNL     1       8.162  23.747  34.198  1.00  0.00     0.002 SA
BRANCH  10  11
HETATM   11  N4  UNL     1       6.495  23.820  34.773  1.00  0.00    -0.368 N 
ATOM     12  H42 UNL     1       5.716  24.176  34.219  1.00  0.00     0.164 HD
ATOM     13  H41 UNL     1       6.430  23.459  35.725  1.00  0.00     0.164 HD
ENDBRANCH  10  11
ENDBRANCH   6  10
BRANCH   7  14
HETATM   14  N5  UNL     1       8.345  24.498  36.967  1.00  0.00    -0.383 N 
ATOM     15  H52 UNL     1       8.711  23.599  37.279  1.00  0.00     0.157 HD
ATOM     16  H51 UNL     1       7.401  24.795  37.213  1.00  0.00     0.157 HD
ENDBRANCH   7  14
BRANCH   1  17
HETATM   17  N1  UNL     1      11.192  28.044  36.517  1.00  0.00    -0.233 N 
ATOM     18  H12 UNL     1      10.946  29.002  36.267  1.00  0.00     0.174 HD
ATOM     19  H11 UNL     1      11.955  27.832  37.160  1.00  0.00     0.174 HD
ENDBRANCH   1  17
TORSDOF 4
ENDMDL
MODEL 4
REMARK VINA RESULT: -5.382859245      2.439      4.873
REMARK  4 active torsions:
REMARK  status: ('A' for Active; 'I' for Inactive)
REMARK    1  A    between atoms: N1_1  and  C1_4 
REMARK    2  A    between atoms: C2_9  and  S1_10 
REMARK    3  A    between atoms: S1_10  and  N4_11 
REMARK    4  A    between atoms: C3_14  and  N5_15 
ROOT
HETATM    1  C1  UNL     1       7.040  23.716  32.986  1.00  0.00     0.692 A 
HETATM    2  N2  UNL     1       6.549  23.509  34.222  1.00  0.00    -0.131 N 
ATOM      3  H2  UNL     1       5.711  22.938  34.331  1.00  0.00     0.205 HD
HETATM    4  N3  UNL     1       7.122  24.025  35.306  1.00  0.00    -0.275 N 
ATOM      5  H3  UNL     1       6.739  23.862  36.238  1.00  0.00     0.188 HD
HETATM    6  C2  UNL     1       8.243  24.785  35.122  1.00  0.00     0.149 A 
HETATM    7  C3  UNL     1       8.745  24.998  33.858  1.00  0.00     0.151 A 
HETATM    8  N6  UNL     1       8.148  24.464  32.772  1.00  0.00    -0.173 N 
ATOM      9  H6  UNL     1       8.515  24.616  31.833  1.00  0.00     0.186 HD
ENDROOT
BRANCH   6  10
HETATM   10  S1  UNL     1       9.091  25.527  36.507  1.00  0.00     0.002 SA
BRANCH  10  11
HETATM   11  N4  UNL     1       9.167  24.397  37.860  1.00  0.00    -0.368 N 
ATOM     12  H42 UNL     1       9.957  23.777  38.041  1.00  0.00     0.164 HD
ATOM     13  H41 UNL     1       8.318  24.457  38.422  1.00  0.00     0.164 HD
ENDBRANCH  10  11
ENDBRANCH   6  10
BRANCH   7  14
HETATM   14  N5  UNL     1       9.814  25.729  33.732  1.00  0.00    -0.383 N 
ATOM     15  H52 UNL     1      10.568  25.667  34.416  1.00  0.00     0.157 HD
ATOM     16  H51 UNL     1       9.878  26.362  32.935  1.00  0.00     0.157 HD
ENDBRANCH   7  14
BRANCH   1  17
HETATM   17  N1  UNL     1       6.447  23.193  31.970  1.00  0.00    -0.233 N 
ATOM     18  H12 UNL     1       5.505  22.822  32.096  1.00  0.00     0.174 HD
ATOM     19  H11 UNL     1       6.925  23.160  31.070  1.00  0.00     0.174 HD
ENDBRANCH   1  17
TORSDOF 4
ENDMDL
MODEL 5
REMARK VINA RESULT: -5.250936881      1.857      3.118
REMARK  4 active torsions:
REMARK  status: ('A' for Active; 'I' for Inactive)
REMARK    1  A    between atoms: N1_1  and  C1_4 
REMARK    2  A    between atoms: C2_9  and  S1_10 
REMARK    3  A    between atoms: S1_10  and  N4_11 
REMARK    4  A    between atoms: C3_14  and  N5_15 
ROOT
HETATM    1  C1  UNL     1       8.918  25.493  36.136  1.00  0.00     0.692 A 
HETATM    2  N2  UNL     1       7.760  24.824  36.285  1.00  0.00    -0.131 N 
ATOM      3  H2  UNL     1       7.334  24.775  37.210  1.00  0.00     0.205 HD
HETATM    4  N3  UNL     1       7.155  24.223  35.264  1.00  0.00    -0.275 N 
ATOM      5  H3  UNL     1       6.278  23.718  35.390  1.00  0.00     0.188 HD
HETATM    6  C2  UNL     1       7.755  24.309  34.040  1.00  0.00     0.149 A 
HETATM    7  C3  UNL     1       8.941  24.994  33.887  1.00  0.00     0.151 A 
HETATM    8  N6  UNL     1       9.537  25.596  34.937  1.00  0.00    -0.173 N 
ATOM      9  H6  UNL     1      10.414  26.106  34.831  1.00  0.00     0.186 HD
ENDROOT
BRANCH   6  10
HETATM   10  S1  UNL     1       7.030  23.540  32.601  1.00  0.00     0.002 SA
BRANCH  10  11
HETATM   11  N4  UNL     1       5.414  22.935  32.974  1.00  0.00    -0.368 N 
ATOM     12  H42 UNL     1       4.909  23.152  33.833  1.00  0.00     0.164 HD
ATOM     13  H41 UNL     1       5.070  22.348  32.215  1.00  0.00     0.164 HD
ENDBRANCH  10  11
ENDBRANCH   6  10
BRANCH   7  14
HETATM   14  N5  UNL     1       9.475  25.048  32.702  1.00  0.00    -0.383 N 
ATOM     15  H52 UNL     1       9.387  24.263  32.057  1.00  0.00     0.157 HD
ATOM     16  H51 UNL     1       9.982  25.892  32.437  1.00  0.00     0.157 HD
ENDBRANCH   7  14
BRANCH   1  17
HETATM   17  N1  UNL     1       9.462  26.057  37.158  1.00  0.00    -0.233 N 
ATOM     18  H12 UNL     1      10.132  26.810  36.999  1.00  0.00     0.174 HD
ATOM     19  H11 UNL     1       9.216  25.743  38.097  1.00  0.00     0.174 HD
ENDBRANCH   1  17
TORSDOF 4
ENDMDL
