MODEL 1
REMARK VINA RESULT: -5.797920555      0.000      0.000
REMARK  5 active torsions:
REMARK  status: ('A' for Active; 'I' for Inactive)
REMARK    1  A    between atoms: N1_1  and  C1_4 
REMARK    2  A    between atoms: C2_7  and  N3_8 
REMARK    3  A    between atoms: N3_8  and  N4_10 
REMARK    4  A    between atoms: N6_15  and  C3_16 
REMARK    5  A    between atoms: C3_16  and  C4_17 
ROOT
HETATM    1  C1  UNL     1      27.446  28.752 -17.754  1.00  0.00     0.707 A 
HETATM    2  N2  UNL     1      26.612  27.752 -17.402  1.00  0.00    -0.018 N 
ATOM      3  H2  UNL     1      26.461  27.380 -16.464  1.00  0.00     0.203 HD
HETATM    4  C2  UNL     1      26.019  27.341 -18.541  1.00  0.00     0.726 A 
HETATM    5  N5  UNL     1      26.472  28.068 -19.581  1.00  0.00    -0.114 N 
ATOM      6  H5  UNL     1      26.197  27.976 -20.559  1.00  0.00     0.206 HD
HETATM    7  N6  UNL     1      27.342  28.924 -19.078  1.00  0.00    -0.108 N 
ENDROOT
BRANCH   4   8
HETATM    8  N3  UNL     1      25.145  26.386 -18.606  1.00  0.00    -0.137 N 
ATOM      9  H3  UNL     1      25.474  25.422 -18.649  1.00  0.00     0.205 HD
BRANCH   8  10
HETATM   10  N4  UNL     1      23.785  26.628 -18.617  1.00  0.00    -0.331 N 
ATOM     11  H42 UNL     1      23.267  26.472 -17.753  1.00  0.00     0.177 HD
ATOM     12  H41 UNL     1      23.295  26.952 -19.451  1.00  0.00     0.177 HD
ENDBRANCH   8  10
ENDBRANCH   4   8
BRANCH   1  13
HETATM   13  N1  UNL     1      28.202  29.411 -16.915  1.00  0.00    -0.233 N 
ATOM     14  H12 UNL     1      28.002  30.299 -16.456  1.00  0.00     0.174 HD
ATOM     15  H11 UNL     1      29.124  29.100 -16.606  1.00  0.00     0.174 HD
ENDBRANCH   1  13
BRANCH   7  16
HETATM   16  C3  UNL     1      28.112  29.932 -19.797  1.00  0.00     0.183 C 
BRANCH  16  17
HETATM   17  C4  UNL     1      27.671  30.007 -21.258  1.00  0.00     0.137 C 
HETATM   18 CL1  UNL     1      29.053  30.190 -22.347  1.00  0.00    -0.129 Cl
ENDBRANCH  16  17
ENDBRANCH   7  16
TORSDOF 5
ENDMDL
MODEL 2
REMARK VINA RESULT: -5.704450374      1.745      2.167
REMARK  5 active torsions:
REMARK  status: ('A' for Active; 'I' for Inactive)
REMARK    1  A    between atoms: N1_1  and  C1_4 
REMARK    2  A    between atoms: C2_7  and  N3_8 
REMARK    3  A    between atoms: N3_8  and  N4_10 
REMARK    4  A    between atoms: N6_15  and  C3_16 
REMARK    5  A    between atoms: C3_16  and  C4_17 
ROOT
HETATM    1  C1  UNL     1      28.301  30.329 -19.068  1.00  0.00     0.707 A 
HETATM    2  N2  UNL     1      27.693  29.341 -18.379  1.00  0.00    -0.018 N 
ATOM      3  H2  UNL     1      27.750  29.167 -17.376  1.00  0.00     0.203 HD
HETATM    4  C2  UNL     1      26.993  28.628 -19.286  1.00  0.00     0.726 A 
HETATM    5  N5  UNL     1      27.161  29.159 -20.512  1.00  0.00    -0.114 N 
ATOM      6  H5  UNL     1      26.751  28.827 -21.385  1.00  0.00     0.206 HD
HETATM    7  N6  UNL     1      27.963  30.197 -20.356  1.00  0.00    -0.108 N 
ENDROOT
BRANCH   4   8
HETATM    8  N3  UNL     1      26.273  27.590 -18.999  1.00  0.00    -0.137 N 
ATOM      9  H3  UNL     1      26.017  26.948 -19.749  1.00  0.00     0.205 HD
BRANCH   8  10
HETATM   10  N4  UNL     1      25.841  27.321 -17.715  1.00  0.00    -0.331 N 
ATOM     11  H42 UNL     1      26.403  26.688 -17.146  1.00  0.00     0.177 HD
ATOM     12  H41 UNL     1      24.991  27.731 -17.328  1.00  0.00     0.177 HD
ENDBRANCH   8  10
ENDBRANCH   4   8
BRANCH   1  13
HETATM   13  N1  UNL     1      29.074  31.234 -18.529  1.00  0.00    -0.233 N 
ATOM     14  H12 UNL     1      29.249  31.399 -17.538  1.00  0.00     0.174 HD
ATOM     15  H11 UNL     1      29.620  31.914 -19.060  1.00  0.00     0.174 HD
ENDBRANCH   1  13
BRANCH   7  16
HETATM   16  C3  UNL     1      28.448  31.105 -21.388  1.00  0.00     0.183 C 
BRANCH  16  17
HETATM   17  C4  UNL     1      29.857  30.713 -21.832  1.00  0.00     0.137 C 
HETATM   18 CL1  UNL     1      31.056  31.916 -21.336  1.00  0.00    -0.129 Cl
ENDBRANCH  16  17
ENDBRANCH   7  16
TORSDOF 5
ENDMDL
MODEL 3
REMARK VINA RESULT: -5.623614706      1.664      2.519
REMARK  5 active torsions:
REMARK  status: ('A' for Active; 'I' for Inactive)
REMARK    1  A    between atoms: N1_1  and  C1_4 
REMARK    2  A    between atoms: C2_7  and  N3_8 
REMARK    3  A    between atoms: N3_8  and  N4_10 
REMARK    4  A    between atoms: N6_15  and  C3_16 
REMARK    5  A    between atoms: C3_16  and  C4_17 
ROOT
HETATM    1  C1  UNL     1      27.471  29.267 -20.097  1.00  0.00     0.707 A 
HETATM    2  N2  UNL     1      26.650  28.330 -19.580  1.00  0.00    -0.018 N 
ATOM      3  H2  UNL     1      25.982  27.751 -20.089  1.00  0.00     0.203 HD
HETATM    4  C2  UNL     1      26.889  28.314 -18.253  1.00  0.00     0.726 A 
HETATM    5  N5  UNL     1      27.838  29.220 -17.948  1.00  0.00    -0.114 N 
ATOM      6  H5  UNL     1      28.216  29.425 -17.023  1.00  0.00     0.206 HD
HETATM    7  N6  UNL     1      28.180  29.791 -19.089  1.00  0.00    -0.108 N 
ENDROOT
BRANCH   4   8
HETATM    8  N3  UNL     1      26.284  27.536 -17.412  1.00  0.00    -0.137 N 
ATOM      9  H3  UNL     1      26.761  27.282 -16.547  1.00  0.00     0.205 HD
BRANCH   8  10
HETATM   10  N4  UNL     1      25.017  27.037 -17.645  1.00  0.00    -0.331 N 
ATOM     11  H42 UNL     1      24.875  26.032 -17.545  1.00  0.00     0.177 HD
ATOM     12  H41 UNL     1      24.235  27.636 -17.911  1.00  0.00     0.177 HD
ENDBRANCH   8  10
ENDBRANCH   4   8
BRANCH   1  13
HETATM   13  N1  UNL     1      27.532  29.575 -21.366  1.00  0.00    -0.233 N 
ATOM     14  H12 UNL     1      27.910  30.423 -21.787  1.00  0.00     0.174 HD
ATOM     15  H11 UNL     1      27.193  28.976 -22.120  1.00  0.00     0.174 HD
ENDBRANCH   1  13
BRANCH   7  16
HETATM   16  C3  UNL     1      29.170  30.840 -19.294  1.00  0.00     0.183 C 
BRANCH  16  17
HETATM   17  C4  UNL     1      28.525  32.221 -19.183  1.00  0.00     0.137 C 
HETATM   18 CL1  UNL     1      28.311  32.970 -20.771  1.00  0.00    -0.129 Cl
ENDBRANCH  16  17
ENDBRANCH   7  16
TORSDOF 5
ENDMDL
MODEL 4
REMARK VINA RESULT: -5.613430087      1.632      2.480
REMARK  5 active torsions:
REMARK  status: ('A' for Active; 'I' for Inactive)
REMARK    1  A    between atoms: N1_1  and  C1_4 
REMARK    2  A    between atoms: C2_7  and  N3_8 
REMARK    3  A    between atoms: N3_8  and  N4_10 
REMARK    4  A    between atoms: N6_15  and  C3_16 
REMARK    5  A    between atoms: C3_16  and  C4_17 
ROOT
HETATM    1  C1  UNL     1      27.059  28.895 -19.675  1.00  0.00     0.707 A 
HETATM    2  N2  UNL     1      26.379  27.798 -19.280  1.00  0.00    -0.018 N 
ATOM      3  H2  UNL     1      25.819  27.179 -19.866  1.00  0.00     0.203 HD
HETATM    4  C2  UNL     1      26.590  27.686 -17.953  1.00  0.00     0.726 A 
HETATM    5  N5  UNL     1      27.382  28.689 -17.528  1.00  0.00    -0.114 N 
ATOM      6  H5  UNL     1      27.705  28.854 -16.575  1.00  0.00     0.206 HD
HETATM    7  N6  UNL     1      27.657  29.416 -18.597  1.00  0.00    -0.108 N 
ENDROOT
BRANCH   4   8
HETATM    8  N3  UNL     1      26.094  26.745 -17.212  1.00  0.00    -0.137 N 
ATOM      9  H3  UNL     1      25.185  26.354 -17.459  1.00  0.00     0.205 HD
BRANCH   8  10
HETATM   10  N4  UNL     1      26.753  26.253 -16.102  1.00  0.00    -0.331 N 
ATOM     11  H42 UNL     1      27.679  26.625 -15.895  1.00  0.00     0.177 HD
ATOM     12  H41 UNL     1      26.345  25.542 -15.496  1.00  0.00     0.177 HD
ENDBRANCH   8  10
ENDBRANCH   4   8
BRANCH   1  13
HETATM   13  N1  UNL     1      27.098  29.333 -20.906  1.00  0.00    -0.233 N 
ATOM     14  H12 UNL     1      27.909  29.673 -21.424  1.00  0.00     0.174 HD
ATOM     15  H11 UNL     1      26.288  29.390 -21.523  1.00  0.00     0.174 HD
ENDBRANCH   1  13
BRANCH   7  16
HETATM   16  C3  UNL     1      28.480  30.617 -18.664  1.00  0.00     0.183 C 
BRANCH  16  17
HETATM   17  C4  UNL     1      29.890  30.279 -19.146  1.00  0.00     0.137 C 
HETATM   18 CL1  UNL     1      30.399  31.339 -20.468  1.00  0.00    -0.129 Cl
ENDBRANCH  16  17
ENDBRANCH   7  16
TORSDOF 5
ENDMDL
MODEL 5
REMARK VINA RESULT: -5.612562095      1.033      1.050
REMARK  5 active torsions:
REMARK  status: ('A' for Active; 'I' for Inactive)
REMARK    1  A    between atoms: N1_1  and  C1_4 
REMARK    2  A    between atoms: C2_7  and  N3_8 
REMARK    3  A    between atoms: N3_8  and  N4_10 
REMARK    4  A    between atoms: N6_15  and  C3_16 
REMARK    5  A    between atoms: C3_16  and  C4_17 
ROOT
HETATM    1  C1  UNL     1      28.060  29.635 -18.054  1.00  0.00     0.707 A 
HETATM    2  N2  UNL     1      27.325  28.603 -17.593  1.00  0.00    -0.018 N 
ATOM      3  H2  UNL     1      27.268  28.272 -16.629  1.00  0.00     0.203 HD
HETATM    4  C2  UNL     1      26.679  28.096 -18.662  1.00  0.00     0.726 A 
HETATM    5  N5  UNL     1      27.004  28.796 -19.767  1.00  0.00    -0.114 N 
ATOM      6  H5  UNL     1      26.666  28.636 -20.716  1.00  0.00     0.206 HD
HETATM    7  N6  UNL     1      27.848  29.731 -19.372  1.00  0.00    -0.108 N 
ENDROOT
BRANCH   4   8
HETATM    8  N3  UNL     1      25.871  27.085 -18.615  1.00  0.00    -0.137 N 
ATOM      9  H3  UNL     1      25.943  26.363 -19.332  1.00  0.00     0.205 HD
BRANCH   8  10
HETATM   10  N4  UNL     1      24.914  26.949 -17.627  1.00  0.00    -0.331 N 
ATOM     11  H42 UNL     1      24.732  26.012 -17.266  1.00  0.00     0.177 HD
ATOM     12  H41 UNL     1      24.395  27.745 -17.257  1.00  0.00     0.177 HD
ENDBRANCH   8  10
ENDBRANCH   4   8
BRANCH   1  13
HETATM   13  N1  UNL     1      28.829  30.384 -17.307  1.00  0.00    -0.233 N 
ATOM     14  H12 UNL     1      28.595  31.269 -16.858  1.00  0.00     0.174 HD
ATOM     15  H11 UNL     1      29.797  30.162 -17.075  1.00  0.00     0.174 HD
ENDBRANCH   1  13
BRANCH   7  16
HETATM   16  C3  UNL     1      28.493  30.748 -20.194  1.00  0.00     0.183 C 
BRANCH  16  17
HETATM   17  C4  UNL     1      27.958  30.703 -21.626  1.00  0.00     0.137 C 
HETATM   18 CL1  UNL     1      29.209  30.205 -22.773  1.00  0.00    -0.129 Cl
ENDBRANCH  16  17
ENDBRANCH   7  16
TORSDOF 5
ENDMDL
