MODEL 1
REMARK VINA RESULT: -6.114624566      0.000      0.000
REMARK  4 active torsions:
REMARK  status: ('A' for Active; 'I' for Inactive)
REMARK    1  A    between atoms: N1_1  and  C1_4 
REMARK    2  A    between atoms: C4_10  and  C5_11 
REMARK    3  A    between atoms: C5_11  and  C6_14 
REMARK    4  A    between atoms: C6_14  and  N4_15 
ROOT
HETATM    1  C1  UNL     1      26.554  27.982 -18.689  1.00  0.00     0.676 A 
HETATM    2  N2  UNL     1      27.062  28.327 -17.491  1.00  0.00    -0.200 N 
ATOM      3  H2  UNL     1      26.750  27.848 -16.647  1.00  0.00     0.183 HD
HETATM    4  C2  UNL     1      27.980  29.304 -17.410  1.00  0.00     0.135 A 
HETATM    5  C3  UNL     1      28.405  29.957 -18.530  1.00  0.00     0.091 A 
HETATM    6  N3  UNL     1      29.359  30.978 -18.478  1.00  0.00    -0.099 NA
HETATM    7  C4  UNL     1      27.849  29.565 -19.758  1.00  0.00     0.125 A 
HETATM    8  N5  UNL     1      26.949  28.605 -19.832  1.00  0.00    -0.188 N 
ATOM      9  H5  UNL     1      26.555  28.333 -20.732  1.00  0.00     0.184 HD
ENDROOT
BRANCH   7  10
HETATM   10  C5  UNL     1      28.334  30.260 -20.971  1.00  0.00     0.311 C 
HETATM   11  F1  UNL     1      29.694  30.040 -21.154  1.00  0.00    -0.197 F 
HETATM   12  F2  UNL     1      27.707  29.589 -22.041  1.00  0.00    -0.197 F 
BRANCH  10  13
HETATM   13  C6  UNL     1      28.003  31.708 -21.063  1.00  0.00     0.315 C 
BRANCH  13  14
HETATM   14  N4  UNL     1      29.158  32.553 -21.046  1.00  0.00    -0.073 N 
ATOM     15  H43 UNL     1      29.607  32.536 -20.131  1.00  0.00     0.274 HD
ATOM     16  H42 UNL     1      29.909  32.153 -21.608  1.00  0.00     0.274 HD
ATOM     17  H41 UNL     1      28.960  33.511 -21.335  1.00  0.00     0.274 HD
ENDBRANCH  13  14
ENDBRANCH  10  13
ENDBRANCH   7  10
BRANCH   1  18
HETATM   18  N1  UNL     1      25.682  27.047 -18.728  1.00  0.00    -0.234 N 
ATOM     19  H12 UNL     1      24.704  27.243 -18.514  1.00  0.00     0.174 HD
ATOM     20  H11 UNL     1      25.994  26.108 -18.976  1.00  0.00     0.174 HD
ENDBRANCH   1  18
TORSDOF 4
ENDMDL
MODEL 2
REMARK VINA RESULT: -6.086239980      0.971      1.295
REMARK  4 active torsions:
REMARK  status: ('A' for Active; 'I' for Inactive)
REMARK    1  A    between atoms: N1_1  and  C1_4 
REMARK    2  A    between atoms: C4_10  and  C5_11 
REMARK    3  A    between atoms: C5_11  and  C6_14 
REMARK    4  A    between atoms: C6_14  and  N4_15 
ROOT
HETATM    1  C1  UNL     1      26.528  27.923 -18.528  1.00  0.00     0.676 A 
HETATM    2  N2  UNL     1      27.116  28.337 -17.391  1.00  0.00    -0.200 N 
ATOM      3  H2  UNL     1      26.893  27.882 -16.506  1.00  0.00     0.183 HD
HETATM    4  C2  UNL     1      27.998  29.349 -17.422  1.00  0.00     0.135 A 
HETATM    5  C3  UNL     1      28.306  29.970 -18.598  1.00  0.00     0.091 A 
HETATM    6  N3  UNL     1      29.219  31.026 -18.663  1.00  0.00    -0.099 NA
HETATM    7  C4  UNL     1      27.668  29.507 -19.760  1.00  0.00     0.125 A 
HETATM    8  N5  UNL     1      26.805  28.512 -19.722  1.00  0.00    -0.188 N 
ATOM      9  H5  UNL     1      26.350  28.189 -20.576  1.00  0.00     0.184 HD
ENDROOT
BRANCH   7  10
HETATM   10  C5  UNL     1      28.026  30.168 -21.035  1.00  0.00     0.311 C 
HETATM   11  F1  UNL     1      27.107  29.851 -22.029  1.00  0.00    -0.197 F 
HETATM   12  F2  UNL     1      27.839  31.542 -20.789  1.00  0.00    -0.197 F 
BRANCH  10  13
HETATM   13  C6  UNL     1      29.423  29.957 -21.503  1.00  0.00     0.315 C 
BRANCH  13  14
HETATM   14  N4  UNL     1      30.199  31.161 -21.525  1.00  0.00    -0.073 N 
ATOM     15  H43 UNL     1      31.012  31.056 -22.131  1.00  0.00     0.274 HD
ATOM     16  H42 UNL     1      29.708  31.899 -22.029  1.00  0.00     0.274 HD
ATOM     17  H41 UNL     1      30.477  31.478 -20.597  1.00  0.00     0.274 HD
ENDBRANCH  13  14
ENDBRANCH  10  13
ENDBRANCH   7  10
BRANCH   1  18
HETATM   18  N1  UNL     1      25.694  26.957 -18.460  1.00  0.00    -0.234 N 
ATOM     19  H12 UNL     1      25.554  26.338 -19.259  1.00  0.00     0.174 HD
ATOM     20  H11 UNL     1      25.177  26.827 -17.590  1.00  0.00     0.174 HD
ENDBRANCH   1  18
TORSDOF 4
ENDMDL
MODEL 3
REMARK VINA RESULT: -5.988993872      1.965      3.017
REMARK  4 active torsions:
REMARK  status: ('A' for Active; 'I' for Inactive)
REMARK    1  A    between atoms: N1_1  and  C1_4 
REMARK    2  A    between atoms: C4_10  and  C5_11 
REMARK    3  A    between atoms: C5_11  and  C6_14 
REMARK    4  A    between atoms: C6_14  and  N4_15 
ROOT
HETATM    1  C1  UNL     1      28.281  30.533 -17.130  1.00  0.00     0.676 A 
HETATM    2  N2  UNL     1      27.821  29.314 -17.467  1.00  0.00    -0.200 N 
ATOM      3  H2  UNL     1      27.612  28.629 -16.741  1.00  0.00     0.183 HD
HETATM    4  C2  UNL     1      27.637  29.001 -18.760  1.00  0.00     0.135 A 
HETATM    5  C3  UNL     1      27.914  29.906 -19.743  1.00  0.00     0.091 A 
HETATM    6  N3  UNL     1      27.733  29.610 -21.097  1.00  0.00    -0.099 NA
HETATM    7  C4  UNL     1      28.393  31.165 -19.347  1.00  0.00     0.125 A 
HETATM    8  N5  UNL     1      28.570  31.466 -18.076  1.00  0.00    -0.188 N 
ATOM      9  H5  UNL     1      28.919  32.386 -17.806  1.00  0.00     0.184 HD
ENDROOT
BRANCH   7  10
HETATM   10  C5  UNL     1      28.667  32.149 -20.417  1.00  0.00     0.311 C 
HETATM   11  F1  UNL     1      27.553  32.316 -21.231  1.00  0.00    -0.197 F 
HETATM   12  F2  UNL     1      28.815  33.377 -19.742  1.00  0.00    -0.197 F 
BRANCH  10  13
HETATM   13  C6  UNL     1      29.894  31.903 -21.224  1.00  0.00     0.315 C 
BRANCH  13  14
HETATM   14  N4  UNL     1      31.051  31.635 -20.425  1.00  0.00    -0.073 N 
ATOM     15  H43 UNL     1      31.895  31.638 -20.997  1.00  0.00     0.274 HD
ATOM     16  H42 UNL     1      31.261  32.424 -19.813  1.00  0.00     0.274 HD
ATOM     17  H41 UNL     1      30.979  30.770 -19.890  1.00  0.00     0.274 HD
ENDBRANCH  13  14
ENDBRANCH  10  13
ENDBRANCH   7  10
BRANCH   1  18
HETATM   18  N1  UNL     1      28.444  30.795 -15.889  1.00  0.00    -0.234 N 
ATOM     19  H12 UNL     1      29.382  30.875 -15.497  1.00  0.00     0.174 HD
ATOM     20  H11 UNL     1      27.613  30.919 -15.310  1.00  0.00     0.174 HD
ENDBRANCH   1  18
TORSDOF 4
ENDMDL
MODEL 4
REMARK VINA RESULT: -5.787972318      2.000      2.921
REMARK  4 active torsions:
REMARK  status: ('A' for Active; 'I' for Inactive)
REMARK    1  A    between atoms: N1_1  and  C1_4 
REMARK    2  A    between atoms: C4_10  and  C5_11 
REMARK    3  A    between atoms: C5_11  and  C6_14 
REMARK    4  A    between atoms: C6_14  and  N4_15 
ROOT
HETATM    1  C1  UNL     1      27.762  29.460 -18.303  1.00  0.00     0.676 A 
HETATM    2  N2  UNL     1      27.173  28.652 -19.204  1.00  0.00    -0.200 N 
ATOM      3  H2  UNL     1      26.788  27.755 -18.910  1.00  0.00     0.183 HD
HETATM    4  C2  UNL     1      27.093  29.030 -20.490  1.00  0.00     0.135 A 
HETATM    5  C3  UNL     1      27.606  30.226 -20.899  1.00  0.00     0.091 A 
HETATM    6  N3  UNL     1      27.538  30.646 -22.232  1.00  0.00    -0.099 NA
HETATM    7  C4  UNL     1      28.213  31.037 -19.927  1.00  0.00     0.125 A 
HETATM    8  N5  UNL     1      28.287  30.661 -18.666  1.00  0.00    -0.188 N 
ATOM      9  H5  UNL     1      28.731  31.263 -17.973  1.00  0.00     0.184 HD
ENDROOT
BRANCH   7  10
HETATM   10  C5  UNL     1      28.744  32.343 -20.373  1.00  0.00     0.311 C 
HETATM   11  F1  UNL     1      27.756  33.086 -21.011  1.00  0.00    -0.197 F 
HETATM   12  F2  UNL     1      29.017  33.044 -19.182  1.00  0.00    -0.197 F 
BRANCH  10  13
HETATM   13  C6  UNL     1      29.989  32.292 -21.186  1.00  0.00     0.315 C 
BRANCH  13  14
HETATM   14  N4  UNL     1      31.068  31.621 -20.526  1.00  0.00    -0.073 N 
ATOM     15  H43 UNL     1      31.428  32.185 -19.756  1.00  0.00     0.274 HD
ATOM     16  H42 UNL     1      30.728  30.817 -19.999  1.00  0.00     0.274 HD
ATOM     17  H41 UNL     1      31.820  31.349 -21.158  1.00  0.00     0.274 HD
ENDBRANCH  13  14
ENDBRANCH  10  13
ENDBRANCH   7  10
BRANCH   1  18
HETATM   18  N1  UNL     1      27.820  29.068 -17.088  1.00  0.00    -0.234 N 
ATOM     19  H12 UNL     1      27.125  28.418 -16.721  1.00  0.00     0.174 HD
ATOM     20  H11 UNL     1      28.575  29.425 -16.502  1.00  0.00     0.174 HD
ENDBRANCH   1  18
TORSDOF 4
ENDMDL
MODEL 5
REMARK VINA RESULT: -5.702622685      3.321      5.074
REMARK  4 active torsions:
REMARK  status: ('A' for Active; 'I' for Inactive)
REMARK    1  A    between atoms: N1_1  and  C1_4 
REMARK    2  A    between atoms: C4_10  and  C5_11 
REMARK    3  A    between atoms: C5_11  and  C6_14 
REMARK    4  A    between atoms: C6_14  and  N4_15 
ROOT
HETATM    1  C1  UNL     1      27.003  28.871 -19.710  1.00  0.00     0.676 A 
HETATM    2  N2  UNL     1      27.761  29.380 -18.721  1.00  0.00    -0.200 N 
ATOM      3  H2  UNL     1      28.332  30.207 -18.891  1.00  0.00     0.183 HD
HETATM    4  C2  UNL     1      27.764  28.797 -17.511  1.00  0.00     0.135 A 
HETATM    5  C3  UNL     1      27.006  27.688 -17.270  1.00  0.00     0.091 A 
HETATM    6  N3  UNL     1      26.989  27.059 -16.021  1.00  0.00    -0.099 NA
HETATM    7  C4  UNL     1      26.232  27.189 -18.329  1.00  0.00     0.125 A 
HETATM    8  N5  UNL     1      26.232  27.767 -19.514  1.00  0.00    -0.188 N 
ATOM      9  H5  UNL     1      25.664  27.392 -20.273  1.00  0.00     0.184 HD
ENDROOT
BRANCH   7  10
HETATM   10  C5  UNL     1      25.394  26.002 -18.052  1.00  0.00     0.311 C 
HETATM   11  F1  UNL     1      26.115  25.043 -17.351  1.00  0.00    -0.197 F 
HETATM   12  F2  UNL     1      24.415  26.459 -17.148  1.00  0.00    -0.197 F 
BRANCH  10  13
HETATM   13  C6  UNL     1      24.706  25.407 -19.231  1.00  0.00     0.315 C 
BRANCH  13  14
HETATM   14  N4  UNL     1      25.410  24.294 -19.793  1.00  0.00    -0.073 N 
ATOM     15  H43 UNL     1      26.364  24.556 -20.039  1.00  0.00     0.274 HD
ATOM     16  H42 UNL     1      25.608  23.592 -19.081  1.00  0.00     0.274 HD
ATOM     17  H41 UNL     1      24.932  23.877 -20.591  1.00  0.00     0.274 HD
ENDBRANCH  13  14
ENDBRANCH  10  13
ENDBRANCH   7  10
BRANCH   1  18
HETATM   18  N1  UNL     1      27.025  29.452 -20.848  1.00  0.00    -0.234 N 
ATOM     19  H12 UNL     1      27.780  29.266 -21.509  1.00  0.00     0.174 HD
ATOM     20  H11 UNL     1      26.272  30.102 -21.072  1.00  0.00     0.174 HD
ENDBRANCH   1  18
TORSDOF 4
ENDMDL
