MODEL 1
REMARK VINA RESULT: -7.788096872      0.000      0.000
REMARK  7 active torsions:
REMARK  status: ('A' for Active; 'I' for Inactive)
REMARK    1  A    between atoms: C3_4  and  S1_5 
REMARK    2  A    between atoms: S1_5  and  C4_6 
REMARK    3  A    between atoms: C7_9  and  C8_10 
REMARK    4  A    between atoms: C8_10  and  N1_11 
REMARK    5  A    between atoms: N1_11  and  S2_13 
REMARK    6  A    between atoms: S2_13  and  N2_14 
REMARK    7  A    between atoms: C10_20  and  O4_21 
ROOT
HETATM    1  C4  UNL     1      24.130   6.042  13.418  1.00  0.00     0.083 C 
HETATM    2  C5  UNL     1      23.228   5.883  14.594  1.00  0.00     0.018 C 
HETATM    3  C6  UNL     1      23.908   6.399  15.823  1.00  0.00     0.007 C 
HETATM    4  C7  UNL     1      25.062   7.315  15.576  1.00  0.00     0.006 C 
HETATM    5  C9  UNL     1      26.099   6.766  14.641  1.00  0.00     0.039 C 
HETATM    6  C10 UNL     1      25.519   5.605  13.822  1.00  0.00     0.132 C 
ENDROOT
BRANCH   1   7
HETATM    7  S1  UNL     1      23.525   5.254  11.924  1.00  0.00    -0.097 SA
BRANCH   7   8
HETATM    8  C3  UNL     1      23.940   6.147  10.435  1.00  0.00     0.119 A 
HETATM    9  O1  UNL     1      24.994   6.929  10.272  1.00  0.00    -0.307 OA
HETATM   10  C2  UNL     1      25.042   7.449   9.085  1.00  0.00     0.057 A 
HETATM   11  C1  UNL     1      26.079   8.386   8.520  1.00  0.00     0.077 C 
HETATM   12  C13 UNL     1      23.954   7.007   8.366  1.00  0.00    -0.023 A 
HETATM   13  C11 UNL     1      23.263   6.183   9.229  1.00  0.00    -0.013 A 
HETATM   14  C14 UNL     1      23.632   7.365   6.964  1.00  0.00     0.051 C 
HETATM   15  C12 UNL     1      21.998   5.449   8.913  1.00  0.00     0.052 C 
ENDBRANCH   7   8
ENDBRANCH   1   7
BRANCH   6  16
HETATM   16  O4  UNL     1      25.434   4.518  14.689  1.00  0.00    -0.394 OA
ATOM     17  H4  UNL     1      26.206   4.490  15.242  1.00  0.00     0.210 HD
ENDBRANCH   6  16
BRANCH   4  18
HETATM   18  C8  UNL     1      25.766   7.563  16.894  1.00  0.00     0.138 C 
BRANCH  18  19
HETATM   19  N1  UNL     1      26.563   6.464  17.337  1.00  0.00    -0.303 N 
ATOM     20  H1  UNL     1      27.258   5.979  16.771  1.00  0.00     0.173 HD
BRANCH  19  21
HETATM   21  S2  UNL     1      26.175   6.080  18.968  1.00  0.00     0.312 S 
HETATM   22  O2  UNL     1      25.130   5.003  18.976  1.00  0.00    -0.183 OA
HETATM   23  O3  UNL     1      27.430   5.497  19.595  1.00  0.00    -0.183 OA
BRANCH  21  24
HETATM   24  N2  UNL     1      25.741   7.452  19.886  1.00  0.00    -0.312 N 
ATOM     25  H22 UNL     1      25.865   8.405  19.546  1.00  0.00     0.170 HD
ATOM     26  H21 UNL     1      25.350   7.211  20.798  1.00  0.00     0.170 HD
ENDBRANCH  21  24
ENDBRANCH  19  21
ENDBRANCH  18  19
ENDBRANCH   4  18
TORSDOF 7
ENDMDL
MODEL 2
REMARK VINA RESULT: -7.629714256      1.448      1.722
REMARK  7 active torsions:
REMARK  status: ('A' for Active; 'I' for Inactive)
REMARK    1  A    between atoms: C3_4  and  S1_5 
REMARK    2  A    between atoms: S1_5  and  C4_6 
REMARK    3  A    between atoms: C7_9  and  C8_10 
REMARK    4  A    between atoms: C8_10  and  N1_11 
REMARK    5  A    between atoms: N1_11  and  S2_13 
REMARK    6  A    between atoms: S2_13  and  N2_14 
REMARK    7  A    between atoms: C10_20  and  O4_21 
ROOT
HETATM    1  C4  UNL     1      24.327   6.077  14.142  1.00  0.00     0.083 C 
HETATM    2  C5  UNL     1      22.971   5.964  14.749  1.00  0.00     0.018 C 
HETATM    3  C6  UNL     1      22.918   6.762  16.013  1.00  0.00     0.007 C 
HETATM    4  C7  UNL     1      23.986   7.796  16.160  1.00  0.00     0.006 C 
HETATM    5  C9  UNL     1      25.381   7.276  15.971  1.00  0.00     0.039 C 
HETATM    6  C10 UNL     1      25.354   5.927  15.240  1.00  0.00     0.132 C 
ENDROOT
BRANCH   1   7
HETATM    7  S1  UNL     1      24.592   4.984  12.744  1.00  0.00    -0.097 SA
BRANCH   7   8
HETATM    8  C3  UNL     1      24.350   5.782  11.165  1.00  0.00     0.119 A 
HETATM    9  O1  UNL     1      25.022   6.830  10.719  1.00  0.00    -0.307 OA
HETATM   10  C2  UNL     1      24.634   7.197   9.538  1.00  0.00     0.057 A 
HETATM   11  C1  UNL     1      25.151   8.340   8.700  1.00  0.00     0.077 C 
HETATM   12  C13 UNL     1      23.626   6.355   9.124  1.00  0.00    -0.023 A 
HETATM   13  C11 UNL     1      23.454   5.463  10.161  1.00  0.00    -0.013 A 
HETATM   14  C14 UNL     1      22.905   6.427   7.831  1.00  0.00     0.051 C 
HETATM   15  C12 UNL     1      22.468   4.337  10.192  1.00  0.00     0.052 C 
ENDBRANCH   7   8
ENDBRANCH   1   7
BRANCH   6  16
HETATM   16  O4  UNL     1      24.912   4.986  16.168  1.00  0.00    -0.394 OA
ATOM     17  H4  UNL     1      25.309   4.144  15.983  1.00  0.00     0.210 HD
ENDBRANCH   6  16
BRANCH   4  18
HETATM   18  C8  UNL     1      23.927   8.350  17.569  1.00  0.00     0.138 C 
BRANCH  18  19
HETATM   19  N1  UNL     1      23.115   7.581  18.457  1.00  0.00    -0.303 N 
ATOM     20  H1  UNL     1      22.097   7.542  18.433  1.00  0.00     0.173 HD
BRANCH  19  21
HETATM   21  S2  UNL     1      24.110   6.731  19.572  1.00  0.00     0.312 S 
HETATM   22  O2  UNL     1      23.326   6.479  20.826  1.00  0.00    -0.183 OA
HETATM   23  O3  UNL     1      24.416   5.379  18.951  1.00  0.00    -0.183 OA
BRANCH  21  24
HETATM   24  N2  UNL     1      25.604   7.509  19.853  1.00  0.00    -0.312 N 
ATOM     25  H22 UNL     1      25.721   8.520  19.786  1.00  0.00     0.170 HD
ATOM     26  H21 UNL     1      26.351   6.856  20.092  1.00  0.00     0.170 HD
ENDBRANCH  21  24
ENDBRANCH  19  21
ENDBRANCH  18  19
ENDBRANCH   4  18
TORSDOF 7
ENDMDL
MODEL 3
REMARK VINA RESULT: -7.551615839      1.892      2.802
REMARK  7 active torsions:
REMARK  status: ('A' for Active; 'I' for Inactive)
REMARK    1  A    between atoms: C3_4  and  S1_5 
REMARK    2  A    between atoms: S1_5  and  C4_6 
REMARK    3  A    between atoms: C7_9  and  C8_10 
REMARK    4  A    between atoms: C8_10  and  N1_11 
REMARK    5  A    between atoms: N1_11  and  S2_13 
REMARK    6  A    between atoms: S2_13  and  N2_14 
REMARK    7  A    between atoms: C10_20  and  O4_21 
ROOT
HETATM    1  C4  UNL     1      24.632   8.348  14.883  1.00  0.00     0.083 C 
HETATM    2  C5  UNL     1      23.479   7.503  15.305  1.00  0.00     0.018 C 
HETATM    3  C6  UNL     1      23.559   7.243  16.777  1.00  0.00     0.007 C 
HETATM    4  C7  UNL     1      24.434   8.180  17.543  1.00  0.00     0.006 C 
HETATM    5  C9  UNL     1      25.825   8.314  16.998  1.00  0.00     0.039 C 
HETATM    6  C10 UNL     1      25.881   7.816  15.547  1.00  0.00     0.132 C 
ENDROOT
BRANCH   1   7
HETATM    7  S1  UNL     1      24.781   8.542  13.105  1.00  0.00    -0.097 SA
BRANCH   7   8
HETATM    8  C3  UNL     1      24.189   7.128  12.188  1.00  0.00     0.119 A 
HETATM    9  O1  UNL     1      24.111   5.890  12.644  1.00  0.00    -0.307 OA
HETATM   10  C2  UNL     1      23.644   5.067  11.757  1.00  0.00     0.057 A 
HETATM   11  C1  UNL     1      23.408   3.584  11.894  1.00  0.00     0.077 C 
HETATM   12  C13 UNL     1      23.375   5.769  10.604  1.00  0.00    -0.023 A 
HETATM   13  C11 UNL     1      23.724   7.073  10.887  1.00  0.00    -0.013 A 
HETATM   14  C14 UNL     1      22.828   5.206   9.347  1.00  0.00     0.051 C 
HETATM   15  C12 UNL     1      23.612   8.232   9.946  1.00  0.00     0.052 C 
ENDBRANCH   7   8
ENDBRANCH   1   7
BRANCH   6  16
HETATM   16  O4  UNL     1      25.822   6.425  15.608  1.00  0.00    -0.394 OA
ATOM     17  H4  UNL     1      25.809   6.146  16.516  1.00  0.00     0.210 HD
ENDBRANCH   6  16
BRANCH   4  18
HETATM   18  C8  UNL     1      24.581   7.651  18.955  1.00  0.00     0.138 C 
BRANCH  18  19
HETATM   19  N1  UNL     1      25.921   7.306  19.305  1.00  0.00    -0.303 N 
ATOM     20  H1  UNL     1      26.688   7.970  19.409  1.00  0.00     0.173 HD
BRANCH  19  21
HETATM   21  S2  UNL     1      26.051   5.606  19.525  1.00  0.00     0.312 S 
HETATM   22  O2  UNL     1      25.819   4.928  18.207  1.00  0.00    -0.183 OA
HETATM   23  O3  UNL     1      27.486   5.321  19.935  1.00  0.00    -0.183 OA
BRANCH  21  24
HETATM   24  N2  UNL     1      25.043   5.021  20.773  1.00  0.00    -0.312 N 
ATOM     25  H22 UNL     1      24.993   5.459  21.693  1.00  0.00     0.170 HD
ATOM     26  H21 UNL     1      24.508   4.197  20.497  1.00  0.00     0.170 HD
ENDBRANCH  21  24
ENDBRANCH  19  21
ENDBRANCH  18  19
ENDBRANCH   4  18
TORSDOF 7
ENDMDL
MODEL 4
REMARK VINA RESULT: -7.454238296      2.345      3.124
REMARK  7 active torsions:
REMARK  status: ('A' for Active; 'I' for Inactive)
REMARK    1  A    between atoms: C3_4  and  S1_5 
REMARK    2  A    between atoms: S1_5  and  C4_6 
REMARK    3  A    between atoms: C7_9  and  C8_10 
REMARK    4  A    between atoms: C8_10  and  N1_11 
REMARK    5  A    between atoms: N1_11  and  S2_13 
REMARK    6  A    between atoms: S2_13  and  N2_14 
REMARK    7  A    between atoms: C10_20  and  O4_21 
ROOT
HETATM    1  C4  UNL     1      24.520   8.271  15.069  1.00  0.00     0.083 C 
HETATM    2  C5  UNL     1      23.544   7.220  15.476  1.00  0.00     0.018 C 
HETATM    3  C6  UNL     1      23.628   7.002  16.954  1.00  0.00     0.007 C 
HETATM    4  C7  UNL     1      24.276   8.105  17.726  1.00  0.00     0.006 C 
HETATM    5  C9  UNL     1      25.629   8.505  17.216  1.00  0.00     0.039 C 
HETATM    6  C10 UNL     1      25.828   8.007  15.778  1.00  0.00     0.132 C 
ENDROOT
BRANCH   1   7
HETATM    7  S1  UNL     1      24.682   8.465  13.293  1.00  0.00    -0.097 SA
BRANCH   7   8
HETATM    8  C3  UNL     1      23.753   7.257  12.361  1.00  0.00     0.119 A 
HETATM    9  O1  UNL     1      22.673   7.503  11.640  1.00  0.00    -0.307 OA
HETATM   10  C2  UNL     1      22.207   6.435  11.071  1.00  0.00     0.057 A 
HETATM   11  C1  UNL     1      20.999   6.306  10.177  1.00  0.00     0.077 C 
HETATM   12  C13 UNL     1      23.009   5.369  11.412  1.00  0.00    -0.023 A 
HETATM   13  C11 UNL     1      23.985   5.900  12.229  1.00  0.00    -0.013 A 
HETATM   14  C14 UNL     1      22.827   3.965  10.973  1.00  0.00     0.051 C 
HETATM   15  C12 UNL     1      25.108   5.137  12.861  1.00  0.00     0.052 C 
ENDBRANCH   7   8
ENDBRANCH   1   7
BRANCH   6  16
HETATM   16  O4  UNL     1      26.043   6.633  15.866  1.00  0.00    -0.394 OA
ATOM     17  H4  UNL     1      25.905   6.345  16.760  1.00  0.00     0.210 HD
ENDBRANCH   6  16
BRANCH   4  18
HETATM   18  C8  UNL     1      24.481   7.636  19.151  1.00  0.00     0.138 C 
BRANCH  18  19
HETATM   19  N1  UNL     1      25.851   7.452  19.507  1.00  0.00    -0.303 N 
ATOM     20  H1  UNL     1      26.529   8.203  19.632  1.00  0.00     0.173 HD
BRANCH  19  21
HETATM   21  S2  UNL     1      26.189   5.776  19.693  1.00  0.00     0.312 S 
HETATM   22  O2  UNL     1      26.188   5.130  18.339  1.00  0.00    -0.183 OA
HETATM   23  O3  UNL     1      27.599   5.669  20.246  1.00  0.00    -0.183 OA
BRANCH  21  24
HETATM   24  N2  UNL     1      25.147   5.011  20.809  1.00  0.00    -0.312 N 
ATOM     25  H22 UNL     1      25.422   4.187  21.344  1.00  0.00     0.170 HD
ATOM     26  H21 UNL     1      24.236   5.465  20.876  1.00  0.00     0.170 HD
ENDBRANCH  21  24
ENDBRANCH  19  21
ENDBRANCH  18  19
ENDBRANCH   4  18
TORSDOF 7
ENDMDL
MODEL 5
REMARK VINA RESULT: -7.437103724      1.030      1.057
REMARK  7 active torsions:
REMARK  status: ('A' for Active; 'I' for Inactive)
REMARK    1  A    between atoms: C3_4  and  S1_5 
REMARK    2  A    between atoms: S1_5  and  C4_6 
REMARK    3  A    between atoms: C7_9  and  C8_10 
REMARK    4  A    between atoms: C8_10  and  N1_11 
REMARK    5  A    between atoms: N1_11  and  S2_13 
REMARK    6  A    between atoms: S2_13  and  N2_14 
REMARK    7  A    between atoms: C10_20  and  O4_21 
ROOT
HETATM    1  C4  UNL     1      24.156   6.490  13.682  1.00  0.00     0.083 C 
HETATM    2  C5  UNL     1      23.265   6.212  14.845  1.00  0.00     0.018 C 
HETATM    3  C6  UNL     1      23.973   6.564  16.115  1.00  0.00     0.007 C 
HETATM    4  C7  UNL     1      25.145   7.478  15.960  1.00  0.00     0.006 C 
HETATM    5  C9  UNL     1      26.157   7.021  14.951  1.00  0.00     0.039 C 
HETATM    6  C10 UNL     1      25.539   5.978  14.009  1.00  0.00     0.132 C 
ENDROOT
BRANCH   1   7
HETATM    7  S1  UNL     1      23.513   5.897  12.115  1.00  0.00    -0.097 SA
BRANCH   7   8
HETATM    8  C3  UNL     1      23.939   6.945  10.734  1.00  0.00     0.119 A 
HETATM    9  O1  UNL     1      25.121   7.004  10.145  1.00  0.00    -0.307 OA
HETATM   10  C2  UNL     1      25.142   7.854   9.167  1.00  0.00     0.057 A 
HETATM   11  C1  UNL     1      26.296   8.204   8.260  1.00  0.00     0.077 C 
HETATM   12  C13 UNL     1      23.897   8.432   9.058  1.00  0.00    -0.023 A 
HETATM   13  C11 UNL     1      23.142   7.849  10.054  1.00  0.00    -0.013 A 
HETATM   14  C14 UNL     1      23.495   9.458   8.067  1.00  0.00     0.051 C 
HETATM   15  C12 UNL     1      21.704   8.142  10.347  1.00  0.00     0.052 C 
ENDBRANCH   7   8
ENDBRANCH   1   7
BRANCH   6  16
HETATM   16  O4  UNL     1      25.440   4.798  14.743  1.00  0.00    -0.394 OA
ATOM     17  H4  UNL     1      25.417   5.001  15.671  1.00  0.00     0.210 HD
ENDBRANCH   6  16
BRANCH   4  18
HETATM   18  C8  UNL     1      25.872   7.552  17.287  1.00  0.00     0.138 C 
BRANCH  18  19
HETATM   19  N1  UNL     1      26.513   6.333  17.663  1.00  0.00    -0.303 N 
ATOM     20  H1  UNL     1      27.059   5.742  17.037  1.00  0.00     0.173 HD
BRANCH  19  21
HETATM   21  S2  UNL     1      26.225   6.009  19.327  1.00  0.00     0.312 S 
HETATM   22  O2  UNL     1      25.156   4.963  19.438  1.00  0.00    -0.183 OA
HETATM   23  O3  UNL     1      27.504   5.411  19.888  1.00  0.00    -0.183 OA
BRANCH  21  24
HETATM   24  N2  UNL     1      25.889   7.420  20.227  1.00  0.00    -0.312 N 
ATOM     25  H22 UNL     1      26.555   8.187  20.322  1.00  0.00     0.170 HD
ATOM     26  H21 UNL     1      24.961   7.407  20.652  1.00  0.00     0.170 HD
ENDBRANCH  21  24
ENDBRANCH  19  21
ENDBRANCH  18  19
ENDBRANCH   4  18
TORSDOF 7
ENDMDL
