MODEL 1
REMARK VINA RESULT: -7.787686000      0.000      0.000
REMARK  8 active torsions:
REMARK  status: ('A' for Active; 'I' for Inactive)
REMARK    1  A    between atoms: C2_2  and  C5_5 
REMARK    2  A    between atoms: C6_10  and  C7_11 
REMARK    3  A    between atoms: C7_11  and  C8_12 
REMARK    4  A    between atoms: C8_12  and  O2_14 
REMARK    5  A    between atoms: O2_14  and  C9_15 
REMARK    6  A    between atoms: C9_15  and  C10_16 
REMARK    7  A    between atoms: C10_16  and  N4_20 
REMARK    8  A    between atoms: N4_20  and  C11_22 
ROOT
HETATM    1  O2  UNL     1      24.942   6.594  13.069  1.00  0.00    -0.314 OA
ENDROOT
BRANCH   1   2
HETATM    2  C8  UNL     1      23.922   5.684  13.042  1.00  0.00     0.266 C 
HETATM    3  O1  UNL     1      23.019   5.704  13.891  1.00  0.00    -0.265 OA
BRANCH   2   4
HETATM    4  C7  UNL     1      23.905   4.663  11.972  1.00  0.00     0.189 C 
BRANCH   4   5
HETATM    5  C6  UNL     1      23.783   5.382  10.665  1.00  0.00     0.106 A 
HETATM    6  N2  UNL     1      22.984   5.018   9.642  1.00  0.00    -0.287 N 
HETATM    7  N1  UNL     1      23.134   5.880   8.672  1.00  0.00    -0.287 N 
ATOM      8  H2  UNL     1      22.367   4.207   9.628  1.00  0.00     0.188 HD
HETATM    9  C5  UNL     1      24.036   6.833   9.035  1.00  0.00     0.105 A 
ATOM     10  H1  UNL     1      22.647   5.845   7.777  1.00  0.00     0.188 HD
HETATM   11  N5  UNL     1      24.421   6.495  10.276  1.00  0.00    -0.332 N 
ATOM     12  H5  UNL     1      25.098   7.010  10.839  1.00  0.00     0.168 HD
BRANCH   9  13
HETATM   13  C2  UNL     1      24.464   7.984   8.188  1.00  0.00     0.009 C 
HETATM   14  C1  UNL     1      24.238   7.563   6.743  1.00  0.00     0.023 C 
HETATM   15  C3  UNL     1      23.579   9.176   8.465  1.00  0.00     0.023 C 
HETATM   16  C4  UNL     1      25.934   8.305   8.413  1.00  0.00     0.023 C 
ENDBRANCH   9  13
ENDBRANCH   4   5
ENDBRANCH   2   4
ENDBRANCH   1   2
BRANCH   1  17
HETATM   17  C9  UNL     1      25.192   7.524  14.085  1.00  0.00     0.254 C 
BRANCH  17  18
HETATM   18  C10 UNL     1      26.082   6.925  15.140  1.00  0.00     0.096 C 
HETATM   19  N3  UNL     1      27.318   7.157  15.136  1.00  0.00    -0.387 N 
ATOM     20  H32 UNL     1      27.778   7.742  14.438  1.00  0.00     0.157 HD
ATOM     21  H31 UNL     1      27.921   6.751  15.851  1.00  0.00     0.157 HD
BRANCH  18  22
HETATM   22  N4  UNL     1      25.455   6.128  16.092  1.00  0.00    -0.369 N 
ATOM     23  H4  UNL     1      25.335   5.150  15.826  1.00  0.00     0.161 HD
BRANCH  22  24
HETATM   24  C11 UNL     1      24.960   6.463  17.371  1.00  0.00     0.035 C 
HETATM   25  C12 UNL     1      25.310   5.339  18.359  1.00  0.00     0.036 C 
HETATM   26  C13 UNL     1      25.332   6.121  19.654  1.00  0.00    -0.011 C 
HETATM   27  C14 UNL     1      23.897   6.508  19.933  1.00  0.00     0.009 C 
HETATM   28  C18 UNL     1      26.171   7.333  19.241  1.00  0.00     0.012 C 
HETATM   29  C15 UNL     1      23.291   7.257  18.791  1.00  0.00    -0.011 C 
HETATM   30  C16 UNL     1      24.180   8.478  18.493  1.00  0.00     0.012 C 
HETATM   31  C19 UNL     1      23.428   6.540  17.455  1.00  0.00     0.036 C 
HETATM   32  C17 UNL     1      25.425   7.745  17.969  1.00  0.00     0.014 C 
ENDBRANCH  22  24
ENDBRANCH  18  22
ENDBRANCH  17  18
ENDBRANCH   1  17
TORSDOF 8
ENDMDL
MODEL 2
REMARK VINA RESULT: -7.694859896      2.531      7.812
REMARK  8 active torsions:
REMARK  status: ('A' for Active; 'I' for Inactive)
REMARK    1  A    between atoms: C2_2  and  C5_5 
REMARK    2  A    between atoms: C6_10  and  C7_11 
REMARK    3  A    between atoms: C7_11  and  C8_12 
REMARK    4  A    between atoms: C8_12  and  O2_14 
REMARK    5  A    between atoms: O2_14  and  C9_15 
REMARK    6  A    between atoms: C9_15  and  C10_16 
REMARK    7  A    between atoms: C10_16  and  N4_20 
REMARK    8  A    between atoms: N4_20  and  C11_22 
ROOT
HETATM    1  O2  UNL     1      23.398   8.029  15.060  1.00  0.00    -0.314 OA
ENDROOT
BRANCH   1   2
HETATM    2  C8  UNL     1      24.438   8.239  14.196  1.00  0.00     0.266 C 
HETATM    3  O1  UNL     1      24.360   9.077  13.287  1.00  0.00    -0.265 OA
BRANCH   2   4
HETATM    4  C7  UNL     1      25.674   7.446  14.364  1.00  0.00     0.189 C 
BRANCH   4   5
HETATM    5  C6  UNL     1      25.536   6.657  15.629  1.00  0.00     0.106 A 
HETATM    6  N2  UNL     1      25.204   5.353  15.706  1.00  0.00    -0.287 N 
HETATM    7  N1  UNL     1      25.186   5.004  16.965  1.00  0.00    -0.287 N 
ATOM      8  H2  UNL     1      25.001   4.741  14.916  1.00  0.00     0.188 HD
HETATM    9  C5  UNL     1      25.507   6.073  17.746  1.00  0.00     0.105 A 
ATOM     10  H1  UNL     1      24.965   4.070  17.311  1.00  0.00     0.188 HD
HETATM   11  N5  UNL     1      25.717   7.082  16.887  1.00  0.00    -0.332 N 
ATOM     12  H5  UNL     1      25.977   8.032  17.152  1.00  0.00     0.168 HD
BRANCH   9  13
HETATM   13  C2  UNL     1      25.590   6.060  19.236  1.00  0.00     0.009 C 
HETATM   14  C1  UNL     1      26.858   5.295  19.590  1.00  0.00     0.023 C 
HETATM   15  C3  UNL     1      25.744   7.472  19.748  1.00  0.00     0.023 C 
HETATM   16  C4  UNL     1      24.378   5.366  19.839  1.00  0.00     0.023 C 
ENDBRANCH   9  13
ENDBRANCH   4   5
ENDBRANCH   2   4
ENDBRANCH   1   2
BRANCH   1  17
HETATM   17  C9  UNL     1      22.053   7.868  14.708  1.00  0.00     0.254 C 
BRANCH  17  18
HETATM   18  C10 UNL     1      21.719   6.408  14.561  1.00  0.00     0.096 C 
HETATM   19  N3  UNL     1      21.872   5.620  15.529  1.00  0.00    -0.387 N 
ATOM     20  H32 UNL     1      22.226   5.911  16.440  1.00  0.00     0.157 HD
ATOM     21  H31 UNL     1      21.645   4.630  15.429  1.00  0.00     0.157 HD
BRANCH  18  22
HETATM   22  N4  UNL     1      21.236   6.011  13.318  1.00  0.00    -0.369 N 
ATOM     23  H4  UNL     1      20.221   6.046  13.219  1.00  0.00     0.161 HD
BRANCH  22  24
HETATM   24  C11 UNL     1      21.933   5.567  12.174  1.00  0.00     0.035 C 
HETATM   25  C12 UNL     1      22.451   6.784  11.393  1.00  0.00     0.036 C 
HETATM   26  C13 UNL     1      23.639   6.164  10.691  1.00  0.00    -0.011 C 
HETATM   27  C14 UNL     1      23.067   5.208   9.668  1.00  0.00     0.009 C 
HETATM   28  C18 UNL     1      24.298   5.416  11.853  1.00  0.00     0.012 C 
HETATM   29  C15 UNL     1      22.151   4.208  10.293  1.00  0.00    -0.011 C 
HETATM   30  C16 UNL     1      22.924   3.479  11.407  1.00  0.00     0.012 C 
HETATM   31  C19 UNL     1      21.057   4.836  11.144  1.00  0.00     0.036 C 
HETATM   32  C17 UNL     1      23.085   4.650  12.390  1.00  0.00     0.014 C 
ENDBRANCH  22  24
ENDBRANCH  18  22
ENDBRANCH  17  18
ENDBRANCH   1  17
TORSDOF 8
ENDMDL
MODEL 3
REMARK VINA RESULT: -7.592256828      1.091      1.948
REMARK  8 active torsions:
REMARK  status: ('A' for Active; 'I' for Inactive)
REMARK    1  A    between atoms: C2_2  and  C5_5 
REMARK    2  A    between atoms: C6_10  and  C7_11 
REMARK    3  A    between atoms: C7_11  and  C8_12 
REMARK    4  A    between atoms: C8_12  and  O2_14 
REMARK    5  A    between atoms: O2_14  and  C9_15 
REMARK    6  A    between atoms: C9_15  and  C10_16 
REMARK    7  A    between atoms: C10_16  and  N4_20 
REMARK    8  A    between atoms: N4_20  and  C11_22 
ROOT
HETATM    1  O2  UNL     1      24.506   6.815  13.413  1.00  0.00    -0.314 OA
ENDROOT
BRANCH   1   2
HETATM    2  C8  UNL     1      25.060   5.593  13.150  1.00  0.00     0.266 C 
HETATM    3  O1  UNL     1      26.177   5.285  13.589  1.00  0.00    -0.265 OA
BRANCH   2   4
HETATM    4  C7  UNL     1      24.299   4.628  12.327  1.00  0.00     0.189 C 
BRANCH   4   5
HETATM    5  C6  UNL     1      23.958   5.306  11.037  1.00  0.00     0.106 A 
HETATM    6  N2  UNL     1      23.004   4.908  10.171  1.00  0.00    -0.287 N 
HETATM    7  N1  UNL     1      22.985   5.740   9.165  1.00  0.00    -0.287 N 
ATOM      8  H2  UNL     1      22.399   4.095  10.284  1.00  0.00     0.188 HD
HETATM    9  C5  UNL     1      23.928   6.707   9.345  1.00  0.00     0.105 A 
ATOM     10  H1  UNL     1      22.358   5.676   8.363  1.00  0.00     0.188 HD
HETATM   11  N5  UNL     1      24.514   6.408  10.515  1.00  0.00    -0.332 N 
ATOM     12  H5  UNL     1      25.271   6.942  10.943  1.00  0.00     0.168 HD
BRANCH   9  13
HETATM   13  C2  UNL     1      24.202   7.832   8.405  1.00  0.00     0.009 C 
HETATM   14  C1  UNL     1      23.781   7.351   7.023  1.00  0.00     0.023 C 
HETATM   15  C3  UNL     1      23.336   9.016   8.764  1.00  0.00     0.023 C 
HETATM   16  C4  UNL     1      25.680   8.190   8.404  1.00  0.00     0.023 C 
ENDBRANCH   9  13
ENDBRANCH   4   5
ENDBRANCH   2   4
ENDBRANCH   1   2
BRANCH   1  17
HETATM   17  C9  UNL     1      24.090   7.280  14.666  1.00  0.00     0.254 C 
BRANCH  17  18
HETATM   18  C10 UNL     1      23.582   6.142  15.508  1.00  0.00     0.096 C 
HETATM   19  N3  UNL     1      22.409   5.714  15.360  1.00  0.00    -0.387 N 
ATOM     20  H32 UNL     1      21.750   6.104  14.685  1.00  0.00     0.157 HD
ATOM     21  H31 UNL     1      22.065   4.942  15.930  1.00  0.00     0.157 HD
BRANCH  18  22
HETATM   22  N4  UNL     1      24.481   5.609  16.428  1.00  0.00    -0.369 N 
ATOM     23  H4  UNL     1      24.896   4.717  16.158  1.00  0.00     0.161 HD
BRANCH  22  24
HETATM   24  C11 UNL     1      24.907   6.113  17.676  1.00  0.00     0.035 C 
HETATM   25  C12 UNL     1      25.985   7.183  17.447  1.00  0.00     0.036 C 
HETATM   26  C13 UNL     1      25.809   8.010  18.702  1.00  0.00    -0.011 C 
HETATM   27  C14 UNL     1      26.295   7.146  19.844  1.00  0.00     0.009 C 
HETATM   28  C18 UNL     1      24.286   8.170  18.726  1.00  0.00     0.012 C 
HETATM   29  C15 UNL     1      25.586   5.832  19.887  1.00  0.00    -0.011 C 
HETATM   30  C16 UNL     1      24.073   6.107  19.963  1.00  0.00     0.012 C 
HETATM   31  C19 UNL     1      25.619   5.081  18.564  1.00  0.00     0.036 C 
HETATM   32  C17 UNL     1      23.869   6.706  18.563  1.00  0.00     0.014 C 
ENDBRANCH  22  24
ENDBRANCH  18  22
ENDBRANCH  17  18
ENDBRANCH   1  17
TORSDOF 8
ENDMDL
MODEL 4
REMARK VINA RESULT: -7.571358360      0.823      1.817
REMARK  8 active torsions:
REMARK  status: ('A' for Active; 'I' for Inactive)
REMARK    1  A    between atoms: C2_2  and  C5_5 
REMARK    2  A    between atoms: C6_10  and  C7_11 
REMARK    3  A    between atoms: C7_11  and  C8_12 
REMARK    4  A    between atoms: C8_12  and  O2_14 
REMARK    5  A    between atoms: O2_14  and  C9_15 
REMARK    6  A    between atoms: C9_15  and  C10_16 
REMARK    7  A    between atoms: C10_16  and  N4_20 
REMARK    8  A    between atoms: N4_20  and  C11_22 
ROOT
HETATM    1  O2  UNL     1      24.757   6.627  14.037  1.00  0.00    -0.314 OA
ENDROOT
BRANCH   1   2
HETATM    2  C8  UNL     1      25.198   5.530  13.350  1.00  0.00     0.266 C 
HETATM    3  O1  UNL     1      26.401   5.235  13.312  1.00  0.00    -0.265 OA
BRANCH   2   4
HETATM    4  C7  UNL     1      24.210   4.686  12.646  1.00  0.00     0.189 C 
BRANCH   4   5
HETATM    5  C6  UNL     1      23.953   5.311  11.310  1.00  0.00     0.106 A 
HETATM    6  N2  UNL     1      23.095   4.846  10.379  1.00  0.00    -0.287 N 
HETATM    7  N1  UNL     1      23.128   5.648   9.349  1.00  0.00    -0.287 N 
ATOM      8  H2  UNL     1      22.518   4.010  10.465  1.00  0.00     0.188 HD
HETATM    9  C5  UNL     1      24.009   6.662   9.578  1.00  0.00     0.105 A 
ATOM     10  H1  UNL     1      22.575   5.533   8.499  1.00  0.00     0.188 HD
HETATM   11  N5  UNL     1      24.503   6.423  10.803  1.00  0.00    -0.332 N 
ATOM     12  H5  UNL     1      25.197   7.002  11.277  1.00  0.00     0.168 HD
BRANCH   9  13
HETATM   13  C2  UNL     1      24.314   7.772   8.629  1.00  0.00     0.009 C 
HETATM   14  C1  UNL     1      23.822   7.317   7.262  1.00  0.00     0.023 C 
HETATM   15  C3  UNL     1      23.529   9.002   9.018  1.00  0.00     0.023 C 
HETATM   16  C4  UNL     1      25.809   8.045   8.580  1.00  0.00     0.023 C 
ENDBRANCH   9  13
ENDBRANCH   4   5
ENDBRANCH   2   4
ENDBRANCH   1   2
BRANCH   1  17
HETATM   17  C9  UNL     1      25.468   7.816  14.237  1.00  0.00     0.254 C 
BRANCH  17  18
HETATM   18  C10 UNL     1      26.360   7.700  15.444  1.00  0.00     0.096 C 
HETATM   19  N3  UNL     1      27.510   7.201  15.339  1.00  0.00    -0.387 N 
ATOM     20  H32 UNL     1      27.892   6.850  14.460  1.00  0.00     0.157 HD
ATOM     21  H31 UNL     1      28.115   7.122  16.156  1.00  0.00     0.157 HD
BRANCH  18  22
HETATM   22  N4  UNL     1      25.839   8.178  16.642  1.00  0.00    -0.369 N 
ATOM     23  H4  UNL     1      25.873   9.192  16.753  1.00  0.00     0.161 HD
BRANCH  22  24
HETATM   24  C11 UNL     1      25.270   7.477  17.727  1.00  0.00     0.035 C 
HETATM   25  C12 UNL     1      24.007   8.215  18.199  1.00  0.00     0.036 C 
HETATM   26  C13 UNL     1      23.239   7.064  18.810  1.00  0.00    -0.011 C 
HETATM   27  C14 UNL     1      23.999   6.669  20.056  1.00  0.00     0.009 C 
HETATM   28  C18 UNL     1      23.381   6.010  17.708  1.00  0.00     0.012 C 
HETATM   29  C15 UNL     1      25.427   6.347  19.759  1.00  0.00    -0.011 C 
HETATM   30  C16 UNL     1      25.455   5.245  18.683  1.00  0.00     0.012 C 
HETATM   31  C19 UNL     1      26.148   7.442  18.987  1.00  0.00     0.036 C 
HETATM   32  C17 UNL     1      24.898   6.054  17.500  1.00  0.00     0.014 C 
ENDBRANCH  22  24
ENDBRANCH  18  22
ENDBRANCH  17  18
ENDBRANCH   1  17
TORSDOF 8
ENDMDL
MODEL 5
REMARK VINA RESULT: -7.560712569      2.447      3.297
REMARK  8 active torsions:
REMARK  status: ('A' for Active; 'I' for Inactive)
REMARK    1  A    between atoms: C2_2  and  C5_5 
REMARK    2  A    between atoms: C6_10  and  C7_11 
REMARK    3  A    between atoms: C7_11  and  C8_12 
REMARK    4  A    between atoms: C8_12  and  O2_14 
REMARK    5  A    between atoms: O2_14  and  C9_15 
REMARK    6  A    between atoms: C9_15  and  C10_16 
REMARK    7  A    between atoms: C10_16  and  N4_20 
REMARK    8  A    between atoms: N4_20  and  C11_22 
ROOT
HETATM    1  O2  UNL     1      24.617   8.507  14.744  1.00  0.00    -0.314 OA
ENDROOT
BRANCH   1   2
HETATM    2  C8  UNL     1      23.607   8.900  15.578  1.00  0.00     0.266 C 
HETATM    3  O1  UNL     1      23.755   9.843  16.369  1.00  0.00    -0.265 OA
BRANCH   2   4
HETATM    4  C7  UNL     1      22.317   8.179  15.522  1.00  0.00     0.189 C 
BRANCH   4   5
HETATM    5  C6  UNL     1      22.478   7.039  14.567  1.00  0.00     0.106 A 
HETATM    6  N2  UNL     1      22.424   5.731  14.891  1.00  0.00    -0.287 N 
HETATM    7  N1  UNL     1      22.600   5.028  13.805  1.00  0.00    -0.287 N 
ATOM      8  H2  UNL     1      22.272   5.355  15.826  1.00  0.00     0.188 HD
HETATM    9  C5  UNL     1      22.774   5.857  12.738  1.00  0.00     0.105 A 
ATOM     10  H1  UNL     1      22.606   4.008  13.761  1.00  0.00     0.188 HD
HETATM   11  N5  UNL     1      22.694   7.097  13.245  1.00  0.00    -0.332 N 
ATOM     12  H5  UNL     1      22.783   7.958  12.704  1.00  0.00     0.168 HD
BRANCH   9  13
HETATM   13  C2  UNL     1      23.001   5.418  11.331  1.00  0.00     0.009 C 
HETATM   14  C1  UNL     1      22.963   3.897  11.343  1.00  0.00     0.023 C 
HETATM   15  C3  UNL     1      21.867   5.902  10.459  1.00  0.00     0.023 C 
HETATM   16  C4  UNL     1      24.352   5.901  10.825  1.00  0.00     0.023 C 
ENDBRANCH   9  13
ENDBRANCH   4   5
ENDBRANCH   2   4
ENDBRANCH   1   2
BRANCH   1  17
HETATM   17  C9  UNL     1      25.951   8.289  15.110  1.00  0.00     0.254 C 
BRANCH  17  18
HETATM   18  C10 UNL     1      26.187   6.831  15.396  1.00  0.00     0.096 C 
HETATM   19  N3  UNL     1      26.014   5.970  14.496  1.00  0.00    -0.387 N 
ATOM     20  H32 UNL     1      25.706   6.199  13.550  1.00  0.00     0.157 HD
ATOM     21  H31 UNL     1      26.174   4.982  14.690  1.00  0.00     0.157 HD
BRANCH  18  22
HETATM   22  N4  UNL     1      26.607   6.518  16.685  1.00  0.00    -0.369 N 
ATOM     23  H4  UNL     1      27.608   6.344  16.783  1.00  0.00     0.161 HD
BRANCH  22  24
HETATM   24  C11 UNL     1      25.862   6.405  17.879  1.00  0.00     0.035 C 
HETATM   25  C12 UNL     1      26.496   5.325  18.770  1.00  0.00     0.036 C 
HETATM   26  C13 UNL     1      26.044   5.806  20.131  1.00  0.00    -0.011 C 
HETATM   27  C14 UNL     1      24.550   5.581  20.180  1.00  0.00     0.009 C 
HETATM   28  C18 UNL     1      26.386   7.295  20.036  1.00  0.00     0.012 C 
HETATM   29  C15 UNL     1      23.849   6.253  19.044  1.00  0.00    -0.011 C 
HETATM   30  C16 UNL     1      24.218   7.747  19.071  1.00  0.00     0.012 C 
HETATM   31  C19 UNL     1      24.425   5.898  17.681  1.00  0.00     0.036 C 
HETATM   32  C17 UNL     1      25.706   7.633  18.705  1.00  0.00     0.014 C 
ENDBRANCH  22  24
ENDBRANCH  18  22
ENDBRANCH  17  18
ENDBRANCH   1  17
TORSDOF 8
ENDMDL
