MODEL 1
REMARK VINA RESULT: -7.961798990      0.000      0.000
REMARK  6 active torsions:
REMARK  status: ('A' for Active; 'I' for Inactive)
REMARK    1  A    between atoms: C4_7  and  C5_8 
REMARK    2  A    between atoms: N3_11  and  C8_12 
REMARK    3  A    between atoms: C8_12  and  C9_13 
REMARK    4  A    between atoms: C9_13  and  N4_14 
REMARK       I    between atoms: N4_14  and  C10_16 
REMARK       I    between atoms: C10_16  and  N5_18 
REMARK    5  A    between atoms: N5_18  and  C11_20 
REMARK    6  A    between atoms: C15_24  and  O2_25 
ROOT
HETATM    1  C9  UNL     1      24.371   5.639  12.337  1.00  0.00     0.154 C 
ENDROOT
BRANCH   1   2
HETATM    2  C8  UNL     1      23.877   6.989  11.873  1.00  0.00     0.292 C 
BRANCH   2   3
HETATM    3  N3  UNL     1      22.988   6.770  10.743  1.00  0.00     0.090 N 
HETATM    4  C7  UNL     1      22.554   8.025  10.160  1.00  0.00     0.273 C 
HETATM    5  C6  UNL     1      23.574   8.516   9.155  1.00  0.00     0.041 C 
HETATM    6  C5  UNL     1      23.441   7.628   7.938  1.00  0.00     0.040 C 
HETATM    7  C18 UNL     1      23.157   6.186   8.349  1.00  0.00     0.041 C 
HETATM    8  C17 UNL     1      23.617   5.913   9.757  1.00  0.00     0.273 C 
BRANCH   6   9
HETATM    9  C4  UNL     1      24.652   7.686   7.083  1.00  0.00     0.031 A 
HETATM   10  N1  UNL     1      24.698   7.393   5.768  1.00  0.00    -0.349 N 
HETATM   11  C1  UNL     1      23.552   6.973   4.991  1.00  0.00     0.156 C 
HETATM   12  C2  UNL     1      25.952   7.552   5.306  1.00  0.00     0.182 A 
HETATM   13  N2  UNL     1      26.701   7.948   6.348  1.00  0.00    -0.360 N 
HETATM   14  C3  UNL     1      25.926   8.036   7.441  1.00  0.00     0.114 A 
ATOM     15  H2  UNL     1      27.701   8.151   6.314  1.00  0.00     0.166 HD
ENDBRANCH   6   9
ENDBRANCH   2   3
ENDBRANCH   1   2
BRANCH   1  16
HETATM   16  N4  UNL     1      24.104   5.505  13.748  1.00  0.00    -0.341 N 
HETATM   17  C10 UNL     1      25.057   5.872  14.723  1.00  0.00     0.316 C 
HETATM   18  O1  UNL     1      26.166   6.317  14.369  1.00  0.00    -0.247 OA
HETATM   19  N5  UNL     1      24.763   5.740  16.114  1.00  0.00    -0.338 N 
ATOM     20  H5  UNL     1      23.857   5.377  16.412  1.00  0.00     0.164 HD
ATOM     21  H4  UNL     1      23.202   5.136  14.050  1.00  0.00     0.164 HD
BRANCH  19  22
HETATM   22  C11 UNL     1      25.753   6.122  17.109  1.00  0.00     0.088 C 
HETATM   23  C12 UNL     1      25.571   7.598  17.371  1.00  0.00     0.025 C 
HETATM   24  C13 UNL     1      25.309   7.896  18.819  1.00  0.00     0.004 C 
HETATM   25  C14 UNL     1      26.314   7.214  19.716  1.00  0.00     0.032 C 
HETATM   26  C15 UNL     1      26.334   5.732  19.519  1.00  0.00     0.120 C 
HETATM   27  C16 UNL     1      25.517   5.279  18.333  1.00  0.00     0.057 C 
BRANCH  26  28
HETATM   28  O2  UNL     1      25.797   5.084  20.646  1.00  0.00    -0.396 OA
ATOM     29  H2  UNL     1      25.347   4.290  20.385  1.00  0.00     0.210 HD
ENDBRANCH  26  28
ENDBRANCH  19  22
ENDBRANCH   1  16
TORSDOF 6
ENDMDL
MODEL 2
REMARK VINA RESULT: -7.924627880      1.041      1.158
REMARK  6 active torsions:
REMARK  status: ('A' for Active; 'I' for Inactive)
REMARK    1  A    between atoms: C4_7  and  C5_8 
REMARK    2  A    between atoms: N3_11  and  C8_12 
REMARK    3  A    between atoms: C8_12  and  C9_13 
REMARK    4  A    between atoms: C9_13  and  N4_14 
REMARK       I    between atoms: N4_14  and  C10_16 
REMARK       I    between atoms: C10_16  and  N5_18 
REMARK    5  A    between atoms: N5_18  and  C11_20 
REMARK    6  A    between atoms: C15_24  and  O2_25 
ROOT
HETATM    1  C9  UNL     1      24.747   5.691  12.867  1.00  0.00     0.154 C 
ENDROOT
BRANCH   1   2
HETATM    2  C8  UNL     1      23.919   6.880  12.439  1.00  0.00     0.292 C 
BRANCH   2   3
HETATM    3  N3  UNL     1      23.022   6.437  11.385  1.00  0.00     0.090 N 
HETATM    4  C7  UNL     1      22.290   7.549  10.810  1.00  0.00     0.273 C 
HETATM    5  C6  UNL     1      23.107   8.209   9.722  1.00  0.00     0.041 C 
HETATM    6  C5  UNL     1      23.084   7.271   8.537  1.00  0.00     0.040 C 
HETATM    7  C18 UNL     1      23.146   5.817   8.997  1.00  0.00     0.041 C 
HETATM    8  C17 UNL     1      23.750   5.699  10.371  1.00  0.00     0.273 C 
BRANCH   6   9
HETATM    9  C4  UNL     1      24.192   7.554   7.591  1.00  0.00     0.031 A 
HETATM   10  N1  UNL     1      24.164   7.334   6.261  1.00  0.00    -0.349 N 
HETATM   11  C1  UNL     1      23.029   6.780   5.556  1.00  0.00     0.156 C 
HETATM   12  C2  UNL     1      25.334   7.705   5.711  1.00  0.00     0.182 A 
HETATM   13  N2  UNL     1      26.106   8.163   6.710  1.00  0.00    -0.360 N 
HETATM   14  C3  UNL     1      25.426   8.080   7.865  1.00  0.00     0.114 A 
ATOM     15  H2  UNL     1      27.057   8.519   6.608  1.00  0.00     0.166 HD
ENDBRANCH   6   9
ENDBRANCH   2   3
ENDBRANCH   1   2
BRANCH   1  16
HETATM   16  N4  UNL     1      24.347   5.300  14.197  1.00  0.00    -0.341 N 
HETATM   17  C10 UNL     1      24.800   5.990  15.343  1.00  0.00     0.316 C 
HETATM   18  O1  UNL     1      25.574   6.959  15.218  1.00  0.00    -0.247 OA
HETATM   19  N5  UNL     1      24.381   5.589  16.648  1.00  0.00    -0.338 N 
ATOM     20  H5  UNL     1      23.747   4.797  16.758  1.00  0.00     0.164 HD
ATOM     21  H4  UNL     1      23.720   4.504  14.313  1.00  0.00     0.164 HD
BRANCH  19  22
HETATM   22  C11 UNL     1      24.854   6.308  17.819  1.00  0.00     0.088 C 
HETATM   23  C12 UNL     1      23.754   6.247  18.852  1.00  0.00     0.025 C 
HETATM   24  C13 UNL     1      24.212   5.637  20.145  1.00  0.00     0.004 C 
HETATM   25  C14 UNL     1      25.498   6.265  20.628  1.00  0.00     0.032 C 
HETATM   26  C15 UNL     1      26.596   6.153  19.620  1.00  0.00     0.120 C 
HETATM   27  C16 UNL     1      26.123   5.642  18.281  1.00  0.00     0.057 C 
BRANCH  26  28
HETATM   28  O2  UNL     1      27.577   5.250  20.068  1.00  0.00    -0.396 OA
ATOM     29  H2  UNL     1      27.933   5.539  20.900  1.00  0.00     0.210 HD
ENDBRANCH  26  28
ENDBRANCH  19  22
ENDBRANCH   1  16
TORSDOF 6
ENDMDL
MODEL 3
REMARK VINA RESULT: -7.759097073      1.817      2.592
REMARK  6 active torsions:
REMARK  status: ('A' for Active; 'I' for Inactive)
REMARK    1  A    between atoms: C4_7  and  C5_8 
REMARK    2  A    between atoms: N3_11  and  C8_12 
REMARK    3  A    between atoms: C8_12  and  C9_13 
REMARK    4  A    between atoms: C9_13  and  N4_14 
REMARK       I    between atoms: N4_14  and  C10_16 
REMARK       I    between atoms: C10_16  and  N5_18 
REMARK    5  A    between atoms: N5_18  and  C11_20 
REMARK    6  A    between atoms: C15_24  and  O2_25 
ROOT
HETATM    1  C9  UNL     1      21.324   6.288  14.019  1.00  0.00     0.154 C 
ENDROOT
BRANCH   1   2
HETATM    2  C8  UNL     1      21.758   6.018  12.597  1.00  0.00     0.292 C 
BRANCH   2   3
HETATM    3  N3  UNL     1      23.086   6.584  12.427  1.00  0.00     0.090 N 
HETATM    4  C7  UNL     1      24.000   5.621  11.841  1.00  0.00     0.273 C 
HETATM    5  C6  UNL     1      23.888   5.643  10.333  1.00  0.00     0.041 C 
HETATM    6  C5  UNL     1      24.556   6.918   9.870  1.00  0.00     0.040 C 
HETATM    7  C18 UNL     1      24.274   8.061  10.842  1.00  0.00     0.041 C 
HETATM    8  C17 UNL     1      23.027   7.804  11.646  1.00  0.00     0.273 C 
BRANCH   6   9
HETATM    9  C4  UNL     1      24.128   7.297   8.500  1.00  0.00     0.031 A 
HETATM   10  N1  UNL     1      24.931   7.786   7.535  1.00  0.00    -0.349 N 
HETATM   11  C1  UNL     1      26.349   8.018   7.700  1.00  0.00     0.156 C 
HETATM   12  C2  UNL     1      24.215   8.019   6.419  1.00  0.00     0.182 A 
HETATM   13  N2  UNL     1      22.947   7.671   6.691  1.00  0.00    -0.360 N 
HETATM   14  C3  UNL     1      22.874   7.227   7.956  1.00  0.00     0.114 A 
ATOM     15  H2  UNL     1      22.164   7.733   6.040  1.00  0.00     0.166 HD
ENDBRANCH   6   9
ENDBRANCH   2   3
ENDBRANCH   1   2
BRANCH   1  16
HETATM   16  N4  UNL     1      22.225   5.608  14.918  1.00  0.00    -0.341 N 
HETATM   17  C10 UNL     1      22.941   6.300  15.918  1.00  0.00     0.316 C 
HETATM   18  O1  UNL     1      22.808   7.534  16.034  1.00  0.00    -0.247 OA
HETATM   19  N5  UNL     1      23.819   5.601  16.802  1.00  0.00    -0.338 N 
ATOM     20  H5  UNL     1      23.932   4.591  16.713  1.00  0.00     0.164 HD
ATOM     21  H4  UNL     1      22.348   4.599  14.828  1.00  0.00     0.164 HD
BRANCH  19  22
HETATM   22  C11 UNL     1      24.550   6.326  17.828  1.00  0.00     0.088 C 
HETATM   23  C12 UNL     1      23.640   6.437  19.027  1.00  0.00     0.025 C 
HETATM   24  C13 UNL     1      24.249   5.851  20.268  1.00  0.00     0.004 C 
HETATM   25  C14 UNL     1      25.652   6.363  20.490  1.00  0.00     0.032 C 
HETATM   26  C15 UNL     1      26.548   6.082  19.327  1.00  0.00     0.120 C 
HETATM   27  C16 UNL     1      25.809   5.555  18.122  1.00  0.00     0.057 C 
BRANCH  26  28
HETATM   28  O2  UNL     1      27.500   5.105  19.671  1.00  0.00    -0.396 OA
ATOM     29  H2  UNL     1      28.233   5.506  20.123  1.00  0.00     0.210 HD
ENDBRANCH  26  28
ENDBRANCH  19  22
ENDBRANCH   1  16
TORSDOF 6
ENDMDL
MODEL 4
REMARK VINA RESULT: -7.599130166      1.469      2.176
REMARK  6 active torsions:
REMARK  status: ('A' for Active; 'I' for Inactive)
REMARK    1  A    between atoms: C4_7  and  C5_8 
REMARK    2  A    between atoms: N3_11  and  C8_12 
REMARK    3  A    between atoms: C8_12  and  C9_13 
REMARK    4  A    between atoms: C9_13  and  N4_14 
REMARK       I    between atoms: N4_14  and  C10_16 
REMARK       I    between atoms: C10_16  and  N5_18 
REMARK    5  A    between atoms: N5_18  and  C11_20 
REMARK    6  A    between atoms: C15_24  and  O2_25 
ROOT
HETATM    1  C9  UNL     1      25.071   5.371  12.816  1.00  0.00     0.154 C 
ENDROOT
BRANCH   1   2
HETATM    2  C8  UNL     1      23.993   4.814  11.916  1.00  0.00     0.292 C 
BRANCH   2   3
HETATM    3  N3  UNL     1      23.154   5.924  11.493  1.00  0.00     0.090 N 
HETATM    4  C7  UNL     1      23.944   6.993  10.912  1.00  0.00     0.273 C 
HETATM    5  C6  UNL     1      24.187   6.726   9.443  1.00  0.00     0.041 C 
HETATM    6  C5  UNL     1      22.877   6.986   8.735  1.00  0.00     0.040 C 
HETATM    7  C18 UNL     1      21.700   6.515   9.586  1.00  0.00     0.041 C 
HETATM    8  C17 UNL     1      22.124   5.467  10.581  1.00  0.00     0.273 C 
BRANCH   6   9
HETATM    9  C4  UNL     1      22.834   6.336   7.402  1.00  0.00     0.031 A 
HETATM   10  N1  UNL     1      23.447   6.788   6.290  1.00  0.00    -0.349 N 
HETATM   11  C1  UNL     1      24.245   7.993   6.237  1.00  0.00     0.156 C 
HETATM   12  C2  UNL     1      23.201   5.956   5.261  1.00  0.00     0.182 A 
HETATM   13  N2  UNL     1      22.423   4.970   5.737  1.00  0.00    -0.360 N 
HETATM   14  C3  UNL     1      22.189   5.184   7.042  1.00  0.00     0.114 A 
ATOM     15  H2  UNL     1      22.067   4.183   5.194  1.00  0.00     0.166 HD
ENDBRANCH   6   9
ENDBRANCH   2   3
ENDBRANCH   1   2
BRANCH   1  16
HETATM   16  N4  UNL     1      24.824   4.929  14.167  1.00  0.00    -0.341 N 
HETATM   17  C10 UNL     1      25.105   5.749  15.280  1.00  0.00     0.316 C 
HETATM   18  O1  UNL     1      25.588   6.885  15.108  1.00  0.00    -0.247 OA
HETATM   19  N5  UNL     1      24.840   5.292  16.607  1.00  0.00    -0.338 N 
ATOM     20  H5  UNL     1      24.444   4.364  16.757  1.00  0.00     0.164 HD
ATOM     21  H4  UNL     1      24.435   3.998  14.321  1.00  0.00     0.164 HD
BRANCH  19  22
HETATM   22  C11 UNL     1      25.134   6.147  17.746  1.00  0.00     0.088 C 
HETATM   23  C12 UNL     1      23.947   6.071  18.676  1.00  0.00     0.025 C 
HETATM   24  C13 UNL     1      24.325   5.616  20.055  1.00  0.00     0.004 C 
HETATM   25  C14 UNL     1      25.500   6.398  20.594  1.00  0.00     0.032 C 
HETATM   26  C15 UNL     1      26.697   6.304  19.703  1.00  0.00     0.120 C 
HETATM   27  C16 UNL     1      26.403   5.642  18.380  1.00  0.00     0.057 C 
BRANCH  26  28
HETATM   28  O2  UNL     1      27.702   5.537  20.320  1.00  0.00    -0.396 OA
ATOM     29  H2  UNL     1      27.523   5.448  21.248  1.00  0.00     0.210 HD
ENDBRANCH  26  28
ENDBRANCH  19  22
ENDBRANCH   1  16
TORSDOF 6
ENDMDL
MODEL 5
REMARK VINA RESULT: -7.587820164      1.616      1.836
REMARK  6 active torsions:
REMARK  status: ('A' for Active; 'I' for Inactive)
REMARK    1  A    between atoms: C4_7  and  C5_8 
REMARK    2  A    between atoms: N3_11  and  C8_12 
REMARK    3  A    between atoms: C8_12  and  C9_13 
REMARK    4  A    between atoms: C9_13  and  N4_14 
REMARK       I    between atoms: N4_14  and  C10_16 
REMARK       I    between atoms: C10_16  and  N5_18 
REMARK    5  A    between atoms: N5_18  and  C11_20 
REMARK    6  A    between atoms: C15_24  and  O2_25 
ROOT
HETATM    1  C9  UNL     1      22.947   5.776  12.938  1.00  0.00     0.154 C 
ENDROOT
BRANCH   1   2
HETATM    2  C8  UNL     1      21.475   5.747  12.599  1.00  0.00     0.292 C 
BRANCH   2   3
HETATM    3  N3  UNL     1      21.346   5.270  11.231  1.00  0.00     0.090 N 
HETATM    4  C7  UNL     1      20.706   6.260  10.385  1.00  0.00     0.273 C 
HETATM    5  C6  UNL     1      21.730   7.240   9.858  1.00  0.00     0.041 C 
HETATM    6  C5  UNL     1      22.528   6.506   8.805  1.00  0.00     0.040 C 
HETATM    7  C18 UNL     1      22.754   5.052   9.214  1.00  0.00     0.041 C 
HETATM    8  C17 UNL     1      22.637   4.874  10.704  1.00  0.00     0.273 C 
BRANCH   6   9
HETATM    9  C4  UNL     1      23.830   7.169   8.541  1.00  0.00     0.031 A 
HETATM   10  N1  UNL     1      24.320   7.477   7.324  1.00  0.00    -0.349 N 
HETATM   11  C1  UNL     1      23.635   7.200   6.081  1.00  0.00     0.156 C 
HETATM   12  C2  UNL     1      25.520   8.071   7.451  1.00  0.00     0.182 A 
HETATM   13  N2  UNL     1      25.785   8.134   8.766  1.00  0.00    -0.360 N 
HETATM   14  C3  UNL     1      24.765   7.589   9.448  1.00  0.00     0.114 A 
ATOM     15  H2  UNL     1      26.627   8.534   9.181  1.00  0.00     0.166 HD
ENDBRANCH   6   9
ENDBRANCH   2   3
ENDBRANCH   1   2
BRANCH   1  16
HETATM   16  N4  UNL     1      23.122   5.318  14.295  1.00  0.00    -0.341 N 
HETATM   17  C10 UNL     1      23.849   6.068  15.244  1.00  0.00     0.316 C 
HETATM   18  O1  UNL     1      24.368   7.152  14.913  1.00  0.00    -0.247 OA
HETATM   19  N5  UNL     1      23.998   5.598  16.585  1.00  0.00    -0.338 N 
ATOM     20  H5  UNL     1      23.576   4.711  16.863  1.00  0.00     0.164 HD
ATOM     21  H4  UNL     1      22.708   4.429  14.576  1.00  0.00     0.164 HD
BRANCH  19  22
HETATM   22  C11 UNL     1      24.749   6.379  17.553  1.00  0.00     0.088 C 
HETATM   23  C12 UNL     1      23.781   6.795  18.635  1.00  0.00     0.025 C 
HETATM   24  C13 UNL     1      24.215   6.342  19.999  1.00  0.00     0.004 C 
HETATM   25  C14 UNL     1      25.657   6.702  20.269  1.00  0.00     0.032 C 
HETATM   26  C15 UNL     1      26.584   6.128  19.247  1.00  0.00     0.120 C 
HETATM   27  C16 UNL     1      25.865   5.512  18.072  1.00  0.00     0.057 C 
BRANCH  26  28
HETATM   28  O2  UNL     1      27.365   5.107  19.818  1.00  0.00    -0.396 OA
ATOM     29  H2  UNL     1      27.046   4.897  20.688  1.00  0.00     0.210 HD
ENDBRANCH  26  28
ENDBRANCH  19  22
ENDBRANCH   1  16
TORSDOF 6
ENDMDL
