MODEL 1
REMARK VINA RESULT: -8.470502372      0.000      0.000
REMARK  5 active torsions:
REMARK  status: ('A' for Active; 'I' for Inactive)
REMARK    1  A    between atoms: S1_2  and  C2_3 
REMARK    2  A    between atoms: C4_5  and  N1_6 
REMARK    3  A    between atoms: N1_6  and  N2_8 
REMARK    4  A    between atoms: N2_8  and  C5_10 
REMARK    5  A    between atoms: C12_22  and  N5_23 
ROOT
HETATM    1  N1  UNL     1      21.639   8.597  19.652  1.00  0.00    -0.300 N 
ATOM      2  H1  UNL     1      20.698   8.941  19.840  1.00  0.00     0.187 HD
ENDROOT
BRANCH   1   3
HETATM    3  C4  UNL     1      22.123   8.431  18.306  1.00  0.00     0.055 A 
HETATM    4  C3  UNL     1      23.081   7.491  17.998  1.00  0.00     0.052 A 
HETATM    5  C2  UNL     1      23.538   7.337  16.721  1.00  0.00     0.035 A 
HETATM    6  C12 UNL     1      23.055   8.121  15.694  1.00  0.00     0.120 A 
HETATM    7  C11 UNL     1      22.096   9.062  16.002  1.00  0.00     0.046 A 
HETATM    8  C9  UNL     1      21.629   9.224  17.290  1.00  0.00    -0.031 A 
HETATM    9  C10 UNL     1      20.592  10.253  17.581  1.00  0.00     0.050 C 
BRANCH   5  10
HETATM   10  S1  UNL     1      24.786   6.082  16.438  1.00  0.00    -0.132 SA
HETATM   11  C1  UNL     1      24.392   4.623  17.430  1.00  0.00     0.095 C 
ENDBRANCH   5  10
BRANCH   6  12
HETATM   12  N5  UNL     1      23.550   7.939  14.371  1.00  0.00    -0.114 N 
HETATM   13  O2  UNL     1      24.681   7.468  14.180  1.00  0.00    -0.532 OA
HETATM   14  O3  UNL     1      22.701   8.316  13.346  1.00  0.00    -0.532 OA
ENDBRANCH   6  12
ENDBRANCH   1   3
BRANCH   1  15
HETATM   15  N2  UNL     1      22.433   8.297  20.594  1.00  0.00    -0.293 N 
ATOM     16  H2  UNL     1      23.387   8.655  20.612  1.00  0.00     0.187 HD
BRANCH  15  17
HETATM   17  C5  UNL     1      21.950   7.448  21.622  1.00  0.00     0.141 A 
HETATM   18  C6  UNL     1      22.435   6.181  21.862  1.00  0.00     0.055 A 
HETATM   19  C7  UNL     1      23.517   5.455  21.133  1.00  0.00     0.072 C 
HETATM   20  N3  UNL     1      21.748   5.676  22.905  1.00  0.00    -0.300 N 
HETATM   21  N4  UNL     1      20.858   6.559  23.332  1.00  0.00    -0.264 N 
ATOM     22  H3  UNL     1      21.892   4.750  23.307  1.00  0.00     0.186 HD
HETATM   23  C8  UNL     1      20.962   7.664  22.557  1.00  0.00     0.289 A 
ATOM     24  H4  UNL     1      20.209   6.428  24.107  1.00  0.00     0.190 HD
HETATM   25  O1  UNL     1      20.274   8.708  22.671  1.00  0.00    -0.264 OA
ENDBRANCH  15  17
ENDBRANCH   1  15
TORSDOF 5
ENDMDL
MODEL 2
REMARK VINA RESULT: -8.383951045      3.388      5.254
REMARK  5 active torsions:
REMARK  status: ('A' for Active; 'I' for Inactive)
REMARK    1  A    between atoms: S1_2  and  C2_3 
REMARK    2  A    between atoms: C4_5  and  N1_6 
REMARK    3  A    between atoms: N1_6  and  N2_8 
REMARK    4  A    between atoms: N2_8  and  C5_10 
REMARK    5  A    between atoms: C12_22  and  N5_23 
ROOT
HETATM    1  N1  UNL     1      24.877   5.853  16.805  1.00  0.00    -0.300 N 
ATOM      2  H1  UNL     1      25.862   6.068  16.647  1.00  0.00     0.187 HD
ENDROOT
BRANCH   1   3
HETATM    3  C4  UNL     1      23.895   6.896  16.949  1.00  0.00     0.055 A 
HETATM    4  C3  UNL     1      23.316   7.174  18.168  1.00  0.00     0.052 A 
HETATM    5  C2  UNL     1      22.385   8.163  18.301  1.00  0.00     0.035 A 
HETATM    6  C12 UNL     1      21.991   8.919  17.216  1.00  0.00     0.120 A 
HETATM    7  C11 UNL     1      22.571   8.641  15.996  1.00  0.00     0.046 A 
HETATM    8  C9  UNL     1      23.512   7.643  15.854  1.00  0.00    -0.031 A 
HETATM    9  C10 UNL     1      24.114   7.374  14.518  1.00  0.00     0.050 C 
BRANCH   5  10
HETATM   10  S1  UNL     1      21.701   8.435  19.935  1.00  0.00    -0.132 SA
HETATM   11  C1  UNL     1      22.202   7.080  21.020  1.00  0.00     0.095 C 
ENDBRANCH   5  10
BRANCH   6  12
HETATM   12  N5  UNL     1      21.018   9.945  17.384  1.00  0.00    -0.114 N 
HETATM   13  O2  UNL     1      19.941   9.706  17.952  1.00  0.00    -0.532 OA
HETATM   14  O3  UNL     1      21.351  11.189  16.880  1.00  0.00    -0.532 OA
ENDBRANCH   6  12
ENDBRANCH   1   3
BRANCH   1  15
HETATM   15  N2  UNL     1      24.467   4.656  16.884  1.00  0.00    -0.293 N 
ATOM     16  H2  UNL     1      23.756   4.300  16.245  1.00  0.00     0.187 HD
BRANCH  15  17
HETATM   17  C5  UNL     1      25.029   3.827  17.886  1.00  0.00     0.141 A 
HETATM   18  C6  UNL     1      24.356   3.432  19.023  1.00  0.00     0.055 A 
HETATM   19  C7  UNL     1      22.960   3.770  19.431  1.00  0.00     0.072 C 
HETATM   20  N3  UNL     1      25.193   2.657  19.739  1.00  0.00    -0.300 N 
HETATM   21  N4  UNL     1      26.354   2.545  19.114  1.00  0.00    -0.264 N 
ATOM     22  H3  UNL     1      24.965   2.221  20.632  1.00  0.00     0.186 HD
HETATM   23  C8  UNL     1      26.281   3.258  17.966  1.00  0.00     0.289 A 
ATOM     24  H4  UNL     1      27.163   2.016  19.441  1.00  0.00     0.190 HD
HETATM   25  O1  UNL     1      27.198   3.380  17.117  1.00  0.00    -0.264 OA
ENDBRANCH  15  17
ENDBRANCH   1  15
TORSDOF 5
ENDMDL
MODEL 3
REMARK VINA RESULT: -8.312060013      3.517      7.364
REMARK  5 active torsions:
REMARK  status: ('A' for Active; 'I' for Inactive)
REMARK    1  A    between atoms: S1_2  and  C2_3 
REMARK    2  A    between atoms: C4_5  and  N1_6 
REMARK    3  A    between atoms: N1_6  and  N2_8 
REMARK    4  A    between atoms: N2_8  and  C5_10 
REMARK    5  A    between atoms: C12_22  and  N5_23 
ROOT
HETATM    1  N1  UNL     1      21.654   8.507  21.435  1.00  0.00    -0.300 N 
ATOM      2  H1  UNL     1      21.809   9.510  21.540  1.00  0.00     0.187 HD
ENDROOT
BRANCH   1   3
HETATM    3  C4  UNL     1      21.148   7.708  22.520  1.00  0.00     0.055 A 
HETATM    4  C3  UNL     1      21.203   6.332  22.485  1.00  0.00     0.052 A 
HETATM    5  C2  UNL     1      20.721   5.577  23.516  1.00  0.00     0.035 A 
HETATM    6  C12 UNL     1      20.162   6.169  24.629  1.00  0.00     0.120 A 
HETATM    7  C11 UNL     1      20.107   7.546  24.665  1.00  0.00     0.046 A 
HETATM    8  C9  UNL     1      20.591   8.315  23.628  1.00  0.00    -0.031 A 
HETATM    9  C10 UNL     1      20.513   9.801  23.704  1.00  0.00     0.050 C 
BRANCH   5  10
HETATM   10  S1  UNL     1      20.846   3.796  23.361  1.00  0.00    -0.132 SA
HETATM   11  C1  UNL     1      21.363   3.384  21.678  1.00  0.00     0.095 C 
ENDBRANCH   5  10
BRANCH   6  12
HETATM   12  N5  UNL     1      19.668   5.357  25.690  1.00  0.00    -0.114 N 
HETATM   13  O2  UNL     1      18.474   5.023  25.725  1.00  0.00    -0.532 OA
HETATM   14  O3  UNL     1      20.590   4.981  26.650  1.00  0.00    -0.532 OA
ENDBRANCH   6  12
ENDBRANCH   1   3
BRANCH   1  15
HETATM   15  N2  UNL     1      21.898   7.912  20.342  1.00  0.00    -0.293 N 
ATOM     16  H2  UNL     1      22.327   6.987  20.332  1.00  0.00     0.187 HD
BRANCH  15  17
HETATM   17  C5  UNL     1      21.556   8.574  19.137  1.00  0.00     0.141 A 
HETATM   18  C6  UNL     1      22.277   8.462  17.968  1.00  0.00     0.055 A 
HETATM   19  C7  UNL     1      23.514   7.662  17.721  1.00  0.00     0.072 C 
HETATM   20  N3  UNL     1      21.663   9.220  17.039  1.00  0.00    -0.300 N 
HETATM   21  N4  UNL     1      20.596   9.802  17.563  1.00  0.00    -0.264 N 
ATOM     22  H3  UNL     1      21.975   9.329  16.074  1.00  0.00     0.186 HD
HETATM   23  C8  UNL     1      20.505   9.420  18.858  1.00  0.00     0.289 A 
ATOM     24  H4  UNL     1      19.956  10.429  17.076  1.00  0.00     0.190 HD
HETATM   25  O1  UNL     1      19.615   9.776  19.669  1.00  0.00    -0.264 OA
ENDBRANCH  15  17
ENDBRANCH   1  15
TORSDOF 5
ENDMDL
MODEL 4
REMARK VINA RESULT: -8.308543031      5.322      7.483
REMARK  5 active torsions:
REMARK  status: ('A' for Active; 'I' for Inactive)
REMARK    1  A    between atoms: S1_2  and  C2_3 
REMARK    2  A    between atoms: C4_5  and  N1_6 
REMARK    3  A    between atoms: N1_6  and  N2_8 
REMARK    4  A    between atoms: N2_8  and  C5_10 
REMARK    5  A    between atoms: C12_22  and  N5_23 
ROOT
HETATM    1  N1  UNL     1      21.876   5.697  21.696  1.00  0.00    -0.300 N 
ATOM      2  H1  UNL     1      21.855   5.794  20.681  1.00  0.00     0.187 HD
ENDROOT
BRANCH   1   3
HETATM    3  C4  UNL     1      21.336   6.715  22.559  1.00  0.00     0.055 A 
HETATM    4  C3  UNL     1      20.857   6.411  23.815  1.00  0.00     0.052 A 
HETATM    5  C2  UNL     1      20.345   7.379  24.630  1.00  0.00     0.035 A 
HETATM    6  C12 UNL     1      20.288   8.696  24.223  1.00  0.00     0.120 A 
HETATM    7  C11 UNL     1      20.768   8.999  22.966  1.00  0.00     0.046 A 
HETATM    8  C9  UNL     1      21.287   8.028  22.136  1.00  0.00    -0.031 A 
HETATM    9  C10 UNL     1      21.795   8.397  20.785  1.00  0.00     0.050 C 
BRANCH   5  10
HETATM   10  S1  UNL     1      19.751   6.868  26.242  1.00  0.00    -0.132 SA
HETATM   11  C1  UNL     1      21.152   6.746  27.377  1.00  0.00     0.095 C 
ENDBRANCH   5  10
BRANCH   6  12
HETATM   12  N5  UNL     1      19.749   9.684  25.094  1.00  0.00    -0.114 N 
HETATM   13  O2  UNL     1      18.528   9.897  25.127  1.00  0.00    -0.532 OA
HETATM   14  O3  UNL     1      20.661  10.369  25.877  1.00  0.00    -0.532 OA
ENDBRANCH   6  12
ENDBRANCH   1   3
BRANCH   1  15
HETATM   15  N2  UNL     1      22.379   4.674  22.250  1.00  0.00    -0.293 N 
ATOM     16  H2  UNL     1      23.074   4.765  22.991  1.00  0.00     0.187 HD
BRANCH  15  17
HETATM   17  C5  UNL     1      21.945   3.399  21.808  1.00  0.00     0.141 A 
HETATM   18  C6  UNL     1      22.730   2.529  21.084  1.00  0.00     0.055 A 
HETATM   19  C7  UNL     1      24.139   2.721  20.627  1.00  0.00     0.072 C 
HETATM   20  N3  UNL     1      21.995   1.426  20.844  1.00  0.00    -0.300 N 
HETATM   21  N4  UNL     1      20.791   1.558  21.377  1.00  0.00    -0.264 N 
ATOM     22  H3  UNL     1      22.319   0.609  20.327  1.00  0.00     0.186 HD
HETATM   23  C8  UNL     1      20.732   2.768  21.980  1.00  0.00     0.289 A 
ATOM     24  H4  UNL     1      20.040   0.869  21.339  1.00  0.00     0.190 HD
HETATM   25  O1  UNL     1      19.741   3.237  22.593  1.00  0.00    -0.264 OA
ENDBRANCH  15  17
ENDBRANCH   1  15
TORSDOF 5
ENDMDL
MODEL 5
REMARK VINA RESULT: -8.271876963      3.195      7.829
REMARK  5 active torsions:
REMARK  status: ('A' for Active; 'I' for Inactive)
REMARK    1  A    between atoms: S1_2  and  C2_3 
REMARK    2  A    between atoms: C4_5  and  N1_6 
REMARK    3  A    between atoms: N1_6  and  N2_8 
REMARK    4  A    between atoms: N2_8  and  C5_10 
REMARK    5  A    between atoms: C12_22  and  N5_23 
ROOT
HETATM    1  N1  UNL     1      22.091   8.415  20.494  1.00  0.00    -0.300 N 
ATOM      2  H1  UNL     1      23.085   8.611  20.381  1.00  0.00     0.187 HD
ENDROOT
BRANCH   1   3
HETATM    3  C4  UNL     1      21.573   7.836  21.706  1.00  0.00     0.055 A 
HETATM    4  C3  UNL     1      20.762   8.556  22.556  1.00  0.00     0.052 A 
HETATM    5  C2  UNL     1      20.273   8.005  23.705  1.00  0.00     0.035 A 
HETATM    6  C12 UNL     1      20.576   6.706  24.055  1.00  0.00     0.120 A 
HETATM    7  C11 UNL     1      21.387   5.985  23.204  1.00  0.00     0.046 A 
HETATM    8  C9  UNL     1      21.885   6.534  22.042  1.00  0.00    -0.031 A 
HETATM    9  C10 UNL     1      22.759   5.722  21.149  1.00  0.00     0.050 C 
BRANCH   5  10
HETATM   10  S1  UNL     1      19.228   9.036  24.733  1.00  0.00    -0.132 SA
HETATM   11  C1  UNL     1      20.168   9.575  26.180  1.00  0.00     0.095 C 
ENDBRANCH   5  10
BRANCH   6  12
HETATM   12  N5  UNL     1      20.052   6.156  25.259  1.00  0.00    -0.114 N 
HETATM   13  O2  UNL     1      18.907   5.681  25.290  1.00  0.00    -0.532 OA
HETATM   14  O3  UNL     1      20.889   6.191  26.360  1.00  0.00    -0.532 OA
ENDBRANCH   6  12
ENDBRANCH   1   3
BRANCH   1  15
HETATM   15  N2  UNL     1      21.259   8.669  19.571  1.00  0.00    -0.293 N 
ATOM     16  H2  UNL     1      20.263   8.762  19.772  1.00  0.00     0.187 HD
BRANCH  15  17
HETATM   17  C5  UNL     1      21.757   8.822  18.253  1.00  0.00     0.141 A 
HETATM   18  C6  UNL     1      21.228   9.697  17.329  1.00  0.00     0.055 A 
HETATM   19  C7  UNL     1      20.075  10.630  17.498  1.00  0.00     0.072 C 
HETATM   20  N3  UNL     1      21.949   9.574  16.198  1.00  0.00    -0.300 N 
HETATM   21  N4  UNL     1      22.900   8.668  16.362  1.00  0.00    -0.264 N 
ATOM     22  H3  UNL     1      21.785  10.101  15.340  1.00  0.00     0.186 HD
HETATM   23  C8  UNL     1      22.806   8.187  17.624  1.00  0.00     0.289 A 
ATOM     24  H4  UNL     1      23.584   8.383  15.661  1.00  0.00     0.190 HD
HETATM   25  O1  UNL     1      23.547   7.312  18.134  1.00  0.00    -0.264 OA
ENDBRANCH  15  17
ENDBRANCH   1  15
TORSDOF 5
ENDMDL
