MODEL 1
REMARK VINA RESULT: -7.235437295      0.000      0.000
REMARK  7 active torsions:
REMARK  status: ('A' for Active; 'I' for Inactive)
REMARK    1  A    between atoms: C2_2  and  C3_4 
REMARK    2  A    between atoms: C6_9  and  C7_10 
REMARK    3  A    between atoms: C9_14  and  C10_15 
REMARK    4  A    between atoms: C10_15  and  C11_17 
REMARK    5  A    between atoms: C11_17  and  C12_18 
REMARK    6  A    between atoms: C15_21  and  O5_22 
REMARK    7  A    between atoms: C16_24  and  O6_25 
ROOT
HETATM    1  C7  UNL     1      25.931   0.234  18.618  1.00  0.00     0.133 A 
HETATM    2  O2  UNL     1      26.436   0.873  19.645  1.00  0.00    -0.270 OA
HETATM    3  C8  UNL     1      25.910   1.920  20.178  1.00  0.00     0.305 A 
HETATM    4  O3  UNL     1      26.425   2.520  21.178  1.00  0.00    -0.259 OA
HETATM    5  C9  UNL     1      24.729   2.450  19.673  1.00  0.00     0.121 A 
HETATM    6  C15 UNL     1      24.133   1.826  18.583  1.00  0.00     0.121 A 
HETATM    7  C16 UNL     1      24.771   0.697  18.064  1.00  0.00     0.136 A 
ENDROOT
BRANCH   1   8
HETATM    8  C6  UNL     1      26.615  -0.952  18.067  1.00  0.00     0.057 A 
HETATM    9  C3  UNL     1      27.722  -1.136  17.306  1.00  0.00     0.031 A 
HETATM   10  C4  UNL     1      28.181  -2.419  17.187  1.00  0.00     0.048 A 
HETATM   11  C5  UNL     1      27.500  -3.401  17.822  1.00  0.00     0.076 A 
HETATM   12 CL1  UNL     1      27.851  -5.140  17.848  1.00  0.00    -0.076 Cl
HETATM   13  S1  UNL     1      26.240  -2.584  18.581  1.00  0.00    -0.074 SA
BRANCH   9  14
HETATM   14  C2  UNL     1      28.303  -0.079  16.429  1.00  0.00     0.157 C 
HETATM   15  C1  UNL     1      27.570   0.570  15.344  1.00  0.00     0.097 C 
HETATM   16  O1  UNL     1      29.492   0.281  16.602  1.00  0.00    -0.293 OA
ENDBRANCH   9  14
ENDBRANCH   1   8
BRANCH   7  17
HETATM   17  O6  UNL     1      24.243   0.047  16.981  1.00  0.00    -0.356 OA
ATOM     18  H6  UNL     1      23.892   0.558  16.261  1.00  0.00     0.218 HD
ENDBRANCH   7  17
BRANCH   6  19
HETATM   19  O5  UNL     1      22.965   2.331  18.063  1.00  0.00    -0.357 OA
ATOM     20  H5  UNL     1      22.992   2.883  17.290  1.00  0.00     0.218 HD
ENDBRANCH   6  19
BRANCH   5  21
HETATM   21  C10 UNL     1      24.155   3.621  20.292  1.00  0.00     0.168 C 
HETATM   22  O4  UNL     1      24.264   4.749  19.701  1.00  0.00    -0.292 OA
BRANCH  21  23
HETATM   23  C11 UNL     1      23.441   3.625  21.564  1.00  0.00     0.088 C 
BRANCH  23  24
HETATM   24  C12 UNL     1      21.936   3.486  21.375  1.00  0.00    -0.015 C 
HETATM   25  C13 UNL     1      21.558   2.035  21.489  1.00  0.00     0.010 C 
HETATM   26  C14 UNL     1      21.255   4.223  22.527  1.00  0.00     0.010 C 
ENDBRANCH  23  24
ENDBRANCH  21  23
ENDBRANCH   5  21
TORSDOF 7
ENDMDL
MODEL 2
REMARK VINA RESULT: -7.220344839      2.885      6.544
REMARK  7 active torsions:
REMARK  status: ('A' for Active; 'I' for Inactive)
REMARK    1  A    between atoms: C2_2  and  C3_4 
REMARK    2  A    between atoms: C6_9  and  C7_10 
REMARK    3  A    between atoms: C9_14  and  C10_15 
REMARK    4  A    between atoms: C10_15  and  C11_17 
REMARK    5  A    between atoms: C11_17  and  C12_18 
REMARK    6  A    between atoms: C15_21  and  O5_22 
REMARK    7  A    between atoms: C16_24  and  O6_25 
ROOT
HETATM    1  C7  UNL     1      25.801   1.532  19.480  1.00  0.00     0.133 A 
HETATM    2  O2  UNL     1      26.957   2.149  19.504  1.00  0.00    -0.270 OA
HETATM    3  C8  UNL     1      27.870   2.015  18.606  1.00  0.00     0.305 A 
HETATM    4  O3  UNL     1      28.987   2.630  18.657  1.00  0.00    -0.259 OA
HETATM    5  C9  UNL     1      27.672   1.173  17.519  1.00  0.00     0.121 A 
HETATM    6  C15 UNL     1      26.469   0.482  17.425  1.00  0.00     0.121 A 
HETATM    7  C16 UNL     1      25.533   0.685  18.442  1.00  0.00     0.136 A 
ENDROOT
BRANCH   1   8
HETATM    8  C6  UNL     1      24.821   1.740  20.562  1.00  0.00     0.057 A 
HETATM    9  C3  UNL     1      23.756   2.563  20.727  1.00  0.00     0.031 A 
HETATM   10  C4  UNL     1      22.935   2.300  21.789  1.00  0.00     0.048 A 
HETATM   11  C5  UNL     1      23.245   1.257  22.594  1.00  0.00     0.076 A 
HETATM   12 CL1  UNL     1      22.379   0.684  24.032  1.00  0.00    -0.076 Cl
HETATM   13  S1  UNL     1      24.649   0.632  21.908  1.00  0.00    -0.074 SA
BRANCH   9  14
HETATM   14  C2  UNL     1      23.577   3.839  19.977  1.00  0.00     0.157 C 
HETATM   15  C1  UNL     1      23.527   5.155  20.611  1.00  0.00     0.097 C 
HETATM   16  O1  UNL     1      23.446   3.807  18.730  1.00  0.00    -0.293 OA
ENDBRANCH   9  14
ENDBRANCH   1   8
BRANCH   7  17
HETATM   17  O6  UNL     1      24.336   0.022  18.414  1.00  0.00    -0.356 OA
ATOM     18  H6  UNL     1      23.692   0.257  17.755  1.00  0.00     0.218 HD
ENDBRANCH   7  17
BRANCH   6  19
HETATM   19  O5  UNL     1      26.247  -0.357  16.359  1.00  0.00    -0.357 OA
ATOM     20  H5  UNL     1      25.358  -0.594  16.122  1.00  0.00     0.218 HD
ENDBRANCH   6  19
BRANCH   5  21
HETATM   21  C10 UNL     1      28.709   1.043  16.523  1.00  0.00     0.168 C 
HETATM   22  O4  UNL     1      29.421  -0.018  16.507  1.00  0.00    -0.292 OA
BRANCH  21  23
HETATM   23  C11 UNL     1      29.018   2.043  15.508  1.00  0.00     0.088 C 
BRANCH  23  24
HETATM   24  C12 UNL     1      27.761   2.570  14.825  1.00  0.00    -0.015 C 
HETATM   25  C13 UNL     1      27.996   3.992  14.394  1.00  0.00     0.010 C 
HETATM   26  C14 UNL     1      27.542   1.744  13.558  1.00  0.00     0.010 C 
ENDBRANCH  23  24
ENDBRANCH  21  23
ENDBRANCH   5  21
TORSDOF 7
ENDMDL
MODEL 3
REMARK VINA RESULT: -7.193099599      2.847      6.810
REMARK  7 active torsions:
REMARK  status: ('A' for Active; 'I' for Inactive)
REMARK    1  A    between atoms: C2_2  and  C3_4 
REMARK    2  A    between atoms: C6_9  and  C7_10 
REMARK    3  A    between atoms: C9_14  and  C10_15 
REMARK    4  A    between atoms: C10_15  and  C11_17 
REMARK    5  A    between atoms: C11_17  and  C12_18 
REMARK    6  A    between atoms: C15_21  and  O5_22 
REMARK    7  A    between atoms: C16_24  and  O6_25 
ROOT
HETATM    1  C7  UNL     1      25.852   1.342  19.428  1.00  0.00     0.133 A 
HETATM    2  O2  UNL     1      25.536   0.538  18.442  1.00  0.00    -0.270 OA
HETATM    3  C8  UNL     1      26.300   0.287  17.437  1.00  0.00     0.305 A 
HETATM    4  O3  UNL     1      25.964  -0.502  16.492  1.00  0.00    -0.259 OA
HETATM    5  C9  UNL     1      27.553   0.878  17.339  1.00  0.00     0.121 A 
HETATM    6  C15 UNL     1      27.959   1.746  18.347  1.00  0.00     0.121 A 
HETATM    7  C16 UNL     1      27.069   1.964  19.400  1.00  0.00     0.136 A 
ENDROOT
BRANCH   1   8
HETATM    8  C6  UNL     1      24.903   1.579  20.532  1.00  0.00     0.057 A 
HETATM    9  C3  UNL     1      23.863   2.428  20.719  1.00  0.00     0.031 A 
HETATM   10  C4  UNL     1      23.062   2.190  21.802  1.00  0.00     0.048 A 
HETATM   11  C5  UNL     1      23.365   1.143  22.603  1.00  0.00     0.076 A 
HETATM   12 CL1  UNL     1      22.520   0.597  24.064  1.00  0.00    -0.076 Cl
HETATM   13  S1  UNL     1      24.737   0.481  21.887  1.00  0.00    -0.074 SA
BRANCH   9  14
HETATM   14  C2  UNL     1      23.698   3.705  19.967  1.00  0.00     0.157 C 
HETATM   15  C1  UNL     1      23.736   5.027  20.590  1.00  0.00     0.097 C 
HETATM   16  O1  UNL     1      23.500   3.670  18.729  1.00  0.00    -0.293 OA
ENDBRANCH   9  14
ENDBRANCH   1   8
BRANCH   7  17
HETATM   17  O6  UNL     1      27.404   2.819  20.416  1.00  0.00    -0.356 OA
ATOM     18  H6  UNL     1      27.859   3.627  20.209  1.00  0.00     0.218 HD
ENDBRANCH   7  17
BRANCH   6  19
HETATM   19  O5  UNL     1      29.195   2.345  18.274  1.00  0.00    -0.357 OA
ATOM     20  H5  UNL     1      29.334   3.190  18.685  1.00  0.00     0.218 HD
ENDBRANCH   6  19
BRANCH   5  21
HETATM   21  C10 UNL     1      28.394   0.577  16.204  1.00  0.00     0.168 C 
HETATM   22  O4  UNL     1      29.537   0.043  16.406  1.00  0.00    -0.292 OA
BRANCH  21  23
HETATM   23  C11 UNL     1      28.038   0.835  14.814  1.00  0.00     0.088 C 
BRANCH  23  24
HETATM   24  C12 UNL     1      27.728   2.307  14.567  1.00  0.00    -0.015 C 
HETATM   25  C13 UNL     1      28.994   3.106  14.709  1.00  0.00     0.010 C 
HETATM   26  C14 UNL     1      27.266   2.445  13.117  1.00  0.00     0.010 C 
ENDBRANCH  23  24
ENDBRANCH  21  23
ENDBRANCH   5  21
TORSDOF 7
ENDMDL
MODEL 4
REMARK VINA RESULT: -7.171545818      5.075      6.853
REMARK  7 active torsions:
REMARK  status: ('A' for Active; 'I' for Inactive)
REMARK    1  A    between atoms: C2_2  and  C3_4 
REMARK    2  A    between atoms: C6_9  and  C7_10 
REMARK    3  A    between atoms: C9_14  and  C10_15 
REMARK    4  A    between atoms: C10_15  and  C11_17 
REMARK    5  A    between atoms: C11_17  and  C12_18 
REMARK    6  A    between atoms: C15_21  and  O5_22 
REMARK    7  A    between atoms: C16_24  and  O6_25 
ROOT
HETATM    1  C7  UNL     1      27.821   1.123  14.578  1.00  0.00     0.133 A 
HETATM    2  O2  UNL     1      28.647   0.536  15.410  1.00  0.00    -0.270 OA
HETATM    3  C8  UNL     1      28.411  -0.586  15.995  1.00  0.00     0.305 A 
HETATM    4  O3  UNL     1      29.235  -1.134  16.800  1.00  0.00    -0.259 OA
HETATM    5  C9  UNL     1      27.219  -1.263  15.769  1.00  0.00     0.121 A 
HETATM    6  C15 UNL     1      26.291  -0.701  14.899  1.00  0.00     0.121 A 
HETATM    7  C16 UNL     1      26.626   0.519  14.307  1.00  0.00     0.136 A 
ENDROOT
BRANCH   1   8
HETATM    8  C6  UNL     1      28.174   2.417  13.964  1.00  0.00     0.057 A 
HETATM    9  C3  UNL     1      28.468   2.815  12.702  1.00  0.00     0.031 A 
HETATM   10  C4  UNL     1      28.518   4.164  12.478  1.00  0.00     0.048 A 
HETATM   11  C5  UNL     1      28.284   4.993  13.522  1.00  0.00     0.076 A 
HETATM   12 CL1  UNL     1      28.283   6.767  13.536  1.00  0.00    -0.076 Cl
HETATM   13  S1  UNL     1      27.993   3.943  14.804  1.00  0.00    -0.074 SA
BRANCH   9  14
HETATM   14  C2  UNL     1      28.958   1.890  11.640  1.00  0.00     0.157 C 
HETATM   15  C1  UNL     1      28.190   0.755  11.133  1.00  0.00     0.097 C 
HETATM   16  O1  UNL     1      30.097   2.067  11.146  1.00  0.00    -0.293 OA
ENDBRANCH   9  14
ENDBRANCH   1   8
BRANCH   7  17
HETATM   17  O6  UNL     1      25.748   1.130  13.452  1.00  0.00    -0.356 OA
ATOM     18  H6  UNL     1      25.045   0.620  13.067  1.00  0.00     0.218 HD
ENDBRANCH   7  17
BRANCH   6  19
HETATM   19  O5  UNL     1      25.103  -1.350  14.657  1.00  0.00    -0.357 OA
ATOM     20  H5  UNL     1      24.738  -1.354  13.780  1.00  0.00     0.218 HD
ENDBRANCH   6  19
BRANCH   5  21
HETATM   21  C10 UNL     1      26.979  -2.522  16.434  1.00  0.00     0.168 C 
HETATM   22  O4  UNL     1      26.881  -3.584  15.731  1.00  0.00    -0.292 OA
BRANCH  21  23
HETATM   23  C11 UNL     1      26.838  -2.686  17.876  1.00  0.00     0.088 C 
BRANCH  23  24
HETATM   24  C12 UNL     1      25.693  -1.852  18.438  1.00  0.00    -0.015 C 
HETATM   25  C13 UNL     1      24.856  -2.712  19.344  1.00  0.00     0.010 C 
HETATM   26  C14 UNL     1      26.304  -0.748  19.298  1.00  0.00     0.010 C 
ENDBRANCH  23  24
ENDBRANCH  21  23
ENDBRANCH   5  21
TORSDOF 7
ENDMDL
MODEL 5
REMARK VINA RESULT: -7.143879163      2.819      6.826
REMARK  7 active torsions:
REMARK  status: ('A' for Active; 'I' for Inactive)
REMARK    1  A    between atoms: C2_2  and  C3_4 
REMARK    2  A    between atoms: C6_9  and  C7_10 
REMARK    3  A    between atoms: C9_14  and  C10_15 
REMARK    4  A    between atoms: C10_15  and  C11_17 
REMARK    5  A    between atoms: C11_17  and  C12_18 
REMARK    6  A    between atoms: C15_21  and  O5_22 
REMARK    7  A    between atoms: C16_24  and  O6_25 
ROOT
HETATM    1  C7  UNL     1      25.756   0.364  18.125  1.00  0.00     0.133 A 
HETATM    2  O2  UNL     1      27.015   0.531  17.799  1.00  0.00    -0.270 OA
HETATM    3  C8  UNL     1      27.494   0.317  16.623  1.00  0.00     0.305 A 
HETATM    4  O3  UNL     1      28.725   0.489  16.336  1.00  0.00    -0.259 OA
HETATM    5  C9  UNL     1      26.669  -0.121  15.595  1.00  0.00     0.121 A 
HETATM    6  C15 UNL     1      25.320  -0.322  15.864  1.00  0.00     0.121 A 
HETATM    7  C16 UNL     1      24.883  -0.068  17.167  1.00  0.00     0.136 A 
ENDROOT
BRANCH   1   8
HETATM    8  C6  UNL     1      25.302   0.623  19.504  1.00  0.00     0.057 A 
HETATM    9  C3  UNL     1      24.554   1.592  20.087  1.00  0.00     0.031 A 
HETATM   10  C4  UNL     1      24.145   1.365  21.372  1.00  0.00     0.048 A 
HETATM   11  C5  UNL     1      24.519   0.208  21.966  1.00  0.00     0.076 A 
HETATM   12 CL1  UNL     1      24.147  -0.356  23.607  1.00  0.00    -0.076 Cl
HETATM   13  S1  UNL     1      25.423  -0.572  20.780  1.00  0.00    -0.074 SA
BRANCH   9  14
HETATM   14  C2  UNL     1      24.364   2.949  19.500  1.00  0.00     0.157 C 
HETATM   15  C1  UNL     1      23.081   3.649  19.466  1.00  0.00     0.097 C 
HETATM   16  O1  UNL     1      25.344   3.541  18.988  1.00  0.00    -0.293 OA
ENDBRANCH   9  14
ENDBRANCH   1   8
BRANCH   7  17
HETATM   17  O6  UNL     1      23.569  -0.261  17.499  1.00  0.00    -0.356 OA
ATOM     18  H6  UNL     1      23.140  -1.068  17.240  1.00  0.00     0.218 HD
ENDBRANCH   7  17
BRANCH   6  19
HETATM   19  O5  UNL     1      24.482  -0.755  14.864  1.00  0.00    -0.357 OA
ATOM     20  H5  UNL     1      23.922  -1.508  15.011  1.00  0.00     0.218 HD
ENDBRANCH   6  19
BRANCH   5  21
HETATM   21  C10 UNL     1      27.229  -0.349  14.284  1.00  0.00     0.168 C 
HETATM   22  O4  UNL     1      27.491  -1.546  13.923  1.00  0.00    -0.292 OA
BRANCH  21  23
HETATM   23  C11 UNL     1      27.525   0.698  13.312  1.00  0.00     0.088 C 
BRANCH  23  24
HETATM   24  C12 UNL     1      27.298   0.230  11.880  1.00  0.00    -0.015 C 
HETATM   25  C13 UNL     1      26.004   0.804  11.375  1.00  0.00     0.010 C 
HETATM   26  C14 UNL     1      28.418   0.812  11.019  1.00  0.00     0.010 C 
ENDBRANCH  23  24
ENDBRANCH  21  23
ENDBRANCH   5  21
TORSDOF 7
ENDMDL
