MODEL 1
REMARK VINA RESULT: -9.946137102      0.000      0.000
REMARK  10 active torsions:
REMARK  status: ('A' for Active; 'I' for Inactive)
REMARK    1  A    between atoms: C2_2  and  C4_4 
REMARK    2  A    between atoms: C4_4  and  C5_5 
REMARK    3  A    between atoms: C5_5  and  C6_6 
REMARK    4  A    between atoms: C5_5  and  N2_16 
REMARK    5  A    between atoms: C6_6  and  N1_7 
REMARK       I    between atoms: N2_16  and  C15_18 
REMARK    6  A    between atoms: C15_18  and  C16_20 
REMARK    7  A    between atoms: C19_23  and  C20_24 
REMARK       I    between atoms: C20_24  and  N3_26 
REMARK    8  A    between atoms: N3_26  and  C21_28 
REMARK    9  A    between atoms: C25_32  and  C26_33 
REMARK       I    between atoms: N4_36  and  C27_37 
REMARK   10  A    between atoms: C27_37  and  C28_39 
ROOT
HETATM    1  C16 UNL     1     -14.952  19.305  -6.029  1.00  0.00     0.180 C 
HETATM    2  C17 UNL     1     -14.012  19.900  -5.010  1.00  0.00     0.037 C 
HETATM    3  C18 UNL     1     -13.426  21.100  -5.726  1.00  0.00     0.037 C 
HETATM    4  C19 UNL     1     -14.574  21.514  -6.657  1.00  0.00     0.180 C 
HETATM    5  N4  UNL     1     -15.144  20.257  -7.058  1.00  0.00    -0.323 N 
HETATM    6  C27 UNL     1     -15.745  20.088  -8.348  1.00  0.00     0.255 C 
HETATM    7  O5  UNL     1     -15.805  21.129  -9.085  1.00  0.00    -0.271 OA
ENDROOT
BRANCH   1   8
HETATM    8  C15 UNL     1     -16.156  18.800  -5.341  1.00  0.00     0.245 C 
HETATM    9  N2  UNL     1     -17.189  19.704  -5.002  1.00  0.00    -0.324 N 
ATOM     10  H2  UNL     1     -17.068  20.687  -5.244  1.00  0.00     0.169 HD
HETATM   11  O1  UNL     1     -16.261  17.583  -5.064  1.00  0.00    -0.271 OA
BRANCH   9  12
HETATM   12  C5  UNL     1     -18.424  19.304  -4.320  1.00  0.00     0.046 C 
BRANCH  12  13
HETATM   13  C4  UNL     1     -18.618  19.938  -3.024  1.00  0.00     0.008 C 
BRANCH  13  14
HETATM   14  C2  UNL     1     -19.112  19.209  -1.854  1.00  0.00     0.002 C 
HETATM   15  C1  UNL     1     -20.466  18.610  -1.881  1.00  0.00     0.013 C 
HETATM   16  C3  UNL     1     -18.142  18.017  -1.675  1.00  0.00     0.013 C 
ENDBRANCH  13  14
ENDBRANCH  12  13
BRANCH  12  17
HETATM   17  C6  UNL     1     -19.554  19.208  -5.300  1.00  0.00     0.119 C 
BRANCH  17  18
HETATM   18  N1  UNL     1     -20.145  17.994  -5.565  1.00  0.00    -0.367 N 
HETATM   19  C7  UNL     1     -21.537  17.801  -5.339  1.00  0.00     0.133 C 
HETATM   20  C8  UNL     1     -21.899  16.609  -6.266  1.00  0.00     0.013 C 
HETATM   21  C9  UNL     1     -22.250  17.178  -7.591  1.00  0.00     0.007 C 
HETATM   22  C13 UNL     1     -20.653  15.796  -6.226  1.00  0.00     0.030 C 
HETATM   23  C10 UNL     1     -21.332  16.756  -8.711  1.00  0.00     0.000 C 
HETATM   24  C11 UNL     1     -21.176  15.251  -8.618  1.00  0.00     0.001 C 
HETATM   25  C12 UNL     1     -20.328  14.976  -7.404  1.00  0.00     0.010 C 
HETATM   26  C14 UNL     1     -19.549  16.814  -5.964  1.00  0.00     0.068 C 
ENDBRANCH  17  18
ENDBRANCH  12  17
ENDBRANCH   9  12
ENDBRANCH   1   8
BRANCH   4  27
HETATM   27  C20 UNL     1     -15.427  22.439  -5.930  1.00  0.00     0.241 C 
HETATM   28  O2  UNL     1     -16.662  22.530  -5.932  1.00  0.00    -0.271 OA
HETATM   29  N3  UNL     1     -14.746  23.390  -5.083  1.00  0.00    -0.354 N 
ATOM     30  H3  UNL     1     -13.728  23.365  -5.043  1.00  0.00     0.162 HD
BRANCH  29  31
HETATM   31  C21 UNL     1     -15.445  24.376  -4.288  1.00  0.00     0.098 C 
HETATM   32  C22 UNL     1     -14.609  25.649  -4.138  1.00  0.00     0.026 C 
HETATM   33  C23 UNL     1     -13.476  25.187  -3.243  1.00  0.00     0.003 C 
HETATM   34  C24 UNL     1     -14.104  24.213  -2.286  1.00  0.00     0.017 C 
HETATM   35  C25 UNL     1     -15.507  23.946  -2.828  1.00  0.00     0.109 C 
BRANCH  35  36
HETATM   36  C26 UNL     1     -15.807  22.522  -2.650  1.00  0.00     0.179 C 
HETATM   37  O3  UNL     1     -16.953  22.088  -2.887  1.00  0.00    -0.648 OA
HETATM   38  O4  UNL     1     -14.820  21.654  -2.218  1.00  0.00    -0.648 OA
ENDBRANCH  35  36
ENDBRANCH  29  31
ENDBRANCH   4  27
BRANCH   6  39
HETATM   39  C28 UNL     1     -16.294  18.876  -8.927  1.00  0.00     0.313 C 
HETATM   40  C29 UNL     1     -16.585  18.878 -10.380  1.00  0.00     0.047 C 
HETATM   41  C30 UNL     1     -17.522  17.674 -10.536  1.00  0.00     0.033 C 
HETATM   42  C31 UNL     1     -17.894  17.315  -9.127  1.00  0.00     0.273 C 
HETATM   43  N5  UNL     1     -17.567  18.494  -8.322  1.00  0.00     0.098 N 
HETATM   44  C32 UNL     1     -18.599  19.464  -8.501  1.00  0.00     0.310 C 
ENDBRANCH   6  39
TORSDOF 10
ENDMDL
MODEL 2
REMARK VINA RESULT: -9.332471772      1.848      7.763
REMARK  10 active torsions:
REMARK  status: ('A' for Active; 'I' for Inactive)
REMARK    1  A    between atoms: C2_2  and  C4_4 
REMARK    2  A    between atoms: C4_4  and  C5_5 
REMARK    3  A    between atoms: C5_5  and  C6_6 
REMARK    4  A    between atoms: C5_5  and  N2_16 
REMARK    5  A    between atoms: C6_6  and  N1_7 
REMARK       I    between atoms: N2_16  and  C15_18 
REMARK    6  A    between atoms: C15_18  and  C16_20 
REMARK    7  A    between atoms: C19_23  and  C20_24 
REMARK       I    between atoms: C20_24  and  N3_26 
REMARK    8  A    between atoms: N3_26  and  C21_28 
REMARK    9  A    between atoms: C25_32  and  C26_33 
REMARK       I    between atoms: N4_36  and  C27_37 
REMARK   10  A    between atoms: C27_37  and  C28_39 
ROOT
HETATM    1  C16 UNL     1     -17.893  20.707  -7.243  1.00  0.00     0.180 C 
HETATM    2  C17 UNL     1     -19.321  20.227  -7.329  1.00  0.00     0.037 C 
HETATM    3  C18 UNL     1     -19.435  19.704  -8.746  1.00  0.00     0.037 C 
HETATM    4  C19 UNL     1     -18.006  19.217  -9.027  1.00  0.00     0.180 C 
HETATM    5  N4  UNL     1     -17.188  20.188  -8.355  1.00  0.00    -0.323 N 
HETATM    6  C27 UNL     1     -15.890  20.540  -8.849  1.00  0.00     0.255 C 
HETATM    7  O5  UNL     1     -15.481  19.897  -9.873  1.00  0.00    -0.271 OA
ENDROOT
BRANCH   1   8
HETATM    8  C15 UNL     1     -17.360  20.403  -5.901  1.00  0.00     0.245 C 
HETATM    9  N2  UNL     1     -17.779  21.183  -4.799  1.00  0.00    -0.324 N 
ATOM     10  H2  UNL     1     -18.442  21.940  -4.967  1.00  0.00     0.169 HD
HETATM   11  O1  UNL     1     -16.547  19.464  -5.742  1.00  0.00    -0.271 OA
BRANCH   9  12
HETATM   12  C5  UNL     1     -17.311  20.962  -3.426  1.00  0.00     0.046 C 
BRANCH  12  13
HETATM   13  C4  UNL     1     -17.771  19.713  -2.837  1.00  0.00     0.008 C 
BRANCH  13  14
HETATM   14  C2  UNL     1     -19.167  19.485  -2.456  1.00  0.00     0.002 C 
HETATM   15  C1  UNL     1     -20.232  19.586  -3.481  1.00  0.00     0.013 C 
HETATM   16  C3  UNL     1     -19.219  18.022  -1.955  1.00  0.00     0.013 C 
ENDBRANCH  13  14
ENDBRANCH  12  13
BRANCH  12  17
HETATM   17  C6  UNL     1     -15.883  21.394  -3.285  1.00  0.00     0.119 C 
BRANCH  17  18
HETATM   18  N1  UNL     1     -15.561  22.730  -3.229  1.00  0.00    -0.367 N 
HETATM   19  C7  UNL     1     -15.594  23.433  -1.992  1.00  0.00     0.133 C 
HETATM   20  C8  UNL     1     -14.648  24.641  -2.229  1.00  0.00     0.013 C 
HETATM   21  C9  UNL     1     -13.277  24.197  -1.876  1.00  0.00     0.007 C 
HETATM   22  C13 UNL     1     -14.876  24.935  -3.670  1.00  0.00     0.030 C 
HETATM   23  C10 UNL     1     -12.304  24.209  -3.029  1.00  0.00     0.000 C 
HETATM   24  C11 UNL     1     -12.445  25.551  -3.719  1.00  0.00     0.001 C 
HETATM   25  C12 UNL     1     -13.771  25.535  -4.434  1.00  0.00     0.010 C 
HETATM   26  C14 UNL     1     -15.271  23.591  -4.270  1.00  0.00     0.068 C 
ENDBRANCH  17  18
ENDBRANCH  12  17
ENDBRANCH   9  12
ENDBRANCH   1   8
BRANCH   4  27
HETATM   27  C20 UNL     1     -17.911  17.835  -8.588  1.00  0.00     0.241 C 
HETATM   28  O2  UNL     1     -16.904  17.169  -8.316  1.00  0.00    -0.271 OA
HETATM   29  N3  UNL     1     -19.165  17.132  -8.445  1.00  0.00    -0.354 N 
ATOM     30  H3  UNL     1     -20.029  17.629  -8.659  1.00  0.00     0.162 HD
BRANCH  29  31
HETATM   31  C21 UNL     1     -19.249  15.754  -8.014  1.00  0.00     0.098 C 
HETATM   32  C22 UNL     1     -19.903  14.883  -9.089  1.00  0.00     0.026 C 
HETATM   33  C23 UNL     1     -21.341  15.367  -9.064  1.00  0.00     0.003 C 
HETATM   34  C24 UNL     1     -21.630  15.664  -7.620  1.00  0.00     0.017 C 
HETATM   35  C25 UNL     1     -20.281  15.599  -6.904  1.00  0.00     0.109 C 
BRANCH  35  36
HETATM   36  C26 UNL     1     -20.235  16.673  -5.907  1.00  0.00     0.179 C 
HETATM   37  O3  UNL     1     -21.293  17.200  -5.505  1.00  0.00    -0.648 OA
HETATM   38  O4  UNL     1     -19.019  17.104  -5.407  1.00  0.00    -0.648 OA
ENDBRANCH  35  36
ENDBRANCH  29  31
ENDBRANCH   4  27
BRANCH   6  39
HETATM   39  C28 UNL     1     -14.979  21.545  -8.333  1.00  0.00     0.313 C 
HETATM   40  C29 UNL     1     -14.050  22.189  -9.291  1.00  0.00     0.047 C 
HETATM   41  C30 UNL     1     -12.997  22.813  -8.368  1.00  0.00     0.033 C 
HETATM   42  C31 UNL     1     -13.275  22.200  -7.027  1.00  0.00     0.273 C 
HETATM   43  N5  UNL     1     -14.092  21.016  -7.298  1.00  0.00     0.098 N 
HETATM   44  C32 UNL     1     -13.236  19.972  -7.758  1.00  0.00     0.310 C 
ENDBRANCH   6  39
TORSDOF 10
ENDMDL
MODEL 3
REMARK VINA RESULT: -9.050906497      3.384      9.191
REMARK  10 active torsions:
REMARK  status: ('A' for Active; 'I' for Inactive)
REMARK    1  A    between atoms: C2_2  and  C4_4 
REMARK    2  A    between atoms: C4_4  and  C5_5 
REMARK    3  A    between atoms: C5_5  and  C6_6 
REMARK    4  A    between atoms: C5_5  and  N2_16 
REMARK    5  A    between atoms: C6_6  and  N1_7 
REMARK       I    between atoms: N2_16  and  C15_18 
REMARK    6  A    between atoms: C15_18  and  C16_20 
REMARK    7  A    between atoms: C19_23  and  C20_24 
REMARK       I    between atoms: C20_24  and  N3_26 
REMARK    8  A    between atoms: N3_26  and  C21_28 
REMARK    9  A    between atoms: C25_32  and  C26_33 
REMARK       I    between atoms: N4_36  and  C27_37 
REMARK   10  A    between atoms: C27_37  and  C28_39 
ROOT
HETATM    1  C16 UNL     1     -15.150  21.066  -5.126  1.00  0.00     0.180 C 
HETATM    2  C17 UNL     1     -15.101  19.618  -5.550  1.00  0.00     0.037 C 
HETATM    3  C18 UNL     1     -16.493  19.110  -5.238  1.00  0.00     0.037 C 
HETATM    4  C19 UNL     1     -17.349  20.370  -5.433  1.00  0.00     0.180 C 
HETATM    5  N4  UNL     1     -16.506  21.422  -4.936  1.00  0.00    -0.323 N 
HETATM    6  C27 UNL     1     -17.056  22.590  -4.314  1.00  0.00     0.255 C 
HETATM    7  O5  UNL     1     -18.330  22.670  -4.290  1.00  0.00    -0.271 OA
ENDROOT
BRANCH   1   8
HETATM    8  C15 UNL     1     -14.362  21.876  -6.076  1.00  0.00     0.245 C 
HETATM    9  N2  UNL     1     -12.993  22.111  -5.814  1.00  0.00    -0.324 N 
ATOM     10  H2  UNL     1     -12.588  21.711  -4.968  1.00  0.00     0.169 HD
HETATM   11  O1  UNL     1     -14.903  22.347  -7.103  1.00  0.00    -0.271 OA
BRANCH   9  12
HETATM   12  C5  UNL     1     -12.124  22.899  -6.695  1.00  0.00     0.046 C 
BRANCH  12  13
HETATM   13  C4  UNL     1     -11.065  23.613  -5.996  1.00  0.00     0.008 C 
BRANCH  13  14
HETATM   14  C2  UNL     1     -11.294  24.880  -5.298  1.00  0.00     0.002 C 
HETATM   15  C1  UNL     1     -10.777  25.062  -3.922  1.00  0.00     0.013 C 
HETATM   16  C3  UNL     1     -10.572  25.951  -6.150  1.00  0.00     0.013 C 
ENDBRANCH  13  14
ENDBRANCH  12  13
BRANCH  12  17
HETATM   17  C6  UNL     1     -11.833  22.143  -7.955  1.00  0.00     0.119 C 
BRANCH  17  18
HETATM   18  N1  UNL     1     -11.740  22.803  -9.158  1.00  0.00    -0.367 N 
HETATM   19  C7  UNL     1     -12.805  23.628  -9.617  1.00  0.00     0.133 C 
HETATM   20  C8  UNL     1     -12.117  24.598 -10.615  1.00  0.00     0.013 C 
HETATM   21  C9  UNL     1     -11.629  25.759  -9.831  1.00  0.00     0.007 C 
HETATM   22  C13 UNL     1     -11.059  23.733 -11.207  1.00  0.00     0.030 C 
HETATM   23  C10 UNL     1     -10.130  25.930  -9.841  1.00  0.00     0.000 C 
HETATM   24  C11 UNL     1      -9.678  25.826 -11.284  1.00  0.00     0.001 C 
HETATM   25  C12 UNL     1      -9.827  24.381 -11.683  1.00  0.00     0.010 C 
HETATM   26  C14 UNL     1     -10.742  22.724 -10.110  1.00  0.00     0.068 C 
ENDBRANCH  17  18
ENDBRANCH  12  17
ENDBRANCH   9  12
ENDBRANCH   1   8
BRANCH   4  27
HETATM   27  C20 UNL     1     -17.748  20.428  -6.829  1.00  0.00     0.241 C 
HETATM   28  O2  UNL     1     -17.601  21.347  -7.646  1.00  0.00    -0.271 OA
HETATM   29  N3  UNL     1     -18.408  19.252  -7.345  1.00  0.00    -0.354 N 
ATOM     30  H3  UNL     1     -18.559  18.463  -6.716  1.00  0.00     0.162 HD
BRANCH  29  31
HETATM   31  C21 UNL     1     -18.864  19.142  -8.713  1.00  0.00     0.098 C 
HETATM   32  C22 UNL     1     -20.193  18.386  -8.787  1.00  0.00     0.026 C 
HETATM   33  C23 UNL     1     -19.780  16.974  -8.420  1.00  0.00     0.003 C 
HETATM   34  C24 UNL     1     -18.421  16.790  -9.033  1.00  0.00     0.017 C 
HETATM   35  C25 UNL     1     -17.985  18.179  -9.499  1.00  0.00     0.109 C 
BRANCH  35  36
HETATM   36  C26 UNL     1     -16.554  18.331  -9.219  1.00  0.00     0.179 C 
HETATM   37  O3  UNL     1     -15.989  17.565  -8.411  1.00  0.00    -0.648 OA
HETATM   38  O4  UNL     1     -15.825  19.323  -9.850  1.00  0.00    -0.648 OA
ENDBRANCH  35  36
ENDBRANCH  29  31
ENDBRANCH   4  27
BRANCH   6  39
HETATM   39  C28 UNL     1     -16.346  23.697  -3.702  1.00  0.00     0.313 C 
HETATM   40  C29 UNL     1     -15.130  24.197  -4.384  1.00  0.00     0.047 C 
HETATM   41  C30 UNL     1     -14.435  25.005  -3.281  1.00  0.00     0.033 C 
HETATM   42  C31 UNL     1     -15.169  24.622  -2.029  1.00  0.00     0.273 C 
HETATM   43  N5  UNL     1     -15.878  23.383  -2.353  1.00  0.00     0.098 N 
HETATM   44  C32 UNL     1     -14.946  22.303  -2.308  1.00  0.00     0.310 C 
ENDBRANCH   6  39
TORSDOF 10
ENDMDL
MODEL 4
REMARK VINA RESULT: -9.011492826      1.316      1.863
REMARK  10 active torsions:
REMARK  status: ('A' for Active; 'I' for Inactive)
REMARK    1  A    between atoms: C2_2  and  C4_4 
REMARK    2  A    between atoms: C4_4  and  C5_5 
REMARK    3  A    between atoms: C5_5  and  C6_6 
REMARK    4  A    between atoms: C5_5  and  N2_16 
REMARK    5  A    between atoms: C6_6  and  N1_7 
REMARK       I    between atoms: N2_16  and  C15_18 
REMARK    6  A    between atoms: C15_18  and  C16_20 
REMARK    7  A    between atoms: C19_23  and  C20_24 
REMARK       I    between atoms: C20_24  and  N3_26 
REMARK    8  A    between atoms: N3_26  and  C21_28 
REMARK    9  A    between atoms: C25_32  and  C26_33 
REMARK       I    between atoms: N4_36  and  C27_37 
REMARK   10  A    between atoms: C27_37  and  C28_39 
ROOT
HETATM    1  C16 UNL     1     -15.794  18.974  -5.832  1.00  0.00     0.180 C 
HETATM    2  C17 UNL     1     -14.928  19.468  -4.699  1.00  0.00     0.037 C 
HETATM    3  C18 UNL     1     -13.930  20.376  -5.385  1.00  0.00     0.037 C 
HETATM    4  C19 UNL     1     -14.743  20.914  -6.571  1.00  0.00     0.180 C 
HETATM    5  N4  UNL     1     -15.542  19.786  -6.963  1.00  0.00    -0.323 N 
HETATM    6  C27 UNL     1     -15.926  19.581  -8.328  1.00  0.00     0.255 C 
HETATM    7  O5  UNL     1     -15.577  20.489  -9.155  1.00  0.00    -0.271 OA
ENDROOT
BRANCH   1   8
HETATM    8  C15 UNL     1     -17.192  18.875  -5.367  1.00  0.00     0.245 C 
HETATM    9  N2  UNL     1     -17.736  17.603  -5.079  1.00  0.00    -0.324 N 
ATOM     10  H2  UNL     1     -17.141  16.784  -5.205  1.00  0.00     0.169 HD
HETATM   11  O1  UNL     1     -17.885  19.909  -5.227  1.00  0.00    -0.271 OA
BRANCH   9  12
HETATM   12  C5  UNL     1     -19.110  17.397  -4.610  1.00  0.00     0.046 C 
BRANCH  12  13
HETATM   13  C4  UNL     1     -19.697  18.563  -3.967  1.00  0.00     0.008 C 
BRANCH  13  14
HETATM   14  C2  UNL     1     -19.914  18.644  -2.521  1.00  0.00     0.002 C 
HETATM   15  C1  UNL     1     -20.567  17.518  -1.813  1.00  0.00     0.013 C 
HETATM   16  C3  UNL     1     -18.499  18.750  -1.902  1.00  0.00     0.013 C 
ENDBRANCH  13  14
ENDBRANCH  12  13
BRANCH  12  17
HETATM   17  C6  UNL     1     -19.891  16.602  -5.612  1.00  0.00     0.119 C 
BRANCH  17  18
HETATM   18  N1  UNL     1     -21.210  16.900  -5.862  1.00  0.00    -0.367 N 
HETATM   19  C7  UNL     1     -21.617  17.377  -7.139  1.00  0.00     0.133 C 
HETATM   20  C8  UNL     1     -23.128  17.028  -7.200  1.00  0.00     0.013 C 
HETATM   21  C9  UNL     1     -23.237  15.650  -7.742  1.00  0.00     0.007 C 
HETATM   22  C13 UNL     1     -23.542  17.193  -5.780  1.00  0.00     0.030 C 
HETATM   23  C10 UNL     1     -23.844  14.653  -6.786  1.00  0.00     0.000 C 
HETATM   24  C11 UNL     1     -25.104  15.281  -6.225  1.00  0.00     0.001 C 
HETATM   25  C12 UNL     1     -24.663  16.376  -5.290  1.00  0.00     0.010 C 
HETATM   26  C14 UNL     1     -22.276  16.894  -4.984  1.00  0.00     0.068 C 
ENDBRANCH  17  18
ENDBRANCH  12  17
ENDBRANCH   9  12
ENDBRANCH   1   8
BRANCH   4  27
HETATM   27  C20 UNL     1     -15.439  22.111  -6.129  1.00  0.00     0.241 C 
HETATM   28  O2  UNL     1     -16.520  22.575  -6.517  1.00  0.00    -0.271 OA
HETATM   29  N3  UNL     1     -14.785  22.873  -5.091  1.00  0.00    -0.354 N 
ATOM     30  H3  UNL     1     -13.890  22.540  -4.734  1.00  0.00     0.162 HD
BRANCH  29  31
HETATM   31  C21 UNL     1     -15.343  24.085  -4.534  1.00  0.00     0.098 C 
HETATM   32  C22 UNL     1     -14.244  25.108  -4.238  1.00  0.00     0.026 C 
HETATM   33  C23 UNL     1     -13.515  24.467  -3.072  1.00  0.00     0.003 C 
HETATM   34  C24 UNL     1     -14.587  23.797  -2.259  1.00  0.00     0.017 C 
HETATM   35  C25 UNL     1     -15.850  23.846  -3.119  1.00  0.00     0.109 C 
BRANCH  35  36
HETATM   36  C26 UNL     1     -16.565  22.576  -2.960  1.00  0.00     0.179 C 
HETATM   37  O3  UNL     1     -15.946  21.547  -2.616  1.00  0.00    -0.648 OA
HETATM   38  O4  UNL     1     -17.928  22.514  -3.188  1.00  0.00    -0.648 OA
ENDBRANCH  35  36
ENDBRANCH  29  31
ENDBRANCH   4  27
BRANCH   6  39
HETATM   39  C28 UNL     1     -16.661  18.465  -8.893  1.00  0.00     0.313 C 
HETATM   40  C29 UNL     1     -16.916  18.477 -10.352  1.00  0.00     0.047 C 
HETATM   41  C30 UNL     1     -18.040  17.445 -10.505  1.00  0.00     0.033 C 
HETATM   42  C31 UNL     1     -18.500  17.194  -9.098  1.00  0.00     0.273 C 
HETATM   43  N5  UNL     1     -17.994  18.322  -8.313  1.00  0.00     0.098 N 
HETATM   44  C32 UNL     1     -18.841  19.448  -8.541  1.00  0.00     0.310 C 
ENDBRANCH   6  39
TORSDOF 10
ENDMDL
MODEL 5
REMARK VINA RESULT: -8.961915069      1.330      2.068
REMARK  10 active torsions:
REMARK  status: ('A' for Active; 'I' for Inactive)
REMARK    1  A    between atoms: C2_2  and  C4_4 
REMARK    2  A    between atoms: C4_4  and  C5_5 
REMARK    3  A    between atoms: C5_5  and  C6_6 
REMARK    4  A    between atoms: C5_5  and  N2_16 
REMARK    5  A    between atoms: C6_6  and  N1_7 
REMARK       I    between atoms: N2_16  and  C15_18 
REMARK    6  A    between atoms: C15_18  and  C16_20 
REMARK    7  A    between atoms: C19_23  and  C20_24 
REMARK       I    between atoms: C20_24  and  N3_26 
REMARK    8  A    between atoms: N3_26  and  C21_28 
REMARK    9  A    between atoms: C25_32  and  C26_33 
REMARK       I    between atoms: N4_36  and  C27_37 
REMARK   10  A    between atoms: C27_37  and  C28_39 
ROOT
HETATM    1  C16 UNL     1     -15.877  19.045  -5.759  1.00  0.00     0.180 C 
HETATM    2  C17 UNL     1     -15.151  19.434  -4.494  1.00  0.00     0.037 C 
HETATM    3  C18 UNL     1     -14.020  20.310  -4.988  1.00  0.00     0.037 C 
HETATM    4  C19 UNL     1     -14.630  20.950  -6.244  1.00  0.00     0.180 C 
HETATM    5  N4  UNL     1     -15.425  19.891  -6.800  1.00  0.00    -0.323 N 
HETATM    6  C27 UNL     1     -15.627  19.772  -8.214  1.00  0.00     0.255 C 
HETATM    7  O5  UNL     1     -15.118  20.693  -8.937  1.00  0.00    -0.271 OA
ENDROOT
BRANCH   1   8
HETATM    8  C15 UNL     1     -17.328  19.011  -5.495  1.00  0.00     0.245 C 
HETATM    9  N2  UNL     1     -17.981  17.762  -5.382  1.00  0.00    -0.324 N 
ATOM     10  H2  UNL     1     -17.423  16.915  -5.490  1.00  0.00     0.169 HD
HETATM   11  O1  UNL     1     -17.973  20.077  -5.370  1.00  0.00    -0.271 OA
BRANCH   9  12
HETATM   12  C5  UNL     1     -19.417  17.618  -5.119  1.00  0.00     0.046 C 
BRANCH  12  13
HETATM   13  C4  UNL     1     -19.893  18.405  -3.991  1.00  0.00     0.008 C 
BRANCH  13  14
HETATM   14  C2  UNL     1     -19.719  17.980  -2.600  1.00  0.00     0.002 C 
HETATM   15  C1  UNL     1     -18.751  18.689  -1.732  1.00  0.00     0.013 C 
HETATM   16  C3  UNL     1     -21.099  18.193  -1.933  1.00  0.00     0.013 C 
ENDBRANCH  13  14
ENDBRANCH  12  13
BRANCH  12  17
HETATM   17  C6  UNL     1     -20.183  17.586  -6.406  1.00  0.00     0.119 C 
BRANCH  17  18
HETATM   18  N1  UNL     1     -21.413  16.972  -6.469  1.00  0.00    -0.367 N 
HETATM   19  C7  UNL     1     -21.839  16.094  -5.434  1.00  0.00     0.133 C 
HETATM   20  C8  UNL     1     -23.387  16.103  -5.557  1.00  0.00     0.013 C 
HETATM   21  C9  UNL     1     -23.885  17.230  -4.729  1.00  0.00     0.007 C 
HETATM   22  C13 UNL     1     -23.580  16.251  -7.025  1.00  0.00     0.030 C 
HETATM   23  C10 UNL     1     -24.596  18.307  -5.510  1.00  0.00     0.000 C 
HETATM   24  C11 UNL     1     -25.595  17.616  -6.416  1.00  0.00     0.001 C 
HETATM   25  C12 UNL     1     -24.800  16.928  -7.494  1.00  0.00     0.010 C 
HETATM   26  C14 UNL     1     -22.339  17.003  -7.493  1.00  0.00     0.068 C 
ENDBRANCH  17  18
ENDBRANCH  12  17
ENDBRANCH   9  12
ENDBRANCH   1   8
BRANCH   4  27
HETATM   27  C20 UNL     1     -15.315  22.166  -5.838  1.00  0.00     0.241 C 
HETATM   28  O2  UNL     1     -16.438  22.575  -6.161  1.00  0.00    -0.271 OA
HETATM   29  N3  UNL     1     -14.590  23.022  -4.929  1.00  0.00    -0.354 N 
ATOM     30  H3  UNL     1     -13.658  22.738  -4.630  1.00  0.00     0.162 HD
BRANCH  29  31
HETATM   31  C21 UNL     1     -15.128  24.266  -4.423  1.00  0.00     0.098 C 
HETATM   32  C22 UNL     1     -14.036  25.333  -4.322  1.00  0.00     0.026 C 
HETATM   33  C23 UNL     1     -13.181  24.811  -3.183  1.00  0.00     0.003 C 
HETATM   34  C24 UNL     1     -14.149  24.190  -2.216  1.00  0.00     0.017 C 
HETATM   35  C25 UNL     1     -15.490  24.138  -2.949  1.00  0.00     0.109 C 
BRANCH  35  36
HETATM   36  C26 UNL     1     -16.148  22.871  -2.616  1.00  0.00     0.179 C 
HETATM   37  O3  UNL     1     -15.486  21.929  -2.134  1.00  0.00    -0.648 OA
HETATM   38  O4  UNL     1     -17.506  22.716  -2.833  1.00  0.00    -0.648 OA
ENDBRANCH  35  36
ENDBRANCH  29  31
ENDBRANCH   4  27
BRANCH   6  39
HETATM   39  C28 UNL     1     -16.335  18.729  -8.933  1.00  0.00     0.313 C 
HETATM   40  C29 UNL     1     -16.427  18.849 -10.406  1.00  0.00     0.047 C 
HETATM   41  C30 UNL     1     -17.565  17.881 -10.752  1.00  0.00     0.033 C 
HETATM   42  C31 UNL     1     -18.185  17.557  -9.424  1.00  0.00     0.273 C 
HETATM   43  N5  UNL     1     -17.728  18.606  -8.511  1.00  0.00     0.098 N 
HETATM   44  C32 UNL     1     -18.503  19.781  -8.749  1.00  0.00     0.310 C 
ENDBRANCH   6  39
TORSDOF 10
ENDMDL
