MODEL 1
REMARK VINA RESULT: -10.020294833      0.000      0.000
REMARK  16 active torsions:
REMARK  status: ('A' for Active; 'I' for Inactive)
REMARK    1  A    between atoms: C2_2  and  C3_3 
REMARK    2  A    between atoms: N2_9  and  C6_10 
REMARK    3  A    between atoms: C6_10  and  C7_11 
REMARK    4  A    between atoms: C7_11  and  C8_12 
REMARK    5  A    between atoms: C8_12  and  C9_13 
REMARK    6  A    between atoms: C9_13  and  C10_14 
REMARK    7  A    between atoms: C12_19  and  C13_20 
REMARK    8  A    between atoms: C13_20  and  N4_21 
REMARK    9  A    between atoms: C20_28  and  O3_29 
REMARK   10  A    between atoms: N5_31  and  C21_32 
REMARK   11  A    between atoms: C21_32  and  O4_33 
REMARK   12  A    between atoms: C21_32  and  N6_35 
REMARK   13  A    between atoms: N6_35  and  C22_36 
REMARK   14  A    between atoms: N6_35  and  C30_46 
REMARK   15  A    between atoms: C22_36  and  C23_37 
REMARK       I    between atoms: C23_37  and  N7_39 
REMARK   16  A    between atoms: C30_46  and  C31_47 
ROOT
HETATM    1  C10 UNL     1      11.526 -18.387 -14.519  1.00  0.00     0.182 C 
HETATM    2  C11 UNL     1      10.761 -17.470 -13.705  1.00  0.00     0.241 C 
HETATM    3  O2  UNL     1      10.860 -17.478 -12.439  1.00  0.00    -0.271 OA
HETATM    4  N3  UNL     1       9.853 -16.501 -14.239  1.00  0.00    -0.349 N 
ATOM      5  H3  UNL     1       9.666 -15.650 -13.707  1.00  0.00     0.163 HD
HETATM    6  C12 UNL     1       9.178 -16.698 -15.543  1.00  0.00     0.159 C 
HETATM    7  C20 UNL     1       9.496 -18.163 -15.885  1.00  0.00     0.248 C 
HETATM    8  N5  UNL     1      10.895 -18.423 -15.878  1.00  0.00    -0.305 N 
ENDROOT
BRANCH   8   9
HETATM    9  C21 UNL     1      11.720 -18.684 -16.950  1.00  0.00     0.220 C 
BRANCH   9  10
HETATM   10  O4  UNL     1      12.873 -18.015 -16.858  1.00  0.00    -0.332 OA
ATOM     11  H4  UNL     1      13.376 -18.287 -16.100  1.00  0.00     0.220 HD
ENDBRANCH   9  10
BRANCH   9  12
HETATM   12  N6  UNL     1      11.621 -19.470 -18.080  1.00  0.00    -0.338 N 
BRANCH  12  13
HETATM   13  C22 UNL     1      12.847 -20.296 -18.352  1.00  0.00     0.229 C 
BRANCH  13  14
HETATM   14  C23 UNL     1      12.532 -21.728 -18.048  1.00  0.00     0.238 C 
HETATM   15  O5  UNL     1      11.525 -21.950 -17.328  1.00  0.00    -0.272 OA
HETATM   16  N7  UNL     1      13.348 -22.763 -18.563  1.00  0.00    -0.346 N 
HETATM   17  C24 UNL     1      13.161 -24.186 -18.357  1.00  0.00     0.131 C 
HETATM   18  C28 UNL     1      14.502 -22.600 -19.380  1.00  0.00     0.087 C 
HETATM   19  C25 UNL     1      14.305 -24.833 -19.113  1.00  0.00     0.006 C 
HETATM   20  C26 UNL     1      14.045 -24.655 -20.572  1.00  0.00     0.008 C 
HETATM   21  C29 UNL     1      15.383 -23.760 -18.875  1.00  0.00     0.031 C 
HETATM   22  C27 UNL     1      14.184 -23.145 -20.758  1.00  0.00     0.026 C 
ENDBRANCH  13  14
ENDBRANCH  12  13
BRANCH  12  23
HETATM   23  C30 UNL     1      10.596 -19.629 -19.055  1.00  0.00     0.131 C 
BRANCH  23  24
HETATM   24  C31 UNL     1      10.109 -18.381 -19.729  1.00  0.00     0.004 C 
HETATM   25  C32 UNL     1       9.602 -18.714 -21.147  1.00  0.00     0.006 C 
HETATM   26  C33 UNL     1       8.159 -18.262 -21.193  1.00  0.00     0.000 C 
HETATM   27  C34 UNL     1       7.757 -18.315 -19.718  1.00  0.00     0.000 C 
HETATM   28  C35 UNL     1       8.999 -17.633 -19.115  1.00  0.00     0.006 C 
ENDBRANCH  23  24
ENDBRANCH  12  23
ENDBRANCH   9  12
ENDBRANCH   8   9
BRANCH   1  29
HETATM   29  C9  UNL     1      11.699 -19.778 -14.029  1.00  0.00     0.035 C 
BRANCH  29  30
HETATM   30  C8  UNL     1      12.687 -19.970 -12.921  1.00  0.00     0.004 C 
BRANCH  30  31
HETATM   31  C7  UNL     1      13.235 -21.368 -12.971  1.00  0.00     0.020 C 
BRANCH  31  32
HETATM   32  C6  UNL     1      13.622 -21.834 -14.349  1.00  0.00     0.128 C 
BRANCH  32  33
HETATM   33  N2  UNL     1      15.025 -21.676 -14.640  1.00  0.00    -0.325 N 
HETATM   34  C3  UNL     1      16.064 -22.642 -14.438  1.00  0.00     0.129 C 
HETATM   35  C4  UNL     1      17.345 -21.880 -14.573  1.00  0.00     0.153 C 
HETATM   36  N1  UNL     1      16.969 -20.818 -15.519  1.00  0.00    -0.341 N 
HETATM   37  C5  UNL     1      15.605 -20.513 -15.191  1.00  0.00     0.319 C 
ATOM     38  H1  UNL     1      17.547 -20.394 -16.244  1.00  0.00     0.164 HD
HETATM   39  O1  UNL     1      15.067 -19.376 -15.384  1.00  0.00    -0.247 OA
BRANCH  34  40
HETATM   40  C2  UNL     1      15.961 -23.326 -13.108  1.00  0.00    -0.010 C 
HETATM   41  C1  UNL     1      17.066 -23.669 -12.487  1.00  0.00     0.009 C 
ENDBRANCH  34  40
ENDBRANCH  32  33
ENDBRANCH  31  32
ENDBRANCH  30  31
ENDBRANCH  29  30
ENDBRANCH   1  29
BRANCH   7  42
HETATM   42  O3  UNL     1       8.858 -18.888 -14.825  1.00  0.00    -0.374 OA
ATOM     43  H3  UNL     1       7.991 -19.057 -15.172  1.00  0.00     0.212 HD
ENDBRANCH   7  42
BRANCH   6  44
HETATM   44  C13 UNL     1       7.740 -16.518 -15.247  1.00  0.00     0.266 C 
BRANCH  44  45
HETATM   45  N4  UNL     1       7.010 -15.458 -15.819  1.00  0.00    -0.069 N 
HETATM   46  C14 UNL     1       7.004 -15.358 -17.232  1.00  0.00     0.272 C 
HETATM   47  C15 UNL     1       5.616 -15.594 -15.380  1.00  0.00     0.237 C 
HETATM   48  C16 UNL     1       4.896 -14.258 -15.361  1.00  0.00     0.028 C 
HETATM   49  C17 UNL     1       5.436 -13.531 -14.126  1.00  0.00     0.003 C 
HETATM   50  C18 UNL     1       6.917 -13.828 -13.967  1.00  0.00     0.028 C 
HETATM   51  C19 UNL     1       7.545 -14.182 -15.296  1.00  0.00     0.237 C 
ENDBRANCH  44  45
ENDBRANCH   6  44
TORSDOF 16
ENDMDL
MODEL 2
REMARK VINA RESULT: -9.986491551      2.944     10.287
REMARK  16 active torsions:
REMARK  status: ('A' for Active; 'I' for Inactive)
REMARK    1  A    between atoms: C2_2  and  C3_3 
REMARK    2  A    between atoms: N2_9  and  C6_10 
REMARK    3  A    between atoms: C6_10  and  C7_11 
REMARK    4  A    between atoms: C7_11  and  C8_12 
REMARK    5  A    between atoms: C8_12  and  C9_13 
REMARK    6  A    between atoms: C9_13  and  C10_14 
REMARK    7  A    between atoms: C12_19  and  C13_20 
REMARK    8  A    between atoms: C13_20  and  N4_21 
REMARK    9  A    between atoms: C20_28  and  O3_29 
REMARK   10  A    between atoms: N5_31  and  C21_32 
REMARK   11  A    between atoms: C21_32  and  O4_33 
REMARK   12  A    between atoms: C21_32  and  N6_35 
REMARK   13  A    between atoms: N6_35  and  C22_36 
REMARK   14  A    between atoms: N6_35  and  C30_46 
REMARK   15  A    between atoms: C22_36  and  C23_37 
REMARK       I    between atoms: C23_37  and  N7_39 
REMARK   16  A    between atoms: C30_46  and  C31_47 
ROOT
HETATM    1  C10 UNL     1       9.666 -18.511 -18.539  1.00  0.00     0.182 C 
HETATM    2  C11 UNL     1      10.221 -19.138 -19.717  1.00  0.00     0.241 C 
HETATM    3  O2  UNL     1       9.598 -19.124 -20.823  1.00  0.00    -0.271 OA
HETATM    4  N3  UNL     1      11.485 -19.809 -19.738  1.00  0.00    -0.349 N 
ATOM      5  H3  UNL     1      12.002 -19.865 -20.616  1.00  0.00     0.163 HD
HETATM    6  C12 UNL     1      12.064 -20.424 -18.521  1.00  0.00     0.159 C 
HETATM    7  C20 UNL     1      10.904 -20.369 -17.514  1.00  0.00     0.248 C 
HETATM    8  N5  UNL     1      10.400 -19.048 -17.349  1.00  0.00    -0.305 N 
ENDROOT
BRANCH   8   9
HETATM    9  C21 UNL     1      10.519 -18.220 -16.254  1.00  0.00     0.220 C 
BRANCH   9  10
HETATM   10  O4  UNL     1      10.817 -16.968 -16.613  1.00  0.00    -0.332 OA
ATOM     11  H4  UNL     1      10.651 -16.352 -15.909  1.00  0.00     0.220 HD
ENDBRANCH   9  10
BRANCH   9  12
HETATM   12  N6  UNL     1      10.401 -18.394 -14.890  1.00  0.00    -0.338 N 
BRANCH  12  13
HETATM   13  C22 UNL     1       9.576 -17.334 -14.214  1.00  0.00     0.229 C 
BRANCH  13  14
HETATM   14  C23 UNL     1       8.137 -17.561 -14.558  1.00  0.00     0.238 C 
HETATM   15  O5  UNL     1       7.647 -18.678 -14.253  1.00  0.00    -0.272 OA
HETATM   16  N7  UNL     1       7.386 -16.545 -15.196  1.00  0.00    -0.346 N 
HETATM   17  C24 UNL     1       5.990 -16.623 -15.581  1.00  0.00     0.131 C 
HETATM   18  C28 UNL     1       7.861 -15.259 -15.577  1.00  0.00     0.087 C 
HETATM   19  C25 UNL     1       5.698 -15.281 -16.222  1.00  0.00     0.006 C 
HETATM   20  C26 UNL     1       5.706 -14.249 -15.145  1.00  0.00     0.008 C 
HETATM   21  C29 UNL     1       7.069 -15.029 -16.878  1.00  0.00     0.031 C 
HETATM   22  C27 UNL     1       7.170 -14.226 -14.708  1.00  0.00     0.026 C 
ENDBRANCH  13  14
ENDBRANCH  12  13
BRANCH  12  23
HETATM   23  C30 UNL     1      10.930 -19.365 -13.994  1.00  0.00     0.131 C 
BRANCH  23  24
HETATM   24  C31 UNL     1      12.419 -19.377 -13.819  1.00  0.00     0.004 C 
HETATM   25  C32 UNL     1      12.812 -20.395 -12.729  1.00  0.00     0.006 C 
HETATM   26  C33 UNL     1      13.754 -21.376 -13.392  1.00  0.00     0.000 C 
HETATM   27  C34 UNL     1      13.348 -21.270 -14.863  1.00  0.00     0.000 C 
HETATM   28  C35 UNL     1      13.265 -19.736 -14.970  1.00  0.00     0.006 C 
ENDBRANCH  23  24
ENDBRANCH  12  23
ENDBRANCH   9  12
ENDBRANCH   8   9
BRANCH   1  29
HETATM   29  C9  UNL     1       8.205 -18.636 -18.305  1.00  0.00     0.035 C 
BRANCH  29  30
HETATM   30  C8  UNL     1       7.336 -17.627 -18.987  1.00  0.00     0.004 C 
BRANCH  30  31
HETATM   31  C7  UNL     1       6.176 -18.321 -19.642  1.00  0.00     0.020 C 
BRANCH  31  32
HETATM   32  C6  UNL     1       4.827 -17.904 -19.118  1.00  0.00     0.128 C 
BRANCH  32  33
HETATM   33  N2  UNL     1       3.723 -18.435 -19.878  1.00  0.00    -0.325 N 
HETATM   34  C3  UNL     1       2.799 -19.451 -19.466  1.00  0.00     0.129 C 
HETATM   35  C4  UNL     1       2.085 -19.866 -20.715  1.00  0.00     0.153 C 
HETATM   36  N1  UNL     1       2.111 -18.626 -21.506  1.00  0.00    -0.341 N 
HETATM   37  C5  UNL     1       3.370 -18.019 -21.179  1.00  0.00     0.319 C 
ATOM     38  H1  UNL     1       1.396 -18.277 -22.143  1.00  0.00     0.164 HD
HETATM   39  O1  UNL     1       4.010 -17.248 -21.965  1.00  0.00    -0.247 OA
BRANCH  34  40
HETATM   40  C2  UNL     1       3.478 -20.610 -18.802  1.00  0.00    -0.010 C 
HETATM   41  C1  UNL     1       3.072 -21.826 -19.085  1.00  0.00     0.009 C 
ENDBRANCH  34  40
ENDBRANCH  32  33
ENDBRANCH  31  32
ENDBRANCH  30  31
ENDBRANCH  29  30
ENDBRANCH   1  29
BRANCH   7  42
HETATM   42  O3  UNL     1       9.906 -21.199 -18.124  1.00  0.00    -0.374 OA
ATOM     43  H3  UNL     1      10.058 -22.046 -17.722  1.00  0.00     0.212 HD
ENDBRANCH   7  42
BRANCH   6  44
HETATM   44  C13 UNL     1      12.363 -21.818 -18.916  1.00  0.00     0.266 C 
BRANCH  44  45
HETATM   45  N4  UNL     1      13.689 -22.287 -18.968  1.00  0.00    -0.069 N 
HETATM   46  C14 UNL     1      14.660 -21.585 -18.210  1.00  0.00     0.272 C 
HETATM   47  C15 UNL     1      13.685 -23.678 -18.499  1.00  0.00     0.237 C 
HETATM   48  C16 UNL     1      14.835 -24.476 -19.085  1.00  0.00     0.028 C 
HETATM   49  C17 UNL     1      14.437 -24.742 -20.539  1.00  0.00     0.003 C 
HETATM   50  C18 UNL     1      13.725 -23.525 -21.103  1.00  0.00     0.028 C 
HETATM   51  C19 UNL     1      14.142 -22.267 -20.376  1.00  0.00     0.237 C 
ENDBRANCH  44  45
ENDBRANCH   6  44
TORSDOF 16
ENDMDL
MODEL 3
REMARK VINA RESULT: -9.833393407      1.559      7.815
REMARK  16 active torsions:
REMARK  status: ('A' for Active; 'I' for Inactive)
REMARK    1  A    between atoms: C2_2  and  C3_3 
REMARK    2  A    between atoms: N2_9  and  C6_10 
REMARK    3  A    between atoms: C6_10  and  C7_11 
REMARK    4  A    between atoms: C7_11  and  C8_12 
REMARK    5  A    between atoms: C8_12  and  C9_13 
REMARK    6  A    between atoms: C9_13  and  C10_14 
REMARK    7  A    between atoms: C12_19  and  C13_20 
REMARK    8  A    between atoms: C13_20  and  N4_21 
REMARK    9  A    between atoms: C20_28  and  O3_29 
REMARK   10  A    between atoms: N5_31  and  C21_32 
REMARK   11  A    between atoms: C21_32  and  O4_33 
REMARK   12  A    between atoms: C21_32  and  N6_35 
REMARK   13  A    between atoms: N6_35  and  C22_36 
REMARK   14  A    between atoms: N6_35  and  C30_46 
REMARK   15  A    between atoms: C22_36  and  C23_37 
REMARK       I    between atoms: C23_37  and  N7_39 
REMARK   16  A    between atoms: C30_46  and  C31_47 
ROOT
HETATM    1  C10 UNL     1      10.038 -18.369 -14.882  1.00  0.00     0.182 C 
HETATM    2  C11 UNL     1      10.858 -18.522 -13.702  1.00  0.00     0.241 C 
HETATM    3  O2  UNL     1      10.716 -17.755 -12.700  1.00  0.00    -0.271 OA
HETATM    4  N3  UNL     1      11.873 -19.522 -13.564  1.00  0.00    -0.349 N 
ATOM      5  H3  UNL     1      12.122 -19.850 -12.631  1.00  0.00     0.163 HD
HETATM    6  C12 UNL     1      12.570 -20.095 -14.739  1.00  0.00     0.159 C 
HETATM    7  C20 UNL     1      12.125 -19.180 -15.892  1.00  0.00     0.248 C 
HETATM    8  N5  UNL     1      10.708 -19.106 -16.001  1.00  0.00    -0.305 N 
ENDROOT
BRANCH   8   9
HETATM    9  C21 UNL     1       9.900 -19.634 -16.984  1.00  0.00     0.220 C 
BRANCH   9  10
HETATM   10  O4  UNL     1       8.709 -20.000 -16.498  1.00  0.00    -0.332 OA
ATOM     11  H4  UNL     1       8.273 -20.620 -17.071  1.00  0.00     0.220 HD
ENDBRANCH   9  10
BRANCH   9  12
HETATM   12  N6  UNL     1      10.043 -19.864 -18.337  1.00  0.00    -0.338 N 
BRANCH  12  13
HETATM   13  C22 UNL     1       9.803 -21.294 -18.736  1.00  0.00     0.229 C 
BRANCH  13  14
HETATM   14  C23 UNL     1      10.787 -22.161 -18.013  1.00  0.00     0.238 C 
HETATM   15  O5  UNL     1      10.403 -22.683 -16.936  1.00  0.00    -0.272 OA
HETATM   16  N7  UNL     1      12.083 -22.364 -18.543  1.00  0.00    -0.346 N 
HETATM   17  C24 UNL     1      13.132 -23.177 -17.957  1.00  0.00     0.131 C 
HETATM   18  C28 UNL     1      12.599 -21.810 -19.748  1.00  0.00     0.087 C 
HETATM   19  C25 UNL     1      14.298 -23.042 -18.917  1.00  0.00     0.006 C 
HETATM   20  C26 UNL     1      13.945 -23.775 -20.168  1.00  0.00     0.008 C 
HETATM   21  C29 UNL     1      14.073 -21.584 -19.359  1.00  0.00     0.031 C 
HETATM   22  C27 UNL     1      12.799 -22.941 -20.738  1.00  0.00     0.026 C 
ENDBRANCH  13  14
ENDBRANCH  12  13
BRANCH  12  23
HETATM   23  C30 UNL     1      10.403 -19.020 -19.424  1.00  0.00     0.131 C 
BRANCH  23  24
HETATM   24  C31 UNL     1       9.493 -17.861 -19.704  1.00  0.00     0.004 C 
HETATM   25  C32 UNL     1       8.898 -17.990 -21.121  1.00  0.00     0.006 C 
HETATM   26  C33 UNL     1       7.396 -18.007 -20.945  1.00  0.00     0.000 C 
HETATM   27  C34 UNL     1       7.244 -18.525 -19.514  1.00  0.00     0.000 C 
HETATM   28  C35 UNL     1       8.320 -17.656 -18.837  1.00  0.00     0.006 C 
ENDBRANCH  23  24
ENDBRANCH  12  23
ENDBRANCH   9  12
ENDBRANCH   8   9
BRANCH   1  29
HETATM   29  C9  UNL     1       9.715 -16.992 -15.334  1.00  0.00     0.035 C 
BRANCH  29  30
HETATM   30  C8  UNL     1       8.577 -16.316 -14.635  1.00  0.00     0.004 C 
BRANCH  30  31
HETATM   31  C7  UNL     1       7.279 -16.931 -15.073  1.00  0.00     0.020 C 
BRANCH  31  32
HETATM   32  C6  UNL     1       6.671 -16.294 -16.294  1.00  0.00     0.128 C 
BRANCH  32  33
HETATM   33  N2  UNL     1       5.397 -15.665 -16.043  1.00  0.00    -0.325 N 
HETATM   34  C3  UNL     1       5.140 -14.264 -15.887  1.00  0.00     0.129 C 
HETATM   35  C4  UNL     1       3.758 -14.176 -15.320  1.00  0.00     0.153 C 
HETATM   36  N1  UNL     1       3.122 -15.378 -15.880  1.00  0.00    -0.341 N 
HETATM   37  C5  UNL     1       4.173 -16.355 -15.917  1.00  0.00     0.319 C 
ATOM     38  H1  UNL     1       2.153 -15.491 -16.176  1.00  0.00     0.164 HD
HETATM   39  O1  UNL     1       3.975 -17.611 -15.843  1.00  0.00    -0.247 OA
BRANCH  34  40
HETATM   40  C2  UNL     1       6.148 -13.590 -15.006  1.00  0.00    -0.010 C 
HETATM   41  C1  UNL     1       5.753 -13.108 -13.850  1.00  0.00     0.009 C 
ENDBRANCH  34  40
ENDBRANCH  32  33
ENDBRANCH  31  32
ENDBRANCH  30  31
ENDBRANCH  29  30
ENDBRANCH   1  29
BRANCH   7  42
HETATM   42  O3  UNL     1      12.654 -17.902 -15.513  1.00  0.00    -0.374 OA
ATOM     43  H3  UNL     1      13.374 -17.779 -16.119  1.00  0.00     0.212 HD
ENDBRANCH   7  42
BRANCH   6  44
HETATM   44  C13 UNL     1      14.008 -19.917 -14.440  1.00  0.00     0.266 C 
BRANCH  44  45
HETATM   45  N4  UNL     1      14.991 -20.601 -15.179  1.00  0.00    -0.069 N 
HETATM   46  C14 UNL     1      15.127 -20.267 -16.550  1.00  0.00     0.272 C 
HETATM   47  C15 UNL     1      16.286 -20.348 -14.534  1.00  0.00     0.237 C 
HETATM   48  C16 UNL     1      17.274 -21.471 -14.791  1.00  0.00     0.028 C 
HETATM   49  C17 UNL     1      16.812 -22.623 -13.895  1.00  0.00     0.003 C 
HETATM   50  C18 UNL     1      15.294 -22.667 -13.863  1.00  0.00     0.028 C 
HETATM   51  C19 UNL     1      14.708 -22.051 -15.113  1.00  0.00     0.237 C 
ENDBRANCH  44  45
ENDBRANCH   6  44
TORSDOF 16
ENDMDL
MODEL 4
REMARK VINA RESULT: -9.777158156      2.974      9.291
REMARK  16 active torsions:
REMARK  status: ('A' for Active; 'I' for Inactive)
REMARK    1  A    between atoms: C2_2  and  C3_3 
REMARK    2  A    between atoms: N2_9  and  C6_10 
REMARK    3  A    between atoms: C6_10  and  C7_11 
REMARK    4  A    between atoms: C7_11  and  C8_12 
REMARK    5  A    between atoms: C8_12  and  C9_13 
REMARK    6  A    between atoms: C9_13  and  C10_14 
REMARK    7  A    between atoms: C12_19  and  C13_20 
REMARK    8  A    between atoms: C13_20  and  N4_21 
REMARK    9  A    between atoms: C20_28  and  O3_29 
REMARK   10  A    between atoms: N5_31  and  C21_32 
REMARK   11  A    between atoms: C21_32  and  O4_33 
REMARK   12  A    between atoms: C21_32  and  N6_35 
REMARK   13  A    between atoms: N6_35  and  C22_36 
REMARK   14  A    between atoms: N6_35  and  C30_46 
REMARK   15  A    between atoms: C22_36  and  C23_37 
REMARK       I    between atoms: C23_37  and  N7_39 
REMARK   16  A    between atoms: C30_46  and  C31_47 
ROOT
HETATM    1  C10 UNL     1       9.283 -18.096 -18.361  1.00  0.00     0.182 C 
HETATM    2  C11 UNL     1      10.235 -18.368 -19.414  1.00  0.00     0.241 C 
HETATM    3  O2  UNL     1      10.041 -17.952 -20.597  1.00  0.00    -0.271 OA
HETATM    4  N3  UNL     1      11.446 -19.106 -19.219  1.00  0.00    -0.349 N 
ATOM      5  H3  UNL     1      12.240 -18.928 -19.835  1.00  0.00     0.163 HD
HETATM    6  C12 UNL     1      11.579 -20.121 -18.148  1.00  0.00     0.159 C 
HETATM    7  C20 UNL     1      10.138 -20.284 -17.637  1.00  0.00     0.248 C 
HETATM    8  N5  UNL     1       9.569 -19.043 -17.235  1.00  0.00    -0.305 N 
ENDROOT
BRANCH   8   9
HETATM    9  C21 UNL     1       9.271 -18.616 -15.959  1.00  0.00     0.220 C 
BRANCH   9  10
HETATM   10  O4  UNL     1       8.561 -19.527 -15.287  1.00  0.00    -0.332 OA
ATOM     11  H4  UNL     1       8.775 -19.525 -14.362  1.00  0.00     0.220 HD
ENDBRANCH   9  10
BRANCH   9  12
HETATM   12  N6  UNL     1       9.539 -17.473 -15.233  1.00  0.00    -0.338 N 
BRANCH  12  13
HETATM   13  C22 UNL     1      10.540 -17.679 -14.130  1.00  0.00     0.229 C 
BRANCH  13  14
HETATM   14  C23 UNL     1      11.897 -17.833 -14.743  1.00  0.00     0.238 C 
HETATM   15  O5  UNL     1      12.404 -16.811 -15.271  1.00  0.00    -0.272 OA
HETATM   16  N7  UNL     1      12.556 -19.085 -14.714  1.00  0.00    -0.346 N 
HETATM   17  C24 UNL     1      13.866 -19.379 -15.260  1.00  0.00     0.131 C 
HETATM   18  C28 UNL     1      12.055 -20.289 -14.142  1.00  0.00     0.087 C 
HETATM   19  C25 UNL     1      14.080 -20.850 -14.966  1.00  0.00     0.006 C 
HETATM   20  C26 UNL     1      14.275 -20.997 -13.493  1.00  0.00     0.008 C 
HETATM   21  C29 UNL     1      12.626 -21.336 -15.118  1.00  0.00     0.031 C 
HETATM   22  C27 UNL     1      12.904 -20.624 -12.932  1.00  0.00     0.026 C 
ENDBRANCH  13  14
ENDBRANCH  12  13
BRANCH  12  23
HETATM   23  C30 UNL     1       9.032 -16.146 -15.305  1.00  0.00     0.131 C 
BRANCH  23  24
HETATM   24  C31 UNL     1       7.804 -15.850 -14.495  1.00  0.00     0.004 C 
HETATM   25  C32 UNL     1       7.883 -14.419 -13.925  1.00  0.00     0.006 C 
HETATM   26  C33 UNL     1       6.660 -13.695 -14.440  1.00  0.00     0.000 C 
HETATM   27  C34 UNL     1       6.335 -14.475 -15.714  1.00  0.00     0.000 C 
HETATM   28  C35 UNL     1       6.490 -15.903 -15.157  1.00  0.00     0.006 C 
ENDBRANCH  23  24
ENDBRANCH  12  23
ENDBRANCH   9  12
ENDBRANCH   8   9
BRANCH   1  29
HETATM   29  C9  UNL     1       7.838 -18.161 -18.693  1.00  0.00     0.035 C 
BRANCH  29  30
HETATM   30  C8  UNL     1       7.027 -16.948 -18.358  1.00  0.00     0.004 C 
BRANCH  30  31
HETATM   31  C7  UNL     1       5.568 -17.249 -18.548  1.00  0.00     0.020 C 
BRANCH  31  32
HETATM   32  C6  UNL     1       5.284 -18.353 -19.531  1.00  0.00     0.128 C 
BRANCH  32  33
HETATM   33  N2  UNL     1       3.893 -18.456 -19.898  1.00  0.00    -0.325 N 
HETATM   34  C3  UNL     1       2.872 -19.193 -19.216  1.00  0.00     0.129 C 
HETATM   35  C4  UNL     1       1.719 -19.249 -20.170  1.00  0.00     0.153 C 
HETATM   36  N1  UNL     1       1.887 -17.997 -20.922  1.00  0.00    -0.341 N 
HETATM   37  C5  UNL     1       3.309 -17.821 -21.015  1.00  0.00     0.319 C 
ATOM     38  H1  UNL     1       1.157 -17.389 -21.294  1.00  0.00     0.164 HD
HETATM   39  O1  UNL     1       3.885 -17.195 -21.961  1.00  0.00    -0.247 OA
BRANCH  34  40
HETATM   40  C2  UNL     1       3.326 -20.563 -18.810  1.00  0.00    -0.010 C 
HETATM   41  C1  UNL     1       2.736 -21.607 -19.345  1.00  0.00     0.009 C 
ENDBRANCH  34  40
ENDBRANCH  32  33
ENDBRANCH  31  32
ENDBRANCH  30  31
ENDBRANCH  29  30
ENDBRANCH   1  29
BRANCH   7  42
HETATM   42  O3  UNL     1       9.444 -20.789 -18.786  1.00  0.00    -0.374 OA
ATOM     43  H3  UNL     1       9.355 -20.021 -19.337  1.00  0.00     0.212 HD
ENDBRANCH   7  42
BRANCH   6  44
HETATM   44  C13 UNL     1      12.040 -21.340 -18.847  1.00  0.00     0.266 C 
BRANCH  44  45
HETATM   45  N4  UNL     1      13.413 -21.610 -19.003  1.00  0.00    -0.069 N 
HETATM   46  C14 UNL     1      14.327 -20.629 -18.545  1.00  0.00     0.272 C 
HETATM   47  C15 UNL     1      13.703 -22.855 -18.281  1.00  0.00     0.237 C 
HETATM   48  C16 UNL     1      14.899 -23.582 -18.867  1.00  0.00     0.028 C 
HETATM   49  C17 UNL     1      14.389 -24.207 -20.169  1.00  0.00     0.003 C 
HETATM   50  C18 UNL     1      13.417 -23.255 -20.844  1.00  0.00     0.028 C 
HETATM   51  C19 UNL     1      13.691 -21.824 -20.440  1.00  0.00     0.237 C 
ENDBRANCH  44  45
ENDBRANCH   6  44
TORSDOF 16
ENDMDL
MODEL 5
REMARK VINA RESULT: -9.766714751      2.657     10.333
REMARK  16 active torsions:
REMARK  status: ('A' for Active; 'I' for Inactive)
REMARK    1  A    between atoms: C2_2  and  C3_3 
REMARK    2  A    between atoms: N2_9  and  C6_10 
REMARK    3  A    between atoms: C6_10  and  C7_11 
REMARK    4  A    between atoms: C7_11  and  C8_12 
REMARK    5  A    between atoms: C8_12  and  C9_13 
REMARK    6  A    between atoms: C9_13  and  C10_14 
REMARK    7  A    between atoms: C12_19  and  C13_20 
REMARK    8  A    between atoms: C13_20  and  N4_21 
REMARK    9  A    between atoms: C20_28  and  O3_29 
REMARK   10  A    between atoms: N5_31  and  C21_32 
REMARK   11  A    between atoms: C21_32  and  O4_33 
REMARK   12  A    between atoms: C21_32  and  N6_35 
REMARK   13  A    between atoms: N6_35  and  C22_36 
REMARK   14  A    between atoms: N6_35  and  C30_46 
REMARK   15  A    between atoms: C22_36  and  C23_37 
REMARK       I    between atoms: C23_37  and  N7_39 
REMARK   16  A    between atoms: C30_46  and  C31_47 
ROOT
HETATM    1  C10 UNL     1       9.686 -18.524 -18.605  1.00  0.00     0.182 C 
HETATM    2  C11 UNL     1      10.251 -19.163 -19.771  1.00  0.00     0.241 C 
HETATM    3  O2  UNL     1       9.638 -19.156 -20.884  1.00  0.00    -0.271 OA
HETATM    4  N3  UNL     1      11.513 -19.837 -19.775  1.00  0.00    -0.349 N 
ATOM      5  H3  UNL     1      12.039 -19.902 -20.647  1.00  0.00     0.163 HD
HETATM    6  C12 UNL     1      12.078 -20.444 -18.547  1.00  0.00     0.159 C 
HETATM    7  C20 UNL     1      10.909 -20.377 -17.551  1.00  0.00     0.248 C 
HETATM    8  N5  UNL     1      10.407 -19.053 -17.402  1.00  0.00    -0.305 N 
ENDROOT
BRANCH   8   9
HETATM    9  C21 UNL     1      10.518 -18.217 -16.313  1.00  0.00     0.220 C 
BRANCH   9  10
HETATM   10  O4  UNL     1      10.792 -16.962 -16.682  1.00  0.00    -0.332 OA
ATOM     11  H4  UNL     1      11.723 -16.779 -16.642  1.00  0.00     0.220 HD
ENDBRANCH   9  10
BRANCH   9  12
HETATM   12  N6  UNL     1      10.411 -18.385 -14.948  1.00  0.00    -0.338 N 
BRANCH  12  13
HETATM   13  C22 UNL     1       9.615 -17.306 -14.267  1.00  0.00     0.229 C 
BRANCH  13  14
HETATM   14  C23 UNL     1       8.165 -17.522 -14.570  1.00  0.00     0.238 C 
HETATM   15  O5  UNL     1       7.682 -18.644 -14.273  1.00  0.00    -0.272 OA
HETATM   16  N7  UNL     1       7.398 -16.492 -15.164  1.00  0.00    -0.346 N 
HETATM   17  C24 UNL     1       5.991 -16.558 -15.506  1.00  0.00     0.131 C 
HETATM   18  C28 UNL     1       7.865 -15.199 -15.533  1.00  0.00     0.087 C 
HETATM   19  C25 UNL     1       5.683 -15.203 -16.112  1.00  0.00     0.006 C 
HETATM   20  C26 UNL     1       5.727 -14.193 -15.014  1.00  0.00     0.008 C 
HETATM   21  C29 UNL     1       7.033 -14.941 -16.805  1.00  0.00     0.031 C 
HETATM   22  C27 UNL     1       7.204 -14.183 -14.623  1.00  0.00     0.026 C 
ENDBRANCH  13  14
ENDBRANCH  12  13
BRANCH  12  23
HETATM   23  C30 UNL     1      10.930 -19.363 -14.054  1.00  0.00     0.131 C 
BRANCH  23  24
HETATM   24  C31 UNL     1      12.419 -19.384 -13.873  1.00  0.00     0.004 C 
HETATM   25  C32 UNL     1      12.797 -20.375 -12.752  1.00  0.00     0.006 C 
HETATM   26  C33 UNL     1      13.731 -21.383 -13.382  1.00  0.00     0.000 C 
HETATM   27  C34 UNL     1      13.333 -21.316 -14.857  1.00  0.00     0.000 C 
HETATM   28  C35 UNL     1      13.265 -19.785 -15.009  1.00  0.00     0.006 C 
ENDBRANCH  23  24
ENDBRANCH  12  23
ENDBRANCH   9  12
ENDBRANCH   8   9
BRANCH   1  29
HETATM   29  C9  UNL     1       8.222 -18.644 -18.383  1.00  0.00     0.035 C 
BRANCH  29  30
HETATM   30  C8  UNL     1       7.379 -17.531 -18.921  1.00  0.00     0.004 C 
BRANCH  30  31
HETATM   31  C7  UNL     1       6.421 -18.074 -19.943  1.00  0.00     0.020 C 
BRANCH  31  32
HETATM   32  C6  UNL     1       5.180 -18.696 -19.361  1.00  0.00     0.128 C 
BRANCH  32  33
HETATM   33  N2  UNL     1       3.996 -17.889 -19.527  1.00  0.00    -0.325 N 
HETATM   34  C3  UNL     1       3.270 -17.198 -18.503  1.00  0.00     0.129 C 
HETATM   35  C4  UNL     1       1.970 -16.808 -19.134  1.00  0.00     0.153 C 
HETATM   36  N1  UNL     1       2.354 -16.641 -20.544  1.00  0.00    -0.341 N 
HETATM   37  C5  UNL     1       3.360 -17.643 -20.762  1.00  0.00     0.319 C 
ATOM     38  H1  UNL     1       1.989 -15.966 -21.215  1.00  0.00     0.164 HD
HETATM   39  O1  UNL     1       3.591 -18.180 -21.893  1.00  0.00    -0.247 OA
BRANCH  34  40
HETATM   40  C2  UNL     1       3.065 -18.039 -17.279  1.00  0.00    -0.010 C 
HETATM   41  C1  UNL     1       2.602 -17.467 -16.191  1.00  0.00     0.009 C 
ENDBRANCH  34  40
ENDBRANCH  32  33
ENDBRANCH  31  32
ENDBRANCH  30  31
ENDBRANCH  29  30
ENDBRANCH   1  29
BRANCH   7  42
HETATM   42  O3  UNL     1       9.915 -21.210 -18.164  1.00  0.00    -0.374 OA
ATOM     43  H3  UNL     1      10.055 -22.051 -17.748  1.00  0.00     0.212 HD
ENDBRANCH   7  42
BRANCH   6  44
HETATM   44  C13 UNL     1      12.378 -21.841 -18.928  1.00  0.00     0.266 C 
BRANCH  44  45
HETATM   45  N4  UNL     1      13.704 -22.310 -18.978  1.00  0.00    -0.069 N 
HETATM   46  C14 UNL     1      14.675 -21.604 -18.225  1.00  0.00     0.272 C 
HETATM   47  C15 UNL     1      13.702 -23.699 -18.503  1.00  0.00     0.237 C 
HETATM   48  C16 UNL     1      14.851 -24.499 -19.087  1.00  0.00     0.028 C 
HETATM   49  C17 UNL     1      14.451 -24.772 -20.540  1.00  0.00     0.003 C 
HETATM   50  C18 UNL     1      13.738 -23.557 -21.108  1.00  0.00     0.028 C 
HETATM   51  C19 UNL     1      14.155 -22.296 -20.387  1.00  0.00     0.237 C 
ENDBRANCH  44  45
ENDBRANCH   6  44
TORSDOF 16
ENDMDL
