MODEL 1
REMARK VINA RESULT: -10.759381546      0.000      0.000
REMARK  11 active torsions:
REMARK  status: ('A' for Active; 'I' for Inactive)
REMARK    1  A    between atoms: C7_9  and  C8_10 
REMARK    2  A    between atoms: C8_10  and  C9_11 
REMARK       I    between atoms: C9_11  and  N2_13 
REMARK    3  A    between atoms: N4_18  and  C11_19 
REMARK    4  A    between atoms: C11_19  and  C12_20 
REMARK    5  A    between atoms: C15_23  and  C16_24 
REMARK    6  A    between atoms: C16_24  and  C17_25 
REMARK    7  A    between atoms: C17_25  and  C18_26 
REMARK    8  A    between atoms: C18_26  and  O2_27 
REMARK    9  A    between atoms: C22_33  and  C23_34 
REMARK   10  A    between atoms: C23_34  and  C24_35 
REMARK   11  A    between atoms: C28_39  and  C29_40 
ROOT
HETATM    1  C9  UNL     1     -11.190  14.409  28.757  1.00  0.00     0.227 C 
HETATM    2  O1  UNL     1     -10.547  14.163  29.805  1.00  0.00    -0.273 OA
HETATM    3  N2  UNL     1     -10.689  15.264  27.793  1.00  0.00    -0.306 N 
ATOM      4  H2  UNL     1     -11.209  15.276  26.915  1.00  0.00     0.171 HD
HETATM    5  C10 UNL     1      -9.714  16.013  27.829  1.00  0.00     0.167 C 
HETATM    6  N3  UNL     1      -8.833  16.185  28.917  1.00  0.00    -0.274 N 
ATOM      7  H3  UNL     1      -9.196  16.041  29.860  1.00  0.00     0.189 HD
HETATM    8  N4  UNL     1      -7.488  16.543  28.771  1.00  0.00    -0.250 N 
HETATM    9  C21 UNL     1      -6.826  16.784  27.515  1.00  0.00     0.279 C 
HETATM   10  O3  UNL     1      -5.603  17.092  27.507  1.00  0.00    -0.265 OA
HETATM   11  C22 UNL     1      -7.478  16.689  26.240  1.00  0.00     0.078 C 
HETATM   12  S1  UNL     1      -9.292  16.999  26.338  1.00  0.00    -0.047 SA
ENDROOT
BRANCH   1  13
HETATM   13  C8  UNL     1     -12.517  13.721  28.626  1.00  0.00     0.144 C 
BRANCH  13  14
HETATM   14  C7  UNL     1     -12.274  12.264  28.527  1.00  0.00    -0.021 A 
HETATM   15  C6  UNL     1     -11.900  11.523  27.417  1.00  0.00     0.097 A 
HETATM   16  N1  UNL     1     -11.781  10.237  27.756  1.00  0.00    -0.365 N 
HETATM   17  C5  UNL     1     -12.073  10.139  29.064  1.00  0.00     0.043 A 
ATOM     18  H1  UNL     1     -11.518   9.471  27.137  1.00  0.00     0.165 HD
HETATM   19  C4  UNL     1     -12.104   9.050  29.907  1.00  0.00     0.031 A 
HETATM   20  C31 UNL     1     -12.389  11.394  29.588  1.00  0.00    -0.001 A 
HETATM   21  C3  UNL     1     -12.444   9.208  31.240  1.00  0.00     0.009 A 
HETATM   22  C2  UNL     1     -12.760  10.440  31.772  1.00  0.00    -0.061 A 
HETATM   23  C1  UNL     1     -13.120  10.556  33.199  1.00  0.00     0.048 C 
HETATM   24  C32 UNL     1     -12.725  11.519  30.921  1.00  0.00     0.021 A 
ENDBRANCH  13  14
ENDBRANCH   1  13
BRANCH   8  25
HETATM   25  C11 UNL     1      -6.720  16.695  29.999  1.00  0.00     0.191 C 
BRANCH  25  26
HETATM   26  C12 UNL     1      -7.324  15.857  31.050  1.00  0.00    -0.038 A 
HETATM   27  C13 UNL     1      -7.356  14.497  30.939  1.00  0.00     0.009 A 
HETATM   28  C14 UNL     1      -7.928  13.750  31.946  1.00  0.00     0.007 A 
HETATM   29  C15 UNL     1      -8.470  14.337  33.062  1.00  0.00    -0.058 A 
HETATM   30  C19 UNL     1      -8.422  15.707  33.142  1.00  0.00     0.007 A 
HETATM   31  C20 UNL     1      -7.861  16.486  32.161  1.00  0.00     0.009 A 
BRANCH  29  32
HETATM   32  C16 UNL     1      -9.090  13.553  34.153  1.00  0.00     0.041 C 
BRANCH  32  33
HETATM   33  C17 UNL     1     -10.388  12.975  33.613  1.00  0.00     0.030 C 
BRANCH  33  34
HETATM   34  C18 UNL     1     -11.543  13.933  33.830  1.00  0.00     0.164 C 
BRANCH  34  35
HETATM   35  O2  UNL     1     -11.849  14.508  32.595  1.00  0.00    -0.401 OA
ATOM     36  H2  UNL     1     -12.352  13.872  32.101  1.00  0.00     0.209 HD
ENDBRANCH  34  35
ENDBRANCH  33  34
ENDBRANCH  32  33
ENDBRANCH  29  32
ENDBRANCH  25  26
ENDBRANCH   8  25
BRANCH  11  37
HETATM   37  C23 UNL     1      -7.003  16.422  25.085  1.00  0.00     0.036 C 
BRANCH  37  38
HETATM   38  C24 UNL     1      -7.467  15.627  23.969  1.00  0.00    -0.034 A 
HETATM   39  C25 UNL     1      -7.707  14.265  24.162  1.00  0.00     0.011 A 
HETATM   40  C26 UNL     1      -8.201  13.504  23.157  1.00  0.00     0.002 A 
HETATM   41  C27 UNL     1      -8.478  14.034  21.942  1.00  0.00     0.015 A 
HETATM   42  C28 UNL     1      -8.262  15.364  21.700  1.00  0.00     0.005 A 
HETATM   43  C30 UNL     1      -7.751  16.134  22.752  1.00  0.00     0.026 A 
BRANCH  42  44
HETATM   44  C29 UNL     1      -8.548  15.970  20.404  1.00  0.00     0.120 C 
HETATM   45  N5  UNL     1      -9.585  15.612  19.762  1.00  0.00    -0.387 N 
ATOM     46  H52 UNL     1     -10.214  14.909  20.151  1.00  0.00     0.157 HD
ATOM     47  H51 UNL     1      -9.785  16.036  18.856  1.00  0.00     0.157 HD
HETATM   48  N6  UNL     1      -7.682  16.938  19.869  1.00  0.00    -0.082 NA
ENDBRANCH  42  44
ENDBRANCH  37  38
ENDBRANCH  11  37
TORSDOF 11
ENDMDL
MODEL 2
REMARK VINA RESULT: -10.721474661      3.109     10.286
REMARK  11 active torsions:
REMARK  status: ('A' for Active; 'I' for Inactive)
REMARK    1  A    between atoms: C7_9  and  C8_10 
REMARK    2  A    between atoms: C8_10  and  C9_11 
REMARK       I    between atoms: C9_11  and  N2_13 
REMARK    3  A    between atoms: N4_18  and  C11_19 
REMARK    4  A    between atoms: C11_19  and  C12_20 
REMARK    5  A    between atoms: C15_23  and  C16_24 
REMARK    6  A    between atoms: C16_24  and  C17_25 
REMARK    7  A    between atoms: C17_25  and  C18_26 
REMARK    8  A    between atoms: C18_26  and  O2_27 
REMARK    9  A    between atoms: C22_33  and  C23_34 
REMARK   10  A    between atoms: C23_34  and  C24_35 
REMARK   11  A    between atoms: C28_39  and  C29_40 
ROOT
HETATM    1  C9  UNL     1      -7.177  17.211  25.925  1.00  0.00     0.227 C 
HETATM    2  O1  UNL     1      -7.338  16.672  24.804  1.00  0.00    -0.273 OA
HETATM    3  N2  UNL     1      -8.080  17.009  26.953  1.00  0.00    -0.306 N 
ATOM      4  H2  UNL     1      -7.781  17.359  27.863  1.00  0.00     0.171 HD
HETATM    5  C10 UNL     1      -9.186  16.472  26.940  1.00  0.00     0.167 C 
HETATM    6  N3  UNL     1      -9.829  15.910  25.818  1.00  0.00    -0.274 N 
ATOM      7  H3  UNL     1      -9.619  16.296  24.897  1.00  0.00     0.189 HD
HETATM    8  N4  UNL     1     -10.739  14.849  25.901  1.00  0.00    -0.250 N 
HETATM    9  C21 UNL     1     -11.141  14.196  27.120  1.00  0.00     0.279 C 
HETATM   10  O3  UNL     1     -11.964  13.241  27.070  1.00  0.00    -0.265 OA
HETATM   11  C22 UNL     1     -10.655  14.564  28.419  1.00  0.00     0.078 C 
HETATM   12  S1  UNL     1     -10.125  16.327  28.512  1.00  0.00    -0.047 SA
ENDROOT
BRANCH   1  13
HETATM   13  C8  UNL     1      -5.958  18.074  26.069  1.00  0.00     0.144 C 
BRANCH  13  14
HETATM   14  C7  UNL     1      -4.776  17.190  26.168  1.00  0.00    -0.021 A 
HETATM   15  C6  UNL     1      -4.230  16.599  27.298  1.00  0.00     0.097 A 
HETATM   16  N1  UNL     1      -3.166  15.870  26.952  1.00  0.00    -0.365 N 
HETATM   17  C5  UNL     1      -3.018  15.983  25.621  1.00  0.00     0.043 A 
ATOM     18  H1  UNL     1      -2.574  15.329  27.582  1.00  0.00     0.165 HD
HETATM   19  C4  UNL     1      -2.087  15.441  24.763  1.00  0.00     0.031 A 
HETATM   20  C31 UNL     1      -4.012  16.806  25.088  1.00  0.00    -0.001 A 
HETATM   21  C3  UNL     1      -2.146  15.713  23.407  1.00  0.00     0.009 A 
HETATM   22  C2  UNL     1      -3.120  16.524  22.866  1.00  0.00    -0.061 A 
HETATM   23  C1  UNL     1      -3.137  16.787  21.414  1.00  0.00     0.048 C 
HETATM   24  C32 UNL     1      -4.043  17.059  23.732  1.00  0.00     0.021 A 
ENDBRANCH  13  14
ENDBRANCH   1  13
BRANCH   8  25
HETATM   25  C11 UNL     1     -11.325  14.397  24.646  1.00  0.00     0.191 C 
BRANCH  25  26
HETATM   26  C12 UNL     1     -10.249  14.188  23.661  1.00  0.00    -0.038 A 
HETATM   27  C13 UNL     1      -9.022  13.725  24.040  1.00  0.00     0.009 A 
HETATM   28  C14 UNL     1      -8.045  13.541  23.086  1.00  0.00     0.007 A 
HETATM   29  C15 UNL     1      -8.270  13.814  21.760  1.00  0.00    -0.058 A 
HETATM   30  C19 UNL     1      -9.514  14.280  21.413  1.00  0.00     0.007 A 
HETATM   31  C20 UNL     1     -10.514  14.476  22.332  1.00  0.00     0.009 A 
BRANCH  29  32
HETATM   32  C16 UNL     1      -7.233  13.626  20.721  1.00  0.00     0.041 C 
BRANCH  32  33
HETATM   33  C17 UNL     1      -7.382  14.762  19.723  1.00  0.00     0.030 C 
BRANCH  33  34
HETATM   34  C18 UNL     1      -6.771  16.042  20.260  1.00  0.00     0.164 C 
BRANCH  34  35
HETATM   35  O2  UNL     1      -7.601  17.096  19.875  1.00  0.00    -0.401 OA
ATOM     36  H2  UNL     1      -7.426  17.278  18.959  1.00  0.00     0.209 HD
ENDBRANCH  34  35
ENDBRANCH  33  34
ENDBRANCH  32  33
ENDBRANCH  29  32
ENDBRANCH  25  26
ENDBRANCH   8  25
BRANCH  11  37
HETATM   37  C23 UNL     1     -10.531  13.870  29.483  1.00  0.00     0.036 C 
BRANCH  37  38
HETATM   38  C24 UNL     1      -9.598  13.888  30.590  1.00  0.00    -0.034 A 
HETATM   39  C25 UNL     1      -8.249  13.632  30.342  1.00  0.00     0.011 A 
HETATM   40  C26 UNL     1      -7.339  13.702  31.342  1.00  0.00     0.002 A 
HETATM   41  C27 UNL     1      -7.706  14.022  32.606  1.00  0.00     0.015 A 
HETATM   42  C28 UNL     1      -9.016  14.283  32.904  1.00  0.00     0.005 A 
HETATM   43  C30 UNL     1      -9.941  14.206  31.855  1.00  0.00     0.026 A 
BRANCH  42  44
HETATM   44  C29 UNL     1      -9.448  14.631  34.253  1.00  0.00     0.120 C 
HETATM   45  N5  UNL     1      -8.666  14.422  35.233  1.00  0.00    -0.387 N 
ATOM     46  H52 UNL     1      -7.743  14.017  35.077  1.00  0.00     0.157 HD
ATOM     47  H51 UNL     1      -8.968  14.665  36.177  1.00  0.00     0.157 HD
HETATM   48  N6  UNL     1     -10.719  15.190  34.468  1.00  0.00    -0.082 NA
ENDBRANCH  42  44
ENDBRANCH  37  38
ENDBRANCH  11  37
TORSDOF 11
ENDMDL
MODEL 3
REMARK VINA RESULT: -10.685841119      3.374     10.510
REMARK  11 active torsions:
REMARK  status: ('A' for Active; 'I' for Inactive)
REMARK    1  A    between atoms: C7_9  and  C8_10 
REMARK    2  A    between atoms: C8_10  and  C9_11 
REMARK       I    between atoms: C9_11  and  N2_13 
REMARK    3  A    between atoms: N4_18  and  C11_19 
REMARK    4  A    between atoms: C11_19  and  C12_20 
REMARK    5  A    between atoms: C15_23  and  C16_24 
REMARK    6  A    between atoms: C16_24  and  C17_25 
REMARK    7  A    between atoms: C17_25  and  C18_26 
REMARK    8  A    between atoms: C18_26  and  O2_27 
REMARK    9  A    between atoms: C22_33  and  C23_34 
REMARK   10  A    between atoms: C23_34  and  C24_35 
REMARK   11  A    between atoms: C28_39  and  C29_40 
ROOT
HETATM    1  C9  UNL     1      -5.847  16.002  27.575  1.00  0.00     0.227 C 
HETATM    2  O1  UNL     1      -5.744  14.944  26.912  1.00  0.00    -0.273 OA
HETATM    3  N2  UNL     1      -7.047  16.371  28.155  1.00  0.00    -0.306 N 
ATOM      4  H2  UNL     1      -6.990  17.160  28.798  1.00  0.00     0.171 HD
HETATM    5  C10 UNL     1      -8.173  15.895  28.014  1.00  0.00     0.167 C 
HETATM    6  N3  UNL     1      -8.523  14.807  27.187  1.00  0.00    -0.274 N 
ATOM      7  H3  UNL     1      -7.968  14.642  26.347  1.00  0.00     0.189 HD
HETATM    8  N4  UNL     1      -9.591  13.944  27.458  1.00  0.00    -0.250 N 
HETATM    9  C21 UNL     1     -10.468  14.043  28.596  1.00  0.00     0.279 C 
HETATM   10  O3  UNL     1     -11.393  13.199  28.741  1.00  0.00    -0.265 OA
HETATM   11  C22 UNL     1     -10.354  15.059  29.604  1.00  0.00     0.078 C 
HETATM   12  S1  UNL     1      -9.567  16.603  28.978  1.00  0.00    -0.047 SA
ENDROOT
BRANCH   1  13
HETATM   13  C8  UNL     1      -4.599  16.826  27.693  1.00  0.00     0.144 C 
BRANCH  13  14
HETATM   14  C7  UNL     1      -4.372  17.509  26.399  1.00  0.00    -0.021 A 
HETATM   15  C6  UNL     1      -4.863  18.732  25.970  1.00  0.00     0.097 A 
HETATM   16  N1  UNL     1      -4.416  18.986  24.737  1.00  0.00    -0.365 N 
HETATM   17  C5  UNL     1      -3.647  17.947  24.368  1.00  0.00     0.043 A 
ATOM     18  H1  UNL     1      -4.620  19.815  24.179  1.00  0.00     0.165 HD
HETATM   19  C4  UNL     1      -2.952  17.702  23.204  1.00  0.00     0.031 A 
HETATM   20  C31 UNL     1      -3.594  16.994  25.387  1.00  0.00    -0.001 A 
HETATM   21  C3  UNL     1      -2.221  16.535  23.060  1.00  0.00     0.009 A 
HETATM   22  C2  UNL     1      -2.160  15.584  24.056  1.00  0.00    -0.061 A 
HETATM   23  C1  UNL     1      -1.371  14.354  23.852  1.00  0.00     0.048 C 
HETATM   24  C32 UNL     1      -2.857  15.840  25.212  1.00  0.00     0.021 A 
ENDBRANCH  13  14
ENDBRANCH   1  13
BRANCH   8  25
HETATM   25  C11 UNL     1      -9.826  12.880  26.492  1.00  0.00     0.191 C 
BRANCH  25  26
HETATM   26  C12 UNL     1      -9.694  13.429  25.131  1.00  0.00    -0.038 A 
HETATM   27  C13 UNL     1      -8.497  13.418  24.475  1.00  0.00     0.009 A 
HETATM   28  C14 UNL     1      -8.418  13.939  23.202  1.00  0.00     0.007 A 
HETATM   29  C15 UNL     1      -9.514  14.474  22.572  1.00  0.00    -0.058 A 
HETATM   30  C19 UNL     1     -10.703  14.471  23.259  1.00  0.00     0.007 A 
HETATM   31  C20 UNL     1     -10.822  13.961  24.527  1.00  0.00     0.009 A 
BRANCH  29  32
HETATM   32  C16 UNL     1      -9.450  15.040  21.206  1.00  0.00     0.041 C 
BRANCH  32  33
HETATM   33  C17 UNL     1      -8.082  14.699  20.639  1.00  0.00     0.030 C 
BRANCH  33  34
HETATM   34  C18 UNL     1      -7.330  15.953  20.238  1.00  0.00     0.164 C 
BRANCH  34  35
HETATM   35  O2  UNL     1      -8.265  16.862  19.741  1.00  0.00    -0.401 OA
ATOM     36  H2  UNL     1      -7.819  17.691  19.614  1.00  0.00     0.209 HD
ENDBRANCH  34  35
ENDBRANCH  33  34
ENDBRANCH  32  33
ENDBRANCH  29  32
ENDBRANCH  25  26
ENDBRANCH   8  25
BRANCH  11  37
HETATM   37  C23 UNL     1     -10.699  15.048  30.832  1.00  0.00     0.036 C 
BRANCH  37  38
HETATM   38  C24 UNL     1     -10.074  14.569  32.046  1.00  0.00    -0.034 A 
HETATM   39  C25 UNL     1      -8.850  15.114  32.438  1.00  0.00     0.011 A 
HETATM   40  C26 UNL     1      -8.267  14.735  33.599  1.00  0.00     0.002 A 
HETATM   41  C27 UNL     1      -8.848  13.822  34.414  1.00  0.00     0.015 A 
HETATM   42  C28 UNL     1     -10.049  13.256  34.078  1.00  0.00     0.005 A 
HETATM   43  C30 UNL     1     -10.635  13.662  32.873  1.00  0.00     0.026 A 
BRANCH  42  44
HETATM   44  C29 UNL     1     -10.704  12.270  34.930  1.00  0.00     0.120 C 
HETATM   45  N5  UNL     1     -11.636  12.639  35.711  1.00  0.00    -0.387 N 
ATOM     46  H52 UNL     1     -11.927  13.617  35.739  1.00  0.00     0.157 HD
ATOM     47  H51 UNL     1     -12.094  11.950  36.307  1.00  0.00     0.157 HD
HETATM   48  N6  UNL     1     -10.304  10.924  34.891  1.00  0.00    -0.082 NA
ENDBRANCH  42  44
ENDBRANCH  37  38
ENDBRANCH  11  37
TORSDOF 11
ENDMDL
MODEL 4
REMARK VINA RESULT: -10.500487847      1.964      2.780
REMARK  11 active torsions:
REMARK  status: ('A' for Active; 'I' for Inactive)
REMARK    1  A    between atoms: C7_9  and  C8_10 
REMARK    2  A    between atoms: C8_10  and  C9_11 
REMARK       I    between atoms: C9_11  and  N2_13 
REMARK    3  A    between atoms: N4_18  and  C11_19 
REMARK    4  A    between atoms: C11_19  and  C12_20 
REMARK    5  A    between atoms: C15_23  and  C16_24 
REMARK    6  A    between atoms: C16_24  and  C17_25 
REMARK    7  A    between atoms: C17_25  and  C18_26 
REMARK    8  A    between atoms: C18_26  and  O2_27 
REMARK    9  A    between atoms: C22_33  and  C23_34 
REMARK   10  A    between atoms: C23_34  and  C24_35 
REMARK   11  A    between atoms: C28_39  and  C29_40 
ROOT
HETATM    1  C9  UNL     1     -10.803  13.071  26.330  1.00  0.00     0.227 C 
HETATM    2  O1  UNL     1      -9.958  12.493  27.054  1.00  0.00    -0.273 OA
HETATM    3  N2  UNL     1     -10.518  14.279  25.721  1.00  0.00    -0.306 N 
ATOM      4  H2  UNL     1     -11.206  14.588  25.034  1.00  0.00     0.171 HD
HETATM    5  C10 UNL     1      -9.564  15.040  25.880  1.00  0.00     0.167 C 
HETATM    6  N3  UNL     1      -8.483  14.850  26.765  1.00  0.00    -0.274 N 
ATOM      7  H3  UNL     1      -8.645  14.313  27.617  1.00  0.00     0.189 HD
HETATM    8  N4  UNL     1      -7.200  15.360  26.536  1.00  0.00    -0.250 N 
HETATM    9  C21 UNL     1      -6.809  16.136  25.386  1.00  0.00     0.279 C 
HETATM   10  O3  UNL     1      -5.617  16.534  25.283  1.00  0.00    -0.265 OA
HETATM   11  C22 UNL     1      -7.706  16.492  24.324  1.00  0.00     0.078 C 
HETATM   12  S1  UNL     1      -9.466  16.569  24.866  1.00  0.00    -0.047 SA
ENDROOT
BRANCH   1  13
HETATM   13  C8  UNL     1     -12.121  12.371  26.175  1.00  0.00     0.144 C 
BRANCH  13  14
HETATM   14  C7  UNL     1     -12.868  12.507  27.445  1.00  0.00    -0.021 A 
HETATM   15  C6  UNL     1     -13.698  13.540  27.854  1.00  0.00     0.097 A 
HETATM   16  N1  UNL     1     -14.182  13.273  29.069  1.00  0.00    -0.365 N 
HETATM   17  C5  UNL     1     -13.677  12.086  29.449  1.00  0.00     0.043 A 
ATOM     18  H1  UNL     1     -14.816  13.860  29.610  1.00  0.00     0.165 HD
HETATM   19  C4  UNL     1     -13.850  11.354  30.602  1.00  0.00     0.031 A 
HETATM   20  C31 UNL     1     -12.844  11.570  28.454  1.00  0.00    -0.001 A 
HETATM   21  C3  UNL     1     -13.208  10.138  30.761  1.00  0.00     0.009 A 
HETATM   22  C2  UNL     1     -12.381   9.616  29.789  1.00  0.00    -0.061 A 
HETATM   23  C1  UNL     1     -11.716   8.317  30.008  1.00  0.00     0.048 C 
HETATM   24  C32 UNL     1     -12.217  10.355  28.642  1.00  0.00     0.021 A 
ENDBRANCH  13  14
ENDBRANCH   1  13
BRANCH   8  25
HETATM   25  C11 UNL     1      -6.200  15.086  27.559  1.00  0.00     0.191 C 
BRANCH  25  26
HETATM   26  C12 UNL     1      -6.811  15.266  28.888  1.00  0.00    -0.038 A 
HETATM   27  C13 UNL     1      -6.808  16.480  29.510  1.00  0.00     0.009 A 
HETATM   28  C14 UNL     1      -7.393  16.605  30.752  1.00  0.00     0.007 A 
HETATM   29  C15 UNL     1      -7.980  15.538  31.384  1.00  0.00    -0.058 A 
HETATM   30  C19 UNL     1      -7.965  14.330  30.731  1.00  0.00     0.007 A 
HETATM   31  C20 UNL     1      -7.394  14.164  29.494  1.00  0.00     0.009 A 
BRANCH  29  32
HETATM   32  C16 UNL     1      -8.612  15.651  32.717  1.00  0.00     0.041 C 
BRANCH  32  33
HETATM   33  C17 UNL     1      -8.519  14.285  33.378  1.00  0.00     0.030 C 
BRANCH  33  34
HETATM   34  C18 UNL     1      -9.549  14.143  34.482  1.00  0.00     0.164 C 
BRANCH  34  35
HETATM   35  O2  UNL     1     -10.358  15.280  34.450  1.00  0.00    -0.401 OA
ATOM     36  H2  UNL     1     -10.783  15.352  35.296  1.00  0.00     0.209 HD
ENDBRANCH  34  35
ENDBRANCH  33  34
ENDBRANCH  32  33
ENDBRANCH  29  32
ENDBRANCH  25  26
ENDBRANCH   8  25
BRANCH  11  37
HETATM   37  C23 UNL     1      -7.473  16.746  23.095  1.00  0.00     0.036 C 
BRANCH  37  38
HETATM   38  C24 UNL     1      -7.383  15.933  21.901  1.00  0.00    -0.034 A 
HETATM   39  C25 UNL     1      -8.505  15.213  21.487  1.00  0.00     0.011 A 
HETATM   40  C26 UNL     1      -8.475  14.492  20.341  1.00  0.00     0.002 A 
HETATM   41  C27 UNL     1      -7.366  14.448  19.565  1.00  0.00     0.015 A 
HETATM   42  C28 UNL     1      -6.239  15.136  19.925  1.00  0.00     0.005 A 
HETATM   43  C30 UNL     1      -6.290  15.876  21.112  1.00  0.00     0.026 A 
BRANCH  42  44
HETATM   44  C29 UNL     1      -5.027  15.112  19.113  1.00  0.00     0.120 C 
HETATM   45  N5  UNL     1      -3.894  15.023  19.683  1.00  0.00    -0.387 N 
ATOM     46  H52 UNL     1      -3.833  14.966  20.700  1.00  0.00     0.157 HD
ATOM     47  H51 UNL     1      -3.047  15.006  19.116  1.00  0.00     0.157 HD
HETATM   48  N6  UNL     1      -5.111  15.189  17.713  1.00  0.00    -0.082 NA
ENDBRANCH  42  44
ENDBRANCH  37  38
ENDBRANCH  11  37
TORSDOF 11
ENDMDL
MODEL 5
REMARK VINA RESULT: -10.419160321      3.190     10.468
REMARK  11 active torsions:
REMARK  status: ('A' for Active; 'I' for Inactive)
REMARK    1  A    between atoms: C7_9  and  C8_10 
REMARK    2  A    between atoms: C8_10  and  C9_11 
REMARK       I    between atoms: C9_11  and  N2_13 
REMARK    3  A    between atoms: N4_18  and  C11_19 
REMARK    4  A    between atoms: C11_19  and  C12_20 
REMARK    5  A    between atoms: C15_23  and  C16_24 
REMARK    6  A    between atoms: C16_24  and  C17_25 
REMARK    7  A    between atoms: C17_25  and  C18_26 
REMARK    8  A    between atoms: C18_26  and  O2_27 
REMARK    9  A    between atoms: C22_33  and  C23_34 
REMARK   10  A    between atoms: C23_34  and  C24_35 
REMARK   11  A    between atoms: C28_39  and  C29_40 
ROOT
HETATM    1  C9  UNL     1      -7.050  17.395  26.062  1.00  0.00     0.227 C 
HETATM    2  O1  UNL     1      -7.426  16.799  25.025  1.00  0.00    -0.273 OA
HETATM    3  N2  UNL     1      -7.611  17.113  27.294  1.00  0.00    -0.306 N 
ATOM      4  H2  UNL     1      -7.133  17.533  28.091  1.00  0.00     0.171 HD
HETATM    5  C10 UNL     1      -8.596  16.433  27.578  1.00  0.00     0.167 C 
HETATM    6  N3  UNL     1      -9.429  15.749  26.668  1.00  0.00    -0.274 N 
ATOM      7  H3  UNL     1      -9.526  16.126  25.725  1.00  0.00     0.189 HD
HETATM    8  N4  UNL     1     -10.129  14.581  26.992  1.00  0.00    -0.250 N 
HETATM    9  C21 UNL     1     -10.099  13.925  28.274  1.00  0.00     0.279 C 
HETATM   10  O3  UNL     1     -10.765  12.869  28.446  1.00  0.00    -0.265 OA
HETATM   11  C22 UNL     1      -9.342  14.402  29.396  1.00  0.00     0.078 C 
HETATM   12  S1  UNL     1      -9.055  16.223  29.344  1.00  0.00    -0.047 SA
ENDROOT
BRANCH   1  13
HETATM   13  C8  UNL     1      -5.968  18.418  25.875  1.00  0.00     0.144 C 
BRANCH  13  14
HETATM   14  C7  UNL     1      -4.667  17.713  25.843  1.00  0.00    -0.021 A 
HETATM   15  C6  UNL     1      -3.858  17.343  26.907  1.00  0.00     0.097 A 
HETATM   16  N1  UNL     1      -2.770  16.720  26.447  1.00  0.00    -0.365 N 
HETATM   17  C5  UNL     1      -2.866  16.684  25.107  1.00  0.00     0.043 A 
ATOM     18  H1  UNL     1      -2.008  16.343  27.009  1.00  0.00     0.165 HD
HETATM   19  C4  UNL     1      -2.022  16.163  24.152  1.00  0.00     0.031 A 
HETATM   20  C31 UNL     1      -4.047  17.298  24.686  1.00  0.00    -0.001 A 
HETATM   21  C3  UNL     1      -2.347  16.253  22.809  1.00  0.00     0.009 A 
HETATM   22  C2  UNL     1      -3.508  16.858  22.377  1.00  0.00    -0.061 A 
HETATM   23  C1  UNL     1      -3.806  16.933  20.934  1.00  0.00     0.048 C 
HETATM   24  C32 UNL     1      -4.342  17.374  23.340  1.00  0.00     0.021 A 
ENDBRANCH  13  14
ENDBRANCH   1  13
BRANCH   8  25
HETATM   25  C11 UNL     1     -10.958  14.009  25.940  1.00  0.00     0.191 C 
BRANCH  25  26
HETATM   26  C12 UNL     1     -10.209  14.033  24.671  1.00  0.00    -0.038 A 
HETATM   27  C13 UNL     1      -8.899  13.654  24.615  1.00  0.00     0.009 A 
HETATM   28  C14 UNL     1      -8.236  13.690  23.407  1.00  0.00     0.007 A 
HETATM   29  C15 UNL     1      -8.858  14.098  22.254  1.00  0.00    -0.058 A 
HETATM   30  C19 UNL     1     -10.176  14.474  22.345  1.00  0.00     0.007 A 
HETATM   31  C20 UNL     1     -10.871  14.452  23.529  1.00  0.00     0.009 A 
BRANCH  29  32
HETATM   32  C16 UNL     1      -8.164  14.145  20.948  1.00  0.00     0.041 C 
BRANCH  32  33
HETATM   33  C17 UNL     1      -7.030  15.149  21.075  1.00  0.00     0.030 C 
BRANCH  33  34
HETATM   34  C18 UNL     1      -7.548  16.571  20.976  1.00  0.00     0.164 C 
BRANCH  34  35
HETATM   35  O2  UNL     1      -8.287  16.668  19.796  1.00  0.00    -0.401 OA
ATOM     36  H2  UNL     1      -7.719  17.043  19.133  1.00  0.00     0.209 HD
ENDBRANCH  34  35
ENDBRANCH  33  34
ENDBRANCH  32  33
ENDBRANCH  29  32
ENDBRANCH  25  26
ENDBRANCH   8  25
BRANCH  11  37
HETATM   37  C23 UNL     1      -8.845  13.771  30.388  1.00  0.00     0.036 C 
BRANCH  37  38
HETATM   38  C24 UNL     1      -9.100  13.780  31.812  1.00  0.00    -0.034 A 
HETATM   39  C25 UNL     1      -8.143  14.329  32.668  1.00  0.00     0.011 A 
HETATM   40  C26 UNL     1      -8.376  14.410  33.999  1.00  0.00     0.002 A 
HETATM   41  C27 UNL     1      -9.536  13.968  34.540  1.00  0.00     0.015 A 
HETATM   42  C28 UNL     1     -10.509  13.422  33.746  1.00  0.00     0.005 A 
HETATM   43  C30 UNL     1     -10.249  13.347  32.372  1.00  0.00     0.026 A 
BRANCH  42  44
HETATM   44  C29 UNL     1     -11.770  12.935  34.293  1.00  0.00     0.120 C 
HETATM   45  N5  UNL     1     -11.994  13.042  35.539  1.00  0.00    -0.387 N 
ATOM     46  H52 UNL     1     -11.298  13.468  36.152  1.00  0.00     0.157 HD
ATOM     47  H51 UNL     1     -12.876  12.701  35.922  1.00  0.00     0.157 HD
HETATM   48  N6  UNL     1     -12.729  12.349  33.449  1.00  0.00    -0.082 NA
ENDBRANCH  42  44
ENDBRANCH  37  38
ENDBRANCH  11  37
TORSDOF 11
ENDMDL
