MODEL 1
REMARK VINA RESULT: -8.265342289      0.000      0.000
REMARK  3 active torsions:
REMARK  status: ('A' for Active; 'I' for Inactive)
REMARK    1  A    between atoms: N3_10  and  C7_12 
REMARK    2  A    between atoms: C7_12  and  C8_13 
REMARK    3  A    between atoms: C10_19  and  C11_20 
ROOT
HETATM    1  N1  UNL     1      24.551 -12.009  -7.507  1.00  0.00    -0.191 NA
HETATM    2  C1  UNL     1      24.399 -11.628  -6.421  1.00  0.00     0.103 C 
HETATM    3  C2  UNL     1      24.188 -11.164  -5.067  1.00  0.00     0.088 A 
HETATM    4  C3  UNL     1      25.223 -11.257  -4.155  1.00  0.00     0.028 A 
HETATM    5  C4  UNL     1      25.002 -10.813  -2.878  1.00  0.00     0.019 A 
HETATM    6  C5  UNL     1      23.782 -10.300  -2.563  1.00  0.00     0.090 A 
HETATM    7  N2  UNL     1      22.792 -10.221  -3.473  1.00  0.00    -0.351 N 
ATOM      8  H2  UNL     1      21.891  -9.830  -3.196  1.00  0.00     0.166 HD
HETATM    9  C6  UNL     1      22.962 -10.642  -4.729  1.00  0.00     0.122 A 
HETATM   10  N3  UNL     1      22.047 -10.586  -5.633  1.00  0.00    -0.369 N 
ATOM     11  H3  UNL     1      22.262 -10.930  -6.569  1.00  0.00     0.161 HD
ENDROOT
BRANCH  10  12
HETATM   12  C7  UNL     1      20.720 -10.051  -5.369  1.00  0.00     0.180 C 
BRANCH  12  13
HETATM   13  C8  UNL     1      20.684  -8.580  -5.630  1.00  0.00     0.056 A 
HETATM   14  N4  UNL     1      20.321  -7.654  -4.721  1.00  0.00    -0.303 N 
HETATM   15  N5  UNL     1      20.385  -6.433  -5.212  1.00  0.00    -0.311 N 
ATOM     16  H4  UNL     1      20.032  -7.873  -3.767  1.00  0.00     0.186 HD
HETATM   17  C9  UNL     1      20.802  -6.568  -6.479  1.00  0.00     0.121 A 
ATOM     18  H5  UNL     1      20.162  -5.563  -4.727  1.00  0.00     0.186 HD
HETATM   19  C10 UNL     1      21.003  -7.912  -6.783  1.00  0.00     0.018 A 
BRANCH  19  20
HETATM   20  C11 UNL     1      21.448  -8.475  -8.048  1.00  0.00    -0.007 A 
HETATM   21  C12 UNL     1      22.755  -8.753  -8.367  1.00  0.00     0.015 A 
HETATM   22  C13 UNL     1      23.091  -9.287  -9.613  1.00  0.00     0.018 A 
HETATM   23  C14 UNL     1      22.130  -9.553 -10.565  1.00  0.00     0.087 A 
HETATM   24  N6  UNL     1      20.856  -9.274 -10.235  1.00  0.00    -0.374 N 
HETATM   25  C15 UNL     1      20.505  -8.759  -9.043  1.00  0.00     0.100 A 
ATOM     26  H6  UNL     1      20.123  -9.460 -10.919  1.00  0.00     0.164 HD
ENDBRANCH  19  20
ENDBRANCH  12  13
ENDBRANCH  10  12
TORSDOF 3
ENDMDL
MODEL 2
REMARK VINA RESULT: -7.960229285      2.053      4.947
REMARK  3 active torsions:
REMARK  status: ('A' for Active; 'I' for Inactive)
REMARK    1  A    between atoms: N3_10  and  C7_12 
REMARK    2  A    between atoms: C7_12  and  C8_13 
REMARK    3  A    between atoms: C10_19  and  C11_20 
ROOT
HETATM    1  N1  UNL     1      16.484  -7.041  -4.990  1.00  0.00    -0.191 NA
HETATM    2  C1  UNL     1      17.410  -7.616  -4.592  1.00  0.00     0.103 C 
HETATM    3  C2  UNL     1      18.578  -8.313  -4.099  1.00  0.00     0.088 A 
HETATM    4  C3  UNL     1      18.457  -9.126  -2.987  1.00  0.00     0.028 A 
HETATM    5  C4  UNL     1      19.575  -9.776  -2.537  1.00  0.00     0.019 A 
HETATM    6  C5  UNL     1      20.751  -9.597  -3.198  1.00  0.00     0.090 A 
HETATM    7  N2  UNL     1      20.839  -8.799  -4.279  1.00  0.00    -0.351 N 
ATOM      8  H2  UNL     1      21.739  -8.690  -4.746  1.00  0.00     0.166 HD
HETATM    9  C6  UNL     1      19.776  -8.145  -4.753  1.00  0.00     0.122 A 
HETATM   10  N3  UNL     1      19.810  -7.372  -5.782  1.00  0.00    -0.369 N 
ATOM     11  H3  UNL     1      18.950  -6.911  -6.078  1.00  0.00     0.161 HD
ENDROOT
BRANCH  10  12
HETATM   12  C7  UNL     1      21.030  -7.133  -6.538  1.00  0.00     0.180 C 
BRANCH  12  13
HETATM   13  C8  UNL     1      20.981  -7.838  -7.855  1.00  0.00     0.056 A 
HETATM   14  N4  UNL     1      20.179  -7.485  -8.879  1.00  0.00    -0.303 N 
HETATM   15  N5  UNL     1      20.341  -8.273  -9.923  1.00  0.00    -0.311 N 
ATOM     16  H4  UNL     1      19.526  -6.703  -8.849  1.00  0.00     0.186 HD
HETATM   17  C9  UNL     1      21.277  -9.166  -9.568  1.00  0.00     0.121 A 
ATOM     18  H5  UNL     1      19.855  -8.216 -10.818  1.00  0.00     0.186 HD
HETATM   19  C10 UNL     1      21.707  -8.925  -8.266  1.00  0.00     0.018 A 
BRANCH  19  20
HETATM   20  C11 UNL     1      22.704  -9.670  -7.512  1.00  0.00    -0.007 A 
HETATM   21  C12 UNL     1      22.421 -10.597  -6.539  1.00  0.00     0.015 A 
HETATM   22  C13 UNL     1      23.446 -11.260  -5.860  1.00  0.00     0.018 A 
HETATM   23  C14 UNL     1      24.773 -11.010  -6.138  1.00  0.00     0.087 A 
HETATM   24  N6  UNL     1      25.031 -10.099  -7.094  1.00  0.00    -0.374 N 
HETATM   25  C15 UNL     1      24.063  -9.446  -7.763  1.00  0.00     0.100 A 
ATOM     26  H6  UNL     1      26.003  -9.893  -7.322  1.00  0.00     0.164 HD
ENDBRANCH  19  20
ENDBRANCH  12  13
ENDBRANCH  10  12
TORSDOF 3
ENDMDL
MODEL 3
REMARK VINA RESULT: -7.914032229      1.475      5.216
REMARK  3 active torsions:
REMARK  status: ('A' for Active; 'I' for Inactive)
REMARK    1  A    between atoms: N3_10  and  C7_12 
REMARK    2  A    between atoms: C7_12  and  C8_13 
REMARK    3  A    between atoms: C10_19  and  C11_20 
ROOT
HETATM    1  N1  UNL     1      19.959  -6.163  -4.662  1.00  0.00    -0.191 NA
HETATM    2  C1  UNL     1      20.368  -6.849  -5.505  1.00  0.00     0.103 C 
HETATM    3  C2  UNL     1      20.861  -7.720  -6.549  1.00  0.00     0.088 A 
HETATM    4  C3  UNL     1      21.181  -7.180  -7.781  1.00  0.00     0.028 A 
HETATM    5  C4  UNL     1      21.645  -8.023  -8.756  1.00  0.00     0.019 A 
HETATM    6  C5  UNL     1      21.772  -9.348  -8.473  1.00  0.00     0.090 A 
HETATM    7  N2  UNL     1      21.453  -9.847  -7.264  1.00  0.00    -0.351 N 
ATOM      8  H2  UNL     1      21.562 -10.846  -7.093  1.00  0.00     0.166 HD
HETATM    9  C6  UNL     1      20.997  -9.063  -6.284  1.00  0.00     0.122 A 
HETATM   10  N3  UNL     1      20.679  -9.492  -5.113  1.00  0.00    -0.369 N 
ATOM     11  H3  UNL     1      20.338  -8.824  -4.421  1.00  0.00     0.161 HD
ENDROOT
BRANCH  10  12
HETATM   12  C7  UNL     1      20.788 -10.894  -4.739  1.00  0.00     0.180 C 
BRANCH  12  13
HETATM   13  C8  UNL     1      21.942 -11.103  -3.811  1.00  0.00     0.056 A 
HETATM   14  N4  UNL     1      21.842 -11.143  -2.468  1.00  0.00    -0.303 N 
HETATM   15  N5  UNL     1      23.011 -11.346  -1.894  1.00  0.00    -0.311 N 
ATOM     16  H4  UNL     1      20.966 -11.029  -1.957  1.00  0.00     0.186 HD
HETATM   17  C9  UNL     1      23.899 -11.442  -2.895  1.00  0.00     0.121 A 
ATOM     18  H5  UNL     1      23.201 -11.416  -0.895  1.00  0.00     0.186 HD
HETATM   19  C10 UNL     1      23.262 -11.294  -4.124  1.00  0.00     0.018 A 
BRANCH  19  20
HETATM   20  C11 UNL     1      23.871 -11.329  -5.445  1.00  0.00    -0.007 A 
HETATM   21  C12 UNL     1      23.821 -12.400  -6.304  1.00  0.00     0.015 A 
HETATM   22  C13 UNL     1      24.444 -12.346  -7.553  1.00  0.00     0.018 A 
HETATM   23  C14 UNL     1      25.129 -11.224  -7.969  1.00  0.00     0.087 A 
HETATM   24  N6  UNL     1      25.167 -10.186  -7.114  1.00  0.00    -0.374 N 
HETATM   25  C15 UNL     1      24.576 -10.211  -5.906  1.00  0.00     0.100 A 
ATOM     26  H6  UNL     1      25.666  -9.342  -7.395  1.00  0.00     0.164 HD
ENDBRANCH  19  20
ENDBRANCH  12  13
ENDBRANCH  10  12
TORSDOF 3
ENDMDL
MODEL 4
REMARK VINA RESULT: -7.907486363      2.236      4.502
REMARK  3 active torsions:
REMARK  status: ('A' for Active; 'I' for Inactive)
REMARK    1  A    between atoms: N3_10  and  C7_12 
REMARK    2  A    between atoms: C7_12  and  C8_13 
REMARK    3  A    between atoms: C10_19  and  C11_20 
ROOT
HETATM    1  N1  UNL     1      25.062 -11.280  -7.568  1.00  0.00    -0.191 NA
HETATM    2  C1  UNL     1      24.752 -11.145  -6.458  1.00  0.00     0.103 C 
HETATM    3  C2  UNL     1      24.347 -10.991  -5.078  1.00  0.00     0.088 A 
HETATM    4  C3  UNL     1      25.295 -11.118  -4.079  1.00  0.00     0.028 A 
HETATM    5  C4  UNL     1      24.889 -10.969  -2.780  1.00  0.00     0.019 A 
HETATM    6  C5  UNL     1      23.579 -10.702  -2.527  1.00  0.00     0.090 A 
HETATM    7  N2  UNL     1      22.677 -10.584  -3.520  1.00  0.00    -0.351 N 
ATOM      8  H2  UNL     1      21.704 -10.384  -3.287  1.00  0.00     0.166 HD
HETATM    9  C6  UNL     1      23.027 -10.721  -4.801  1.00  0.00     0.122 A 
HETATM   10  N3  UNL     1      22.202 -10.616  -5.784  1.00  0.00    -0.369 N 
ATOM     11  H3  UNL     1      22.554 -10.736  -6.734  1.00  0.00     0.161 HD
ENDROOT
BRANCH  10  12
HETATM   12  C7  UNL     1      20.788 -10.333  -5.590  1.00  0.00     0.180 C 
BRANCH  12  13
HETATM   13  C8  UNL     1      20.554  -8.860  -5.496  1.00  0.00     0.056 A 
HETATM   14  N4  UNL     1      20.903  -7.971  -6.446  1.00  0.00    -0.303 N 
HETATM   15  N5  UNL     1      20.576  -6.739  -6.111  1.00  0.00    -0.311 N 
ATOM     16  H4  UNL     1      21.366  -8.222  -7.320  1.00  0.00     0.186 HD
HETATM   17  C9  UNL     1      19.995  -6.829  -4.906  1.00  0.00     0.121 A 
ATOM     18  H5  UNL     1      20.732  -5.891  -6.656  1.00  0.00     0.186 HD
HETATM   19  C10 UNL     1      19.962  -8.155  -4.481  1.00  0.00     0.018 A 
BRANCH  19  20
HETATM   20  C11 UNL     1      19.421  -8.670  -3.233  1.00  0.00    -0.007 A 
HETATM   21  C12 UNL     1      18.686  -9.825  -3.113  1.00  0.00     0.015 A 
HETATM   22  C13 UNL     1      18.199 -10.239  -1.871  1.00  0.00     0.018 A 
HETATM   23  C14 UNL     1      18.436  -9.510  -0.725  1.00  0.00     0.087 A 
HETATM   24  N6  UNL     1      19.157  -8.382  -0.863  1.00  0.00    -0.374 N 
HETATM   25  C15 UNL     1      19.637  -7.961  -2.046  1.00  0.00     0.100 A 
ATOM     26  H6  UNL     1      19.348  -7.822  -0.032  1.00  0.00     0.164 HD
ENDBRANCH  19  20
ENDBRANCH  12  13
ENDBRANCH  10  12
TORSDOF 3
ENDMDL
MODEL 5
REMARK VINA RESULT: -7.795824020      1.776      3.593
REMARK  3 active torsions:
REMARK  status: ('A' for Active; 'I' for Inactive)
REMARK    1  A    between atoms: N3_10  and  C7_12 
REMARK    2  A    between atoms: C7_12  and  C8_13 
REMARK    3  A    between atoms: C10_19  and  C11_20 
ROOT
HETATM    1  N1  UNL     1      20.436  -9.106  -3.173  1.00  0.00    -0.191 NA
HETATM    2  C1  UNL     1      21.478  -9.581  -3.361  1.00  0.00     0.103 C 
HETATM    3  C2  UNL     1      22.780 -10.158  -3.615  1.00  0.00     0.088 A 
HETATM    4  C3  UNL     1      23.650 -10.348  -2.558  1.00  0.00     0.028 A 
HETATM    5  C4  UNL     1      24.878 -10.896  -2.821  1.00  0.00     0.019 A 
HETATM    6  C5  UNL     1      25.187 -11.229  -4.103  1.00  0.00     0.090 A 
HETATM    7  N2  UNL     1      24.319 -11.033  -5.114  1.00  0.00    -0.351 N 
ATOM      8  H2  UNL     1      24.591 -11.296  -6.061  1.00  0.00     0.166 HD
HETATM    9  C6  UNL     1      23.112 -10.503  -4.904  1.00  0.00     0.122 A 
HETATM   10  N3  UNL     1      22.249 -10.297  -5.837  1.00  0.00    -0.369 N 
ATOM     11  H3  UNL     1      21.348  -9.886  -5.590  1.00  0.00     0.161 HD
ENDROOT
BRANCH  10  12
HETATM   12  C7  UNL     1      22.510 -10.628  -7.230  1.00  0.00     0.180 C 
BRANCH  12  13
HETATM   13  C8  UNL     1      23.159  -9.479  -7.931  1.00  0.00     0.056 A 
HETATM   14  N4  UNL     1      24.434  -9.473  -8.366  1.00  0.00    -0.303 N 
HETATM   15  N5  UNL     1      24.748  -8.337  -8.955  1.00  0.00    -0.311 N 
ATOM     16  H4  UNL     1      25.079 -10.255  -8.252  1.00  0.00     0.186 HD
HETATM   17  C9  UNL     1      23.642  -7.580  -8.903  1.00  0.00     0.121 A 
ATOM     18  H5  UNL     1      25.646  -8.085  -9.366  1.00  0.00     0.186 HD
HETATM   19  C10 UNL     1      22.614  -8.266  -8.262  1.00  0.00     0.018 A 
BRANCH  19  20
HETATM   20  C11 UNL     1      21.264  -7.792  -8.001  1.00  0.00    -0.007 A 
HETATM   21  C12 UNL     1      20.865  -7.152  -6.852  1.00  0.00     0.015 A 
HETATM   22  C13 UNL     1      19.542  -6.738  -6.684  1.00  0.00     0.018 A 
HETATM   23  C14 UNL     1      18.590  -6.954  -7.659  1.00  0.00     0.087 A 
HETATM   24  N6  UNL     1      19.000  -7.583  -8.776  1.00  0.00    -0.374 N 
HETATM   25  C15 UNL     1      20.267  -7.992  -8.963  1.00  0.00     0.100 A 
ATOM     26  H6  UNL     1      18.318  -7.757  -9.515  1.00  0.00     0.164 HD
ENDBRANCH  19  20
ENDBRANCH  12  13
ENDBRANCH  10  12
TORSDOF 3
ENDMDL
