MODEL 1
REMARK VINA RESULT: -8.204618783      0.000      0.000
REMARK  4 active torsions:
REMARK  status: ('A' for Active; 'I' for Inactive)
REMARK    1  A    between atoms: C10_16  and  N4_17 
REMARK    2  A    between atoms: N4_17  and  C11_18 
REMARK    3  A    between atoms: C11_18  and  C12_19 
REMARK    4  A    between atoms: C12_19  and  N5_20 
ROOT
HETATM    1  C1  UNL     1      22.088 -11.629  -1.910  1.00  0.00     0.071 C 
HETATM    2  C2  UNL     1      23.287 -11.592  -2.760  1.00  0.00     0.039 A 
HETATM    3  N1  UNL     1      24.539 -12.003  -2.394  1.00  0.00    -0.303 N 
ATOM      4  H1  UNL     1      24.798 -12.389  -1.487  1.00  0.00     0.186 HD
HETATM    5  N2  UNL     1      25.354 -11.816  -3.408  1.00  0.00    -0.284 N 
ATOM      6  H2  UNL     1      26.349 -12.038  -3.404  1.00  0.00     0.188 HD
HETATM    7  C3  UNL     1      24.679 -11.281  -4.469  1.00  0.00     0.136 A 
HETATM    8  N3  UNL     1      25.093 -10.925  -5.695  1.00  0.00    -0.340 N 
ATOM      9  H3  UNL     1      26.070 -11.043  -5.965  1.00  0.00     0.167 HD
HETATM   10  C4  UNL     1      24.206 -10.410  -6.565  1.00  0.00     0.047 A 
HETATM   11  C5  UNL     1      24.624 -10.031  -7.844  1.00  0.00     0.030 A 
HETATM   12  C6  UNL     1      23.729  -9.502  -8.739  1.00  0.00     0.002 A 
HETATM   13  C7  UNL     1      22.430  -9.349  -8.365  1.00  0.00     0.001 A 
HETATM   14  C8  UNL     1      21.997  -9.718  -7.105  1.00  0.00     0.017 A 
HETATM   15  C9  UNL     1      22.905 -10.257  -6.191  1.00  0.00     0.032 A 
HETATM   16  C10 UNL     1      22.425 -10.617  -4.916  1.00  0.00     0.134 A 
HETATM   17  C15 UNL     1      23.401 -11.154  -4.038  1.00  0.00     0.074 A 
ENDROOT
BRANCH  16  18
HETATM   18  N4  UNL     1      21.289 -10.474  -4.638  1.00  0.00    -0.418 NA
BRANCH  18  19
HETATM   19  C11 UNL     1      20.027 -10.271  -4.327  1.00  0.00     0.185 C 
BRANCH  19  20
HETATM   20  C12 UNL     1      19.727  -9.071  -3.400  1.00  0.00     0.330 C 
BRANCH  20  21
HETATM   21  N5  UNL     1      19.282  -9.468  -2.106  1.00  0.00     0.085 N 
HETATM   22  C13 UNL     1      19.052  -8.230  -1.346  1.00  0.00     0.309 C 
HETATM   23  C14 UNL     1      18.054 -10.195  -2.048  1.00  0.00     0.309 C 
ENDBRANCH  20  21
ENDBRANCH  19  20
ENDBRANCH  18  19
ENDBRANCH  16  18
TORSDOF 4
ENDMDL
MODEL 2
REMARK VINA RESULT: -8.108257618      1.159      1.611
REMARK  4 active torsions:
REMARK  status: ('A' for Active; 'I' for Inactive)
REMARK    1  A    between atoms: C10_16  and  N4_17 
REMARK    2  A    between atoms: N4_17  and  C11_18 
REMARK    3  A    between atoms: C11_18  and  C12_19 
REMARK    4  A    between atoms: C12_19  and  N5_20 
ROOT
HETATM    1  C1  UNL     1      22.056 -11.610  -1.918  1.00  0.00     0.071 C 
HETATM    2  C2  UNL     1      23.265 -11.585  -2.754  1.00  0.00     0.039 A 
HETATM    3  N1  UNL     1      24.511 -11.998  -2.371  1.00  0.00    -0.303 N 
ATOM      4  H1  UNL     1      24.757 -12.380  -1.458  1.00  0.00     0.186 HD
HETATM    5  N2  UNL     1      25.338 -11.822  -3.376  1.00  0.00    -0.284 N 
ATOM      6  H2  UNL     1      26.332 -12.048  -3.359  1.00  0.00     0.188 HD
HETATM    7  C3  UNL     1      24.678 -11.290  -4.448  1.00  0.00     0.136 A 
HETATM    8  N3  UNL     1      25.108 -10.943  -5.672  1.00  0.00    -0.340 N 
ATOM      9  H3  UNL     1      26.087 -11.068  -5.929  1.00  0.00     0.167 HD
HETATM   10  C4  UNL     1      24.233 -10.430  -6.555  1.00  0.00     0.047 A 
HETATM   11  C5  UNL     1      24.668 -10.061  -7.831  1.00  0.00     0.030 A 
HETATM   12  C6  UNL     1      23.786  -9.534  -8.740  1.00  0.00     0.002 A 
HETATM   13  C7  UNL     1      22.483  -9.373  -8.382  1.00  0.00     0.001 A 
HETATM   14  C8  UNL     1      22.034  -9.731  -7.125  1.00  0.00     0.017 A 
HETATM   15  C9  UNL     1      22.929 -10.269  -6.197  1.00  0.00     0.032 A 
HETATM   16  C10 UNL     1      22.432 -10.619  -4.925  1.00  0.00     0.134 A 
HETATM   17  C15 UNL     1      23.395 -11.155  -4.033  1.00  0.00     0.074 A 
ENDROOT
BRANCH  16  18
HETATM   18  N4  UNL     1      21.294 -10.469  -4.662  1.00  0.00    -0.418 NA
BRANCH  18  19
HETATM   19  C11 UNL     1      20.031 -10.262  -4.354  1.00  0.00     0.185 C 
BRANCH  19  20
HETATM   20  C12 UNL     1      19.648  -8.823  -3.940  1.00  0.00     0.330 C 
BRANCH  20  21
HETATM   21  N5  UNL     1      19.477  -7.952  -5.054  1.00  0.00     0.085 N 
HETATM   22  C13 UNL     1      18.172  -7.297  -4.877  1.00  0.00     0.309 C 
HETATM   23  C14 UNL     1      20.428  -6.896  -5.191  1.00  0.00     0.309 C 
ENDBRANCH  20  21
ENDBRANCH  19  20
ENDBRANCH  18  19
ENDBRANCH  16  18
TORSDOF 4
ENDMDL
MODEL 3
REMARK VINA RESULT: -7.780763776      1.629      5.063
REMARK  4 active torsions:
REMARK  status: ('A' for Active; 'I' for Inactive)
REMARK    1  A    between atoms: C10_16  and  N4_17 
REMARK    2  A    between atoms: N4_17  and  C11_18 
REMARK    3  A    between atoms: C11_18  and  C12_19 
REMARK    4  A    between atoms: C12_19  and  N5_20 
ROOT
HETATM    1  C1  UNL     1      24.604 -11.352  -5.760  1.00  0.00     0.071 C 
HETATM    2  C2  UNL     1      24.104 -11.520  -4.388  1.00  0.00     0.039 A 
HETATM    3  N1  UNL     1      24.782 -12.108  -3.356  1.00  0.00    -0.303 N 
ATOM      4  H1  UNL     1      25.721 -12.501  -3.407  1.00  0.00     0.186 HD
HETATM    5  N2  UNL     1      24.020 -12.082  -2.286  1.00  0.00    -0.284 N 
ATOM      6  H2  UNL     1      24.283 -12.455  -1.374  1.00  0.00     0.188 HD
HETATM    7  C3  UNL     1      22.824 -11.483  -2.567  1.00  0.00     0.136 A 
HETATM    8  N3  UNL     1      21.751 -11.239  -1.798  1.00  0.00    -0.340 N 
ATOM      9  H3  UNL     1      21.746 -11.517  -0.816  1.00  0.00     0.167 HD
HETATM   10  C4  UNL     1      20.682 -10.626  -2.336  1.00  0.00     0.047 A 
HETATM   11  C5  UNL     1      19.557 -10.369  -1.547  1.00  0.00     0.030 A 
HETATM   12  C6  UNL     1      18.459  -9.746  -2.085  1.00  0.00     0.002 A 
HETATM   13  C7  UNL     1      18.480  -9.382  -3.396  1.00  0.00     0.001 A 
HETATM   14  C8  UNL     1      19.584  -9.627  -4.192  1.00  0.00     0.017 A 
HETATM   15  C9  UNL     1      20.703 -10.261  -3.648  1.00  0.00     0.032 A 
HETATM   16  C10 UNL     1      21.806 -10.495  -4.493  1.00  0.00     0.134 A 
HETATM   17  C15 UNL     1      22.906 -11.145  -3.877  1.00  0.00     0.074 A 
ENDROOT
BRANCH  16  18
HETATM   18  N4  UNL     1      21.783 -10.155  -5.621  1.00  0.00    -0.418 NA
BRANCH  18  19
HETATM   19  C11 UNL     1      21.742  -9.815  -6.891  1.00  0.00     0.185 C 
BRANCH  19  20
HETATM   20  C12 UNL     1      21.356  -8.351  -7.204  1.00  0.00     0.330 C 
BRANCH  20  21
HETATM   21  N5  UNL     1      21.581  -7.997  -8.565  1.00  0.00     0.085 N 
HETATM   22  C13 UNL     1      23.039  -7.915  -8.741  1.00  0.00     0.309 C 
HETATM   23  C14 UNL     1      21.122  -8.925  -9.550  1.00  0.00     0.309 C 
ENDBRANCH  20  21
ENDBRANCH  19  20
ENDBRANCH  18  19
ENDBRANCH  16  18
TORSDOF 4
ENDMDL
MODEL 4
REMARK VINA RESULT: -7.727690856      2.104      4.574
REMARK  4 active torsions:
REMARK  status: ('A' for Active; 'I' for Inactive)
REMARK    1  A    between atoms: C10_16  and  N4_17 
REMARK    2  A    between atoms: N4_17  and  C11_18 
REMARK    3  A    between atoms: C11_18  and  C12_19 
REMARK    4  A    between atoms: C12_19  and  N5_20 
ROOT
HETATM    1  C1  UNL     1      23.231  -9.376  -9.354  1.00  0.00     0.071 C 
HETATM    2  C2  UNL     1      23.945 -10.174  -8.346  1.00  0.00     0.039 A 
HETATM    3  N1  UNL     1      25.136 -10.819  -8.533  1.00  0.00    -0.303 N 
ATOM      4  H1  UNL     1      25.682 -10.824  -9.395  1.00  0.00     0.186 HD
HETATM    5  N2  UNL     1      25.461 -11.432  -7.417  1.00  0.00    -0.284 N 
ATOM      6  H2  UNL     1      26.304 -11.988  -7.282  1.00  0.00     0.188 HD
HETATM    7  C3  UNL     1      24.507 -11.217  -6.462  1.00  0.00     0.136 A 
HETATM    8  N3  UNL     1      24.414 -11.640  -5.191  1.00  0.00    -0.340 N 
ATOM      9  H3  UNL     1      25.143 -12.229  -4.788  1.00  0.00     0.167 HD
HETATM   10  C4  UNL     1      23.348 -11.279  -4.455  1.00  0.00     0.047 A 
HETATM   11  C5  UNL     1      23.236 -11.716  -3.132  1.00  0.00     0.030 A 
HETATM   12  C6  UNL     1      22.152 -11.357  -2.371  1.00  0.00     0.002 A 
HETATM   13  C7  UNL     1      21.187 -10.572  -2.923  1.00  0.00     0.001 A 
HETATM   14  C8  UNL     1      21.280 -10.130  -4.229  1.00  0.00     0.017 A 
HETATM   15  C9  UNL     1      22.382 -10.493  -5.006  1.00  0.00     0.032 A 
HETATM   16  C10 UNL     1      22.437 -10.025  -6.335  1.00  0.00     0.134 A 
HETATM   17  C15 UNL     1      23.581 -10.435  -7.067  1.00  0.00     0.074 A 
ENDROOT
BRANCH  16  18
HETATM   18  N4  UNL     1      21.582  -9.341  -6.767  1.00  0.00    -0.418 NA
BRANCH  18  19
HETATM   19  C11 UNL     1      20.654  -8.542  -7.250  1.00  0.00     0.185 C 
BRANCH  19  20
HETATM   20  C12 UNL     1      20.972  -7.029  -7.244  1.00  0.00     0.330 C 
BRANCH  20  21
HETATM   21  N5  UNL     1      20.074  -6.278  -6.431  1.00  0.00     0.085 N 
HETATM   22  C13 UNL     1      18.716  -6.666  -6.839  1.00  0.00     0.309 C 
HETATM   23  C14 UNL     1      20.140  -6.512  -5.023  1.00  0.00     0.309 C 
ENDBRANCH  20  21
ENDBRANCH  19  20
ENDBRANCH  18  19
ENDBRANCH  16  18
TORSDOF 4
ENDMDL
MODEL 5
REMARK VINA RESULT: -7.627268899      1.538      4.058
REMARK  4 active torsions:
REMARK  status: ('A' for Active; 'I' for Inactive)
REMARK    1  A    between atoms: C10_16  and  N4_17 
REMARK    2  A    between atoms: N4_17  and  C11_18 
REMARK    3  A    between atoms: C11_18  and  C12_19 
REMARK    4  A    between atoms: C12_19  and  N5_20 
ROOT
HETATM    1  C1  UNL     1      21.743  -8.777  -8.791  1.00  0.00     0.071 C 
HETATM    2  C2  UNL     1      22.939  -9.504  -8.342  1.00  0.00     0.039 A 
HETATM    3  N1  UNL     1      24.027  -9.807  -9.112  1.00  0.00    -0.303 N 
ATOM      4  H1  UNL     1      24.148  -9.564 -10.095  1.00  0.00     0.186 HD
HETATM    5  N2  UNL     1      24.893 -10.465  -8.374  1.00  0.00    -0.284 N 
ATOM      6  H2  UNL     1      25.794 -10.811  -8.702  1.00  0.00     0.188 HD
HETATM    7  C3  UNL     1      24.414 -10.619  -7.103  1.00  0.00     0.136 A 
HETATM    8  N3  UNL     1      24.942 -11.218  -6.023  1.00  0.00    -0.340 N 
ATOM      9  H3  UNL     1      25.860 -11.659  -6.075  1.00  0.00     0.167 HD
HETATM   10  C4  UNL     1      24.245 -11.230  -4.873  1.00  0.00     0.047 A 
HETATM   11  C5  UNL     1      24.781 -11.853  -3.742  1.00  0.00     0.030 A 
HETATM   12  C6  UNL     1      24.080 -11.874  -2.563  1.00  0.00     0.002 A 
HETATM   13  C7  UNL     1      22.855 -11.283  -2.510  1.00  0.00     0.001 A 
HETATM   14  C8  UNL     1      22.309 -10.662  -3.617  1.00  0.00     0.017 A 
HETATM   15  C9  UNL     1      23.020 -10.637  -4.819  1.00  0.00     0.032 A 
HETATM   16  C10 UNL     1      22.427  -9.997  -5.926  1.00  0.00     0.134 A 
HETATM   17  C15 UNL     1      23.203 -10.013  -7.113  1.00  0.00     0.074 A 
ENDROOT
BRANCH  16  18
HETATM   18  N4  UNL     1      21.368  -9.491  -5.831  1.00  0.00    -0.418 NA
BRANCH  18  19
HETATM   19  C11 UNL     1      20.204  -8.887  -5.718  1.00  0.00     0.185 C 
BRANCH  19  20
HETATM   20  C12 UNL     1      20.104  -7.772  -4.652  1.00  0.00     0.330 C 
BRANCH  20  21
HETATM   21  N5  UNL     1      19.512  -8.220  -3.436  1.00  0.00     0.085 N 
HETATM   22  C13 UNL     1      18.591  -7.158  -3.004  1.00  0.00     0.309 C 
HETATM   23  C14 UNL     1      18.725  -9.411  -3.509  1.00  0.00     0.309 C 
ENDBRANCH  20  21
ENDBRANCH  19  20
ENDBRANCH  18  19
ENDBRANCH  16  18
TORSDOF 4
ENDMDL
