MODEL 1
REMARK VINA RESULT: -6.224127516      0.000      0.000
REMARK  2 active torsions:
REMARK  status: ('A' for Active; 'I' for Inactive)
REMARK    1  A    between atoms: S1_2  and  C2_3 
REMARK    2  A    between atoms: C8_14  and  C9_15 
ROOT
HETATM    1  C2  UNL     1      -2.016   4.992  12.335  1.00  0.00     0.160 C 
HETATM    2  C3  UNL     1      -1.784   6.059  13.361  1.00  0.00     0.077 C 
HETATM    3  N1  UNL     1      -2.841   5.406  11.226  1.00  0.00    -0.319 N 
HETATM    4  C4  UNL     1      -3.226   6.723  10.757  1.00  0.00     0.156 C 
HETATM    5  C5  UNL     1      -3.249   4.166  10.619  1.00  0.00     0.254 C 
HETATM    6  O1  UNL     1      -3.558   3.944   9.422  1.00  0.00    -0.270 OA
HETATM    7  C6  UNL     1      -3.243   3.143  11.688  1.00  0.00     0.274 C 
HETATM    8  C7  UNL     1      -4.619   2.617  11.896  1.00  0.00     0.250 C 
HETATM    9  O2  UNL     1      -5.272   2.224  10.899  1.00  0.00    -0.271 OA
HETATM   10  N2  UNL     1      -5.131   2.584  13.217  1.00  0.00    -0.345 N 
ATOM     11  H2  UNL     1      -6.132   2.670  13.394  1.00  0.00     0.163 HD
HETATM   12  C8  UNL     1      -4.197   2.429  14.307  1.00  0.00     0.180 C 
HETATM   13  C12 UNL     1      -3.167   3.468  14.183  1.00  0.00     0.246 C 
HETATM   14  O3  UNL     1      -2.591   4.005  15.156  1.00  0.00    -0.271 OA
HETATM   15  N3  UNL     1      -2.802   3.891  12.878  1.00  0.00    -0.292 N 
ENDROOT
BRANCH   1  16
HETATM   16  S1  UNL     1      -0.427   4.404  11.693  1.00  0.00    -0.120 SA
HETATM   17  C1  UNL     1       0.815   5.731  11.710  1.00  0.00     0.094 C 
ENDBRANCH   1  16
BRANCH  12  18
HETATM   18  C9  UNL     1      -4.877   2.422  15.649  1.00  0.00     0.009 C 
HETATM   19  C10 UNL     1      -4.923   0.991  16.140  1.00  0.00     0.012 C 
HETATM   20  C11 UNL     1      -6.255   2.980  15.659  1.00  0.00     0.012 C 
ENDBRANCH  12  18
TORSDOF 2
ENDMDL
MODEL 2
REMARK VINA RESULT: -6.214958406      1.863      5.018
REMARK  2 active torsions:
REMARK  status: ('A' for Active; 'I' for Inactive)
REMARK    1  A    between atoms: S1_2  and  C2_3 
REMARK    2  A    between atoms: C8_14  and  C9_15 
ROOT
HETATM    1  C2  UNL     1      -4.249   2.898  14.291  1.00  0.00     0.160 C 
HETATM    2  C3  UNL     1      -3.466   2.621  15.538  1.00  0.00     0.077 C 
HETATM    3  N1  UNL     1      -4.449   1.743  13.449  1.00  0.00    -0.319 N 
HETATM    4  C4  UNL     1      -4.315   0.325  13.720  1.00  0.00     0.156 C 
HETATM    5  C5  UNL     1      -4.838   2.304  12.182  1.00  0.00     0.254 C 
HETATM    6  O1  UNL     1      -5.551   1.792  11.284  1.00  0.00    -0.270 OA
HETATM    7  C6  UNL     1      -4.232   3.652  12.106  1.00  0.00     0.274 C 
HETATM    8  C7  UNL     1      -3.265   3.712  10.977  1.00  0.00     0.250 C 
HETATM    9  O2  UNL     1      -3.634   3.319   9.844  1.00  0.00    -0.271 OA
HETATM   10  N2  UNL     1      -1.964   4.213  11.236  1.00  0.00    -0.345 N 
ATOM     11  H2  UNL     1      -1.162   3.893  10.694  1.00  0.00     0.163 HD
HETATM   12  C8  UNL     1      -1.806   5.187  12.289  1.00  0.00     0.180 C 
HETATM   13  C12 UNL     1      -2.397   4.639  13.517  1.00  0.00     0.246 C 
HETATM   14  O3  UNL     1      -1.969   4.879  14.669  1.00  0.00    -0.271 OA
HETATM   15  N3  UNL     1      -3.522   3.783  13.389  1.00  0.00    -0.292 N 
ENDROOT
BRANCH   1  16
HETATM   16  S1  UNL     1      -5.865   3.592  14.724  1.00  0.00    -0.120 SA
HETATM   17  C1  UNL     1      -6.563   2.762  16.182  1.00  0.00     0.094 C 
ENDBRANCH   1  16
BRANCH  12  18
HETATM   18  C9  UNL     1      -0.375   5.621  12.459  1.00  0.00     0.009 C 
HETATM   19  C10 UNL     1      -0.343   7.134  12.446  1.00  0.00     0.012 C 
HETATM   20  C11 UNL     1       0.564   5.109  11.426  1.00  0.00     0.012 C 
ENDBRANCH  12  18
TORSDOF 2
ENDMDL
MODEL 3
REMARK VINA RESULT: -6.090994849      1.234      1.254
REMARK  2 active torsions:
REMARK  status: ('A' for Active; 'I' for Inactive)
REMARK    1  A    between atoms: S1_2  and  C2_3 
REMARK    2  A    between atoms: C8_14  and  C9_15 
ROOT
HETATM    1  C2  UNL     1      -2.376   6.035  11.811  1.00  0.00     0.160 C 
HETATM    2  C3  UNL     1      -2.879   7.245  12.533  1.00  0.00     0.077 C 
HETATM    3  N1  UNL     1      -2.947   5.848  10.498  1.00  0.00    -0.319 N 
HETATM    4  C4  UNL     1      -3.664   6.759   9.627  1.00  0.00     0.156 C 
HETATM    5  C5  UNL     1      -2.649   4.475  10.185  1.00  0.00     0.254 C 
HETATM    6  O1  UNL     1      -2.495   3.945   9.057  1.00  0.00    -0.270 OA
HETATM    7  C6  UNL     1      -2.548   3.754  11.473  1.00  0.00     0.274 C 
HETATM    8  C7  UNL     1      -3.608   2.713  11.557  1.00  0.00     0.250 C 
HETATM    9  O2  UNL     1      -3.745   1.912  10.601  1.00  0.00    -0.271 OA
HETATM   10  N2  UNL     1      -4.419   2.675  12.719  1.00  0.00    -0.345 N 
ATOM     11  H2  UNL     1      -5.379   2.334  12.678  1.00  0.00     0.163 HD
HETATM   12  C8  UNL     1      -3.848   3.133  13.964  1.00  0.00     0.180 C 
HETATM   13  C12 UNL     1      -3.315   4.486  13.755  1.00  0.00     0.246 C 
HETATM   14  O3  UNL     1      -3.296   5.376  14.636  1.00  0.00    -0.271 OA
HETATM   15  N3  UNL     1      -2.790   4.805  12.476  1.00  0.00    -0.292 N 
ENDROOT
BRANCH   1  16
HETATM   16  S1  UNL     1      -0.573   6.118  11.657  1.00  0.00    -0.120 SA
HETATM   17  C1  UNL     1       0.080   7.626  12.433  1.00  0.00     0.094 C 
ENDBRANCH   1  16
BRANCH  12  18
HETATM   18  C9  UNL     1      -4.822   3.047  15.108  1.00  0.00     0.009 C 
HETATM   19  C10 UNL     1      -4.879   1.604  15.562  1.00  0.00     0.012 C 
HETATM   20  C11 UNL     1      -6.200   3.510  14.797  1.00  0.00     0.012 C 
ENDBRANCH  12  18
TORSDOF 2
ENDMDL
MODEL 4
REMARK VINA RESULT: -5.886556801      2.401      2.847
REMARK  2 active torsions:
REMARK  status: ('A' for Active; 'I' for Inactive)
REMARK    1  A    between atoms: S1_2  and  C2_3 
REMARK    2  A    between atoms: C8_14  and  C9_15 
ROOT
HETATM    1  C2  UNL     1      -2.751   4.354  14.007  1.00  0.00     0.160 C 
HETATM    2  C3  UNL     1      -1.615   4.109  14.952  1.00  0.00     0.077 C 
HETATM    3  N1  UNL     1      -3.181   5.730  13.942  1.00  0.00    -0.319 N 
HETATM    4  C4  UNL     1      -2.535   6.957  14.368  1.00  0.00     0.156 C 
HETATM    5  C5  UNL     1      -4.479   5.656  13.326  1.00  0.00     0.254 C 
HETATM    6  O1  UNL     1      -5.068   6.523  12.634  1.00  0.00    -0.270 OA
HETATM    7  C6  UNL     1      -5.035   4.326  13.656  1.00  0.00     0.274 C 
HETATM    8  C7  UNL     1      -6.269   4.479  14.473  1.00  0.00     0.250 C 
HETATM    9  O2  UNL     1      -7.168   5.256  14.070  1.00  0.00    -0.271 OA
HETATM   10  N2  UNL     1      -6.372   3.736  15.676  1.00  0.00    -0.345 N 
ATOM     11  H2  UNL     1      -6.916   4.087  16.464  1.00  0.00     0.163 HD
HETATM   12  C8  UNL     1      -5.684   2.469  15.756  1.00  0.00     0.180 C 
HETATM   13  C12 UNL     1      -4.274   2.688  15.409  1.00  0.00     0.246 C 
HETATM   14  O3  UNL     1      -3.322   2.040  15.900  1.00  0.00    -0.271 OA
HETATM   15  N3  UNL     1      -3.972   3.698  14.458  1.00  0.00    -0.292 N 
ENDROOT
BRANCH   1  16
HETATM   16  S1  UNL     1      -2.292   3.806  12.342  1.00  0.00    -0.120 SA
HETATM   17  C1  UNL     1      -0.806   4.673  11.756  1.00  0.00     0.094 C 
ENDBRANCH   1  16
BRANCH  12  18
HETATM   18  C9  UNL     1      -5.871   1.798  17.090  1.00  0.00     0.009 C 
HETATM   19  C10 UNL     1      -6.952   0.749  16.935  1.00  0.00     0.012 C 
HETATM   20  C11 UNL     1      -6.239   2.709  18.206  1.00  0.00     0.012 C 
ENDBRANCH  12  18
TORSDOF 2
ENDMDL
MODEL 5
REMARK VINA RESULT: -5.686283098      2.546      5.236
REMARK  2 active torsions:
REMARK  status: ('A' for Active; 'I' for Inactive)
REMARK    1  A    between atoms: S1_2  and  C2_3 
REMARK    2  A    between atoms: C8_14  and  C9_15 
ROOT
HETATM    1  C2  UNL     1      -4.137   4.558  13.219  1.00  0.00     0.160 C 
HETATM    2  C3  UNL     1      -4.583   5.645  14.148  1.00  0.00     0.077 C 
HETATM    3  N1  UNL     1      -2.711   4.340  13.203  1.00  0.00    -0.319 N 
HETATM    4  C4  UNL     1      -1.669   4.745  14.127  1.00  0.00     0.156 C 
HETATM    5  C5  UNL     1      -2.492   3.584  11.998  1.00  0.00     0.254 C 
HETATM    6  O1  UNL     1      -1.574   2.764  11.743  1.00  0.00    -0.270 OA
HETATM    7  C6  UNL     1      -3.578   3.946  11.061  1.00  0.00     0.274 C 
HETATM    8  C7  UNL     1      -3.009   4.599   9.852  1.00  0.00     0.250 C 
HETATM    9  O2  UNL     1      -2.063   4.037   9.249  1.00  0.00    -0.271 OA
HETATM   10  N2  UNL     1      -3.566   5.835   9.434  1.00  0.00    -0.345 N 
ATOM     11  H2  UNL     1      -2.999   6.525   8.942  1.00  0.00     0.163 HD
HETATM   12  C8  UNL     1      -4.956   6.089   9.725  1.00  0.00     0.180 C 
HETATM   13  C12 UNL     1      -5.168   5.893  11.166  1.00  0.00     0.246 C 
HETATM   14  O3  UNL     1      -5.996   6.540  11.847  1.00  0.00    -0.271 OA
HETATM   15  N3  UNL     1      -4.385   4.911  11.826  1.00  0.00    -0.292 N 
ENDROOT
BRANCH   1  16
HETATM   16  S1  UNL     1      -4.961   3.004  13.654  1.00  0.00    -0.120 SA
HETATM   17  C1  UNL     1      -4.291   2.320  15.198  1.00  0.00     0.094 C 
ENDBRANCH   1  16
BRANCH  12  18
HETATM   18  C9  UNL     1      -5.408   7.438   9.236  1.00  0.00     0.009 C 
HETATM   19  C10 UNL     1      -6.669   7.240   8.423  1.00  0.00     0.012 C 
HETATM   20  C11 UNL     1      -4.413   8.173   8.410  1.00  0.00     0.012 C 
ENDBRANCH  12  18
TORSDOF 2
ENDMDL
