MODEL 1
REMARK VINA RESULT: -6.835670413      0.000      0.000
REMARK  3 active torsions:
REMARK  status: ('A' for Active; 'I' for Inactive)
REMARK    1  A    between atoms: C2_2  and  N1_3 
REMARK    2  A    between atoms: C6_10  and  C7_11 
REMARK       I    between atoms: C7_11  and  N3_13 
REMARK    3  A    between atoms: N3_13  and  C8_15 
ROOT
HETATM    1  C7  UNL     1      -3.257   3.517  13.988  1.00  0.00     0.253 C 
HETATM    2  O2  UNL     1      -2.763   3.356  15.122  1.00  0.00    -0.270 OA
HETATM    3  N3  UNL     1      -2.601   4.282  13.007  1.00  0.00    -0.304 N 
ATOM      4  H3  UNL     1      -2.474   3.882  12.077  1.00  0.00     0.171 HD
ENDROOT
BRANCH   1   5
HETATM    5  C6  UNL     1      -4.548   2.903  13.661  1.00  0.00     0.243 C 
HETATM    6  N1  UNL     1      -4.405   1.477  13.591  1.00  0.00    -0.314 N 
HETATM    7  C3  UNL     1      -4.797   0.959  14.845  1.00  0.00     0.326 C 
HETATM    8  O1  UNL     1      -4.641  -0.211  15.296  1.00  0.00    -0.247 OA
HETATM    9  N2  UNL     1      -5.439   1.984  15.611  1.00  0.00    -0.296 N 
HETATM   10  C4  UNL     1      -5.982   1.835  16.959  1.00  0.00     0.162 C 
HETATM   11  C5  UNL     1      -5.451   3.157  14.829  1.00  0.00     0.115 C 
HETATM   12  S1  UNL     1      -6.262   4.542  15.090  1.00  0.00    -0.062 SA
BRANCH   6  13
HETATM   13  C2  UNL     1      -3.953   0.697  12.476  1.00  0.00     0.124 C 
HETATM   14  C1  UNL     1      -4.725   0.968  11.206  1.00  0.00     0.026 C 
ENDBRANCH   6  13
ENDBRANCH   1   5
BRANCH   3  15
HETATM   15  C8  UNL     1      -2.147   5.486  13.241  1.00  0.00     0.167 A 
HETATM   16  N4  UNL     1      -1.070   6.112  12.763  1.00  0.00    -0.279 N 
HETATM   17  N5  UNL     1      -0.830   7.296  13.141  1.00  0.00    -0.296 N 
ATOM     18  H4  UNL     1      -0.450   5.643  12.102  1.00  0.00     0.189 HD
HETATM   19  C9  UNL     1      -1.633   7.905  14.000  1.00  0.00     0.066 A 
ATOM     20  H5  UNL     1      -0.011   7.785  12.782  1.00  0.00     0.187 HD
HETATM   21  C10 UNL     1      -1.536   9.290  14.575  1.00  0.00     0.078 C 
HETATM   22  S2  UNL     1      -2.811   6.676  14.272  1.00  0.00    -0.038 SA
ENDBRANCH   3  15
TORSDOF 3
ENDMDL
MODEL 2
REMARK VINA RESULT: -6.773989035      1.010      1.021
REMARK  3 active torsions:
REMARK  status: ('A' for Active; 'I' for Inactive)
REMARK    1  A    between atoms: C2_2  and  N1_3 
REMARK    2  A    between atoms: C6_10  and  C7_11 
REMARK       I    between atoms: C7_11  and  N3_13 
REMARK    3  A    between atoms: N3_13  and  C8_15 
ROOT
HETATM    1  C7  UNL     1      -3.171   3.370  13.841  1.00  0.00     0.253 C 
HETATM    2  O2  UNL     1      -2.864   3.643  15.019  1.00  0.00    -0.270 OA
HETATM    3  N3  UNL     1      -2.283   3.613  12.779  1.00  0.00    -0.304 N 
ATOM      4  H3  UNL     1      -2.093   2.862  12.115  1.00  0.00     0.171 HD
ENDROOT
BRANCH   1   5
HETATM    5  C6  UNL     1      -4.483   2.785  13.546  1.00  0.00     0.243 C 
HETATM    6  N1  UNL     1      -4.385   1.353  13.527  1.00  0.00    -0.314 N 
HETATM    7  C3  UNL     1      -4.781   0.894  14.802  1.00  0.00     0.326 C 
HETATM    8  O1  UNL     1      -4.658  -0.264  15.294  1.00  0.00    -0.247 OA
HETATM    9  N2  UNL     1      -5.385   1.965  15.535  1.00  0.00    -0.296 N 
HETATM   10  C4  UNL     1      -5.920   1.881  16.893  1.00  0.00     0.162 C 
HETATM   11  C5  UNL     1      -5.367   3.109  14.712  1.00  0.00     0.115 C 
HETATM   12  S1  UNL     1      -6.133   4.527  14.930  1.00  0.00    -0.062 SA
BRANCH   6  13
HETATM   13  C2  UNL     1      -3.968   0.520  12.437  1.00  0.00     0.124 C 
HETATM   14  C1  UNL     1      -4.733   0.780  11.161  1.00  0.00     0.026 C 
ENDBRANCH   6  13
ENDBRANCH   1   5
BRANCH   3  15
HETATM   15  C8  UNL     1      -1.689   4.767  12.609  1.00  0.00     0.167 A 
HETATM   16  N4  UNL     1      -0.400   5.056  12.424  1.00  0.00    -0.279 N 
HETATM   17  N5  UNL     1      -0.059   6.267  12.280  1.00  0.00    -0.296 N 
ATOM     18  H4  UNL     1       0.299   4.315  12.398  1.00  0.00     0.189 HD
HETATM   19  C9  UNL     1      -0.964   7.232  12.314  1.00  0.00     0.066 A 
ATOM     20  H5  UNL     1       0.923   6.502  12.137  1.00  0.00     0.187 HD
HETATM   21  C10 UNL     1      -0.779   8.717  12.168  1.00  0.00     0.078 C 
HETATM   22  S2  UNL     1      -2.404   6.319  12.571  1.00  0.00    -0.038 SA
ENDBRANCH   3  15
TORSDOF 3
ENDMDL
MODEL 3
REMARK VINA RESULT: -6.678737580      2.520      2.736
REMARK  3 active torsions:
REMARK  status: ('A' for Active; 'I' for Inactive)
REMARK    1  A    between atoms: C2_2  and  N1_3 
REMARK    2  A    between atoms: C6_10  and  C7_11 
REMARK       I    between atoms: C7_11  and  N3_13 
REMARK    3  A    between atoms: N3_13  and  C8_15 
ROOT
HETATM    1  C7  UNL     1      -2.509   3.176  11.777  1.00  0.00     0.253 C 
HETATM    2  O2  UNL     1      -1.875   2.116  11.947  1.00  0.00    -0.270 OA
HETATM    3  N3  UNL     1      -1.941   4.266  11.093  1.00  0.00    -0.304 N 
ATOM      4  H3  UNL     1      -2.471   4.703  10.339  1.00  0.00     0.171 HD
ENDROOT
BRANCH   1   5
HETATM    5  C6  UNL     1      -3.874   3.301  12.296  1.00  0.00     0.243 C 
HETATM    6  N1  UNL     1      -4.525   2.021  12.267  1.00  0.00    -0.314 N 
HETATM    7  C3  UNL     1      -4.389   1.458  13.554  1.00  0.00     0.326 C 
HETATM    8  O1  UNL     1      -4.628   0.272  13.922  1.00  0.00    -0.247 OA
HETATM    9  N2  UNL     1      -3.913   2.451  14.468  1.00  0.00    -0.296 N 
HETATM   10  C4  UNL     1      -3.647   2.250  15.891  1.00  0.00     0.162 C 
HETATM   11  C5  UNL     1      -3.750   3.651  13.748  1.00  0.00     0.115 C 
HETATM   12  S1  UNL     1      -3.476   5.149  14.320  1.00  0.00    -0.062 SA
BRANCH   6  13
HETATM   13  C2  UNL     1      -5.195   1.407  11.157  1.00  0.00     0.124 C 
HETATM   14  C1  UNL     1      -4.589   0.084  10.753  1.00  0.00     0.026 C 
ENDBRANCH   6  13
ENDBRANCH   1   5
BRANCH   3  15
HETATM   15  C8  UNL     1      -0.758   4.741  11.388  1.00  0.00     0.167 A 
HETATM   16  N4  UNL     1       0.383   4.108  11.663  1.00  0.00    -0.279 N 
HETATM   17  N5  UNL     1       1.417   4.792  11.923  1.00  0.00    -0.296 N 
ATOM     18  H4  UNL     1       0.423   3.089  11.664  1.00  0.00     0.189 HD
HETATM   19  C9  UNL     1       1.367   6.115  11.923  1.00  0.00     0.066 A 
ATOM     20  H5  UNL     1       2.295   4.320  12.133  1.00  0.00     0.187 HD
HETATM   21  C10 UNL     1       2.461   7.108  12.201  1.00  0.00     0.078 C 
HETATM   22  S2  UNL     1      -0.288   6.379  11.520  1.00  0.00    -0.038 SA
ENDBRANCH   3  15
TORSDOF 3
ENDMDL
MODEL 4
REMARK VINA RESULT: -6.298841985      3.113      6.110
REMARK  3 active torsions:
REMARK  status: ('A' for Active; 'I' for Inactive)
REMARK    1  A    between atoms: C2_2  and  N1_3 
REMARK    2  A    between atoms: C6_10  and  C7_11 
REMARK       I    between atoms: C7_11  and  N3_13 
REMARK    3  A    between atoms: N3_13  and  C8_15 
ROOT
HETATM    1  C7  UNL     1      -3.780   3.776  12.265  1.00  0.00     0.253 C 
HETATM    2  O2  UNL     1      -4.756   3.508  11.536  1.00  0.00    -0.270 OA
HETATM    3  N3  UNL     1      -3.523   3.046  13.439  1.00  0.00    -0.304 N 
ATOM      4  H3  UNL     1      -2.585   2.676  13.592  1.00  0.00     0.171 HD
ENDROOT
BRANCH   1   5
HETATM    5  C6  UNL     1      -2.877   4.872  11.901  1.00  0.00     0.243 C 
HETATM    6  N1  UNL     1      -1.832   4.379  11.049  1.00  0.00    -0.314 N 
HETATM    7  C3  UNL     1      -2.226   4.638   9.718  1.00  0.00     0.326 C 
HETATM    8  O1  UNL     1      -1.716   4.200   8.648  1.00  0.00    -0.247 OA
HETATM    9  N2  UNL     1      -3.354   5.519   9.711  1.00  0.00    -0.296 N 
HETATM   10  C4  UNL     1      -4.047   6.016   8.524  1.00  0.00     0.162 C 
HETATM   11  C5  UNL     1      -3.672   5.817  11.051  1.00  0.00     0.115 C 
HETATM   12  S1  UNL     1      -4.690   6.948  11.625  1.00  0.00    -0.062 SA
BRANCH   6  13
HETATM   13  C2  UNL     1      -0.610   3.742  11.445  1.00  0.00     0.124 C 
HETATM   14  C1  UNL     1       0.610   4.608  11.235  1.00  0.00     0.026 C 
ENDBRANCH   6  13
ENDBRANCH   1   5
BRANCH   3  15
HETATM   15  C8  UNL     1      -4.441   2.824  14.344  1.00  0.00     0.167 A 
HETATM   16  N4  UNL     1      -5.556   3.501  14.628  1.00  0.00    -0.279 N 
HETATM   17  N5  UNL     1      -6.302   3.087  15.564  1.00  0.00    -0.296 N 
ATOM     18  H4  UNL     1      -5.802   4.337  14.100  1.00  0.00     0.189 HD
HETATM   19  C9  UNL     1      -5.983   2.002  16.252  1.00  0.00     0.066 A 
ATOM     20  H5  UNL     1      -7.157   3.594  15.790  1.00  0.00     0.187 HD
HETATM   21  C10 UNL     1      -6.716   1.345  17.388  1.00  0.00     0.078 C 
HETATM   22  S2  UNL     1      -4.504   1.555  15.488  1.00  0.00    -0.038 SA
ENDBRANCH   3  15
TORSDOF 3
ENDMDL
MODEL 5
REMARK VINA RESULT: -6.255784120      2.380      5.543
REMARK  3 active torsions:
REMARK  status: ('A' for Active; 'I' for Inactive)
REMARK    1  A    between atoms: C2_2  and  N1_3 
REMARK    2  A    between atoms: C6_10  and  C7_11 
REMARK       I    between atoms: C7_11  and  N3_13 
REMARK    3  A    between atoms: N3_13  and  C8_15 
ROOT
HETATM    1  C7  UNL     1      -2.558   4.432  13.761  1.00  0.00     0.253 C 
HETATM    2  O2  UNL     1      -1.643   4.330  14.603  1.00  0.00    -0.270 OA
HETATM    3  N3  UNL     1      -3.911   4.373  14.140  1.00  0.00    -0.304 N 
ATOM      4  H3  UNL     1      -4.544   5.103  13.815  1.00  0.00     0.171 HD
ENDROOT
BRANCH   1   5
HETATM    5  C6  UNL     1      -2.227   4.617  12.344  1.00  0.00     0.243 C 
HETATM    6  N1  UNL     1      -3.295   4.115  11.525  1.00  0.00    -0.314 N 
HETATM    7  C3  UNL     1      -4.110   5.217  11.187  1.00  0.00     0.326 C 
HETATM    8  O1  UNL     1      -5.258   5.212  10.658  1.00  0.00    -0.247 OA
HETATM    9  N2  UNL     1      -3.445   6.435  11.538  1.00  0.00    -0.296 N 
HETATM   10  C4  UNL     1      -3.970   7.785  11.343  1.00  0.00     0.162 C 
HETATM   11  C5  UNL     1      -2.199   6.095  12.100  1.00  0.00     0.115 C 
HETATM   12  S1  UNL     1      -0.941   7.067  12.443  1.00  0.00    -0.062 SA
BRANCH   6  13
HETATM   13  C2  UNL     1      -3.516   2.760  11.113  1.00  0.00     0.124 C 
HETATM   14  C1  UNL     1      -4.845   2.206  11.570  1.00  0.00     0.026 C 
ENDBRANCH   6  13
ENDBRANCH   1   5
BRANCH   3  15
HETATM   15  C8  UNL     1      -4.388   3.416  14.894  1.00  0.00     0.167 A 
HETATM   16  N4  UNL     1      -3.769   2.396  15.490  1.00  0.00    -0.279 N 
HETATM   17  N5  UNL     1      -4.452   1.584  16.181  1.00  0.00    -0.296 N 
ATOM     18  H4  UNL     1      -2.762   2.272  15.390  1.00  0.00     0.189 HD
HETATM   19  C9  UNL     1      -5.759   1.742  16.310  1.00  0.00     0.066 A 
ATOM     20  H5  UNL     1      -3.990   0.800  16.643  1.00  0.00     0.187 HD
HETATM   21  C10 UNL     1      -6.749   0.906  17.073  1.00  0.00     0.078 C 
HETATM   22  S2  UNL     1      -6.010   3.162  15.366  1.00  0.00    -0.038 SA
ENDBRANCH   3  15
TORSDOF 3
ENDMDL
