MODEL 1
REMARK VINA RESULT: -7.991376224      0.000      0.000
REMARK  10 active torsions:
REMARK  status: ('A' for Active; 'I' for Inactive)
REMARK    1  A    between atoms: C2_2  and  O1_4 
REMARK    2  A    between atoms: C2_2  and  C4_6 
REMARK    3  A    between atoms: C4_6  and  C8_22 
REMARK    4  A    between atoms: N1_7  and  O2_9 
REMARK    5  A    between atoms: O2_9  and  C5_10 
REMARK    6  A    between atoms: C5_10  and  C6_12 
REMARK    7  A    between atoms: C7_18  and  N4_19 
REMARK       I    between atoms: C8_22  and  N5_24 
REMARK    8  A    between atoms: N5_24  and  N6_26 
REMARK       I    between atoms: N6_26  and  C9_28 
REMARK    9  A    between atoms: C9_28  and  C10_30 
REMARK   10  A    between atoms: C12_33  and  N7_34 
ROOT
HETATM    1  C4  UNL     1      10.861   5.871 101.951  1.00  0.00     0.135 C 
HETATM    2  N1  UNL     1      11.631   6.295 101.075  1.00  0.00    -0.253 N 
ATOM      3  H1  UNL     1      11.259   7.025 100.468  1.00  0.00     0.195 HD
ENDROOT
BRANCH   1   4
HETATM    4  C2  UNL     1       9.484   6.490 102.000  1.00  0.00     0.100 C 
HETATM    5  C1  UNL     1       8.921   6.663 100.626  1.00  0.00     0.052 C 
HETATM    6  C3  UNL     1       9.565   7.850 102.666  1.00  0.00     0.052 C 
BRANCH   4   7
HETATM    7  O1  UNL     1       8.687   5.672 102.795  1.00  0.00    -0.384 OA
ATOM      8  H1  UNL     1       8.152   6.171 103.402  1.00  0.00     0.211 HD
ENDBRANCH   4   7
ENDBRANCH   1   4
BRANCH   1   9
HETATM    9  C8  UNL     1      11.164   4.847 102.913  1.00  0.00     0.287 C 
HETATM   10  O5  UNL     1      11.323   3.653 102.455  1.00  0.00    -0.264 OA
HETATM   11  N5  UNL     1      11.315   4.961 104.294  1.00  0.00    -0.262 N 
ATOM     12  H5  UNL     1      11.205   5.874 104.736  1.00  0.00     0.190 HD
BRANCH  11  13
HETATM   13  N6  UNL     1      11.611   3.854 105.077  1.00  0.00    -0.263 N 
HETATM   14  C9  UNL     1      10.856   3.537 106.208  1.00  0.00     0.270 C 
HETATM   15  O6  UNL     1       9.896   4.273 106.511  1.00  0.00    -0.266 OA
ATOM     16  H6  UNL     1      12.399   3.259 104.820  1.00  0.00     0.190 HD
BRANCH  14  17
HETATM   17  C10 UNL     1      11.152   2.355 107.065  1.00  0.00     0.043 A 
HETATM   18  C11 UNL     1      10.496   2.160 108.252  1.00  0.00     0.069 A 
HETATM   19  S1  UNL     1      11.176   0.704 108.829  1.00  0.00    -0.077 SA
HETATM   20  C12 UNL     1      12.265   0.381 107.563  1.00  0.00     0.144 A 
HETATM   21  C13 UNL     1      12.066   1.431 106.713  1.00  0.00     0.061 A 
BRANCH  20  22
HETATM   22  N7  UNL     1      13.162  -0.714 107.422  1.00  0.00    -0.108 N 
HETATM   23  O7  UNL     1      13.314  -1.548 108.328  1.00  0.00    -0.531 OA
HETATM   24  O8  UNL     1      13.886  -0.877 106.273  1.00  0.00    -0.531 OA
ENDBRANCH  20  22
ENDBRANCH  14  17
ENDBRANCH  11  13
ENDBRANCH   1   9
BRANCH   2  25
HETATM   25  O2  UNL     1      12.880   5.915 100.832  1.00  0.00    -0.193 OA
BRANCH  25  26
HETATM   26  C5  UNL     1      13.998   6.743 100.830  1.00  0.00     0.337 C 
HETATM   27  O3  UNL     1      14.454   7.064 101.947  1.00  0.00    -0.255 OA
BRANCH  26  28
HETATM   28  C6  UNL     1      14.537   7.164  99.551  1.00  0.00     0.178 A 
HETATM   29  N2  UNL     1      15.783   6.929  99.094  1.00  0.00    -0.232 N 
HETATM   30  O4  UNL     1      15.921   7.441  97.932  1.00  0.00    -0.155 OA
ATOM     31  H2  UNL     1      16.508   6.418  99.600  1.00  0.00     0.197 HD
HETATM   32  N3  UNL     1      14.833   8.027  97.546  1.00  0.00    -0.224 N 
HETATM   33  C7  UNL     1      13.931   7.878  98.538  1.00  0.00     0.156 A 
ATOM     34  H3  UNL     1      14.686   8.510  96.660  1.00  0.00     0.198 HD
BRANCH  33  35
HETATM   35  N4  UNL     1      12.745   8.327  98.512  1.00  0.00    -0.382 N 
ATOM     36  H42 UNL     1      12.353   8.981  99.190  1.00  0.00     0.157 HD
ATOM     37  H41 UNL     1      12.015   8.113  97.832  1.00  0.00     0.157 HD
ENDBRANCH  33  35
ENDBRANCH  26  28
ENDBRANCH  25  26
ENDBRANCH   2  25
TORSDOF 10
ENDMDL
MODEL 2
REMARK VINA RESULT: -7.849856874      2.909      8.885
REMARK  10 active torsions:
REMARK  status: ('A' for Active; 'I' for Inactive)
REMARK    1  A    between atoms: C2_2  and  O1_4 
REMARK    2  A    between atoms: C2_2  and  C4_6 
REMARK    3  A    between atoms: C4_6  and  C8_22 
REMARK    4  A    between atoms: N1_7  and  O2_9 
REMARK    5  A    between atoms: O2_9  and  C5_10 
REMARK    6  A    between atoms: C5_10  and  C6_12 
REMARK    7  A    between atoms: C7_18  and  N4_19 
REMARK       I    between atoms: C8_22  and  N5_24 
REMARK    8  A    between atoms: N5_24  and  N6_26 
REMARK       I    between atoms: N6_26  and  C9_28 
REMARK    9  A    between atoms: C9_28  and  C10_30 
REMARK   10  A    between atoms: C12_33  and  N7_34 
ROOT
HETATM    1  C4  UNL     1       9.587   3.629 105.723  1.00  0.00     0.135 C 
HETATM    2  N1  UNL     1       9.929   2.878 106.650  1.00  0.00    -0.253 N 
ATOM      3  H1  UNL     1       9.175   2.384 107.127  1.00  0.00     0.195 HD
ENDROOT
BRANCH   1   4
HETATM    4  C2  UNL     1       8.108   3.709 105.427  1.00  0.00     0.100 C 
HETATM    5  C1  UNL     1       7.318   3.928 106.677  1.00  0.00     0.052 C 
HETATM    6  C3  UNL     1       7.651   2.414 104.785  1.00  0.00     0.052 C 
BRANCH   4   7
HETATM    7  O1  UNL     1       7.923   4.733 104.502  1.00  0.00    -0.384 OA
ATOM      8  H1  UNL     1       8.734   4.981 104.073  1.00  0.00     0.211 HD
ENDBRANCH   4   7
ENDBRANCH   1   4
BRANCH   1   9
HETATM    9  C8  UNL     1      10.471   4.424 104.917  1.00  0.00     0.287 C 
HETATM   10  O5  UNL     1      10.777   5.590 105.371  1.00  0.00    -0.264 OA
HETATM   11  N5  UNL     1      11.057   4.110 103.692  1.00  0.00    -0.262 N 
ATOM     12  H5  UNL     1      10.866   3.205 103.263  1.00  0.00     0.190 HD
BRANCH  11  13
HETATM   13  N6  UNL     1      11.895   5.008 103.046  1.00  0.00    -0.263 N 
HETATM   14  C9  UNL     1      11.474   5.720 101.921  1.00  0.00     0.270 C 
HETATM   15  O6  UNL     1      10.316   5.535 101.496  1.00  0.00    -0.266 OA
ATOM     16  H6  UNL     1      12.840   5.152 103.402  1.00  0.00     0.190 HD
BRANCH  14  17
HETATM   17  C10 UNL     1      12.353   6.690 101.210  1.00  0.00     0.043 A 
HETATM   18  C11 UNL     1      12.182   8.042 101.360  1.00  0.00     0.069 A 
HETATM   19  S1  UNL     1      13.410   8.694 100.370  1.00  0.00    -0.077 SA
HETATM   20  C12 UNL     1      14.103   7.252  99.793  1.00  0.00     0.144 A 
HETATM   21  C13 UNL     1      13.349   6.287 100.398  1.00  0.00     0.061 A 
BRANCH  20  22
HETATM   22  N7  UNL     1      15.200   7.089  98.902  1.00  0.00    -0.108 N 
HETATM   23  O7  UNL     1      15.046   6.614  97.766  1.00  0.00    -0.531 OA
HETATM   24  O8  UNL     1      16.463   7.454  99.279  1.00  0.00    -0.531 OA
ENDBRANCH  20  22
ENDBRANCH  14  17
ENDBRANCH  11  13
ENDBRANCH   1   9
BRANCH   2  25
HETATM   25  O2  UNL     1      11.156   2.639 107.098  1.00  0.00    -0.193 OA
BRANCH  25  26
HETATM   26  C5  UNL     1      12.041   1.696 106.585  1.00  0.00     0.337 C 
HETATM   27  O3  UNL     1      12.498   1.924 105.446  1.00  0.00    -0.255 OA
BRANCH  26  28
HETATM   28  C6  UNL     1      12.358   0.539 107.399  1.00  0.00     0.178 A 
HETATM   29  N2  UNL     1      13.159  -0.488 107.050  1.00  0.00    -0.232 N 
HETATM   30  O4  UNL     1      13.216  -1.335 108.005  1.00  0.00    -0.155 OA
ATOM     31  H2  UNL     1      13.646  -0.576 106.157  1.00  0.00     0.197 HD
HETATM   32  N3  UNL     1      12.495  -0.957 109.010  1.00  0.00    -0.224 N 
HETATM   33  C7  UNL     1      11.933   0.222 108.673  1.00  0.00     0.156 A 
ATOM     34  H3  UNL     1      12.374  -1.456 109.892  1.00  0.00     0.198 HD
BRANCH  33  35
HETATM   35  N4  UNL     1      11.156   0.894 109.418  1.00  0.00    -0.382 N 
ATOM     36  H42 UNL     1      10.275   1.309 109.117  1.00  0.00     0.157 HD
ATOM     37  H41 UNL     1      11.284   1.120 110.405  1.00  0.00     0.157 HD
ENDBRANCH  33  35
ENDBRANCH  26  28
ENDBRANCH  25  26
ENDBRANCH   2  25
TORSDOF 10
ENDMDL
MODEL 3
REMARK VINA RESULT: -7.846826007      3.063      8.809
REMARK  10 active torsions:
REMARK  status: ('A' for Active; 'I' for Inactive)
REMARK    1  A    between atoms: C2_2  and  O1_4 
REMARK    2  A    between atoms: C2_2  and  C4_6 
REMARK    3  A    between atoms: C4_6  and  C8_22 
REMARK    4  A    between atoms: N1_7  and  O2_9 
REMARK    5  A    between atoms: O2_9  and  C5_10 
REMARK    6  A    between atoms: C5_10  and  C6_12 
REMARK    7  A    between atoms: C7_18  and  N4_19 
REMARK       I    between atoms: C8_22  and  N5_24 
REMARK    8  A    between atoms: N5_24  and  N6_26 
REMARK       I    between atoms: N6_26  and  C9_28 
REMARK    9  A    between atoms: C9_28  and  C10_30 
REMARK   10  A    between atoms: C12_33  and  N7_34 
ROOT
HETATM    1  C4  UNL     1      10.077   4.549 106.412  1.00  0.00     0.135 C 
HETATM    2  N1  UNL     1      10.314   3.564 107.129  1.00  0.00    -0.253 N 
ATOM      3  H1  UNL     1       9.760   3.490 107.982  1.00  0.00     0.195 HD
ENDROOT
BRANCH   1   4
HETATM    4  C2  UNL     1       9.008   5.499 106.896  1.00  0.00     0.100 C 
HETATM    5  C1  UNL     1       8.540   5.131 108.267  1.00  0.00     0.052 C 
HETATM    6  C3  UNL     1       7.824   5.451 105.950  1.00  0.00     0.052 C 
BRANCH   4   7
HETATM    7  O1  UNL     1       9.540   6.785 106.849  1.00  0.00    -0.384 OA
ATOM      8  H1  UNL     1       9.270   7.257 106.071  1.00  0.00     0.211 HD
ENDBRANCH   4   7
ENDBRANCH   1   4
BRANCH   1   9
HETATM    9  C8  UNL     1      10.732   4.861 105.171  1.00  0.00     0.287 C 
HETATM   10  O5  UNL     1      10.689   3.959 104.252  1.00  0.00    -0.264 OA
HETATM   11  N5  UNL     1      11.420   6.019 104.813  1.00  0.00    -0.262 N 
ATOM     12  H5  UNL     1      11.500   6.782 105.484  1.00  0.00     0.190 HD
BRANCH  11  13
HETATM   13  N6  UNL     1      11.997   6.151 103.557  1.00  0.00    -0.263 N 
HETATM   14  C9  UNL     1      11.782   7.285 102.770  1.00  0.00     0.270 C 
HETATM   15  O6  UNL     1      11.053   8.193 103.217  1.00  0.00    -0.266 OA
ATOM     16  H6  UNL     1      12.591   5.402 103.202  1.00  0.00     0.190 HD
BRANCH  14  17
HETATM   17  C10 UNL     1      12.390   7.451 101.420  1.00  0.00     0.043 A 
HETATM   18  C11 UNL     1      11.790   8.230 100.466  1.00  0.00     0.069 A 
HETATM   19  S1  UNL     1      12.858   8.099  99.140  1.00  0.00    -0.077 SA
HETATM   20  C12 UNL     1      14.027   7.068  99.821  1.00  0.00     0.144 A 
HETATM   21  C13 UNL     1      13.547   6.853 101.081  1.00  0.00     0.061 A 
BRANCH  20  22
HETATM   22  N7  UNL     1      15.214   6.558  99.226  1.00  0.00    -0.108 N 
HETATM   23  O7  UNL     1      15.238   5.442  98.682  1.00  0.00    -0.531 OA
HETATM   24  O8  UNL     1      16.370   7.290  99.238  1.00  0.00    -0.531 OA
ENDBRANCH  20  22
ENDBRANCH  14  17
ENDBRANCH  11  13
ENDBRANCH   1   9
BRANCH   2  25
HETATM   25  O2  UNL     1      11.198   2.595 106.922  1.00  0.00    -0.193 OA
BRANCH  25  26
HETATM   26  C5  UNL     1      11.479   1.548 107.795  1.00  0.00     0.337 C 
HETATM   27  O3  UNL     1      10.911   1.584 108.906  1.00  0.00    -0.255 OA
BRANCH  26  28
HETATM   28  C6  UNL     1      12.395   0.516 107.353  1.00  0.00     0.178 A 
HETATM   29  N2  UNL     1      13.207   0.575 106.278  1.00  0.00    -0.232 N 
HETATM   30  O4  UNL     1      13.878  -0.508 106.183  1.00  0.00    -0.155 OA
ATOM     31  H2  UNL     1      13.274   1.366 105.636  1.00  0.00     0.197 HD
HETATM   32  N3  UNL     1      13.580  -1.329 107.139  1.00  0.00    -0.224 N 
HETATM   33  C7  UNL     1      12.647  -0.725 107.902  1.00  0.00     0.156 A 
ATOM     34  H3  UNL     1      13.977  -2.257 107.286  1.00  0.00     0.198 HD
BRANCH  33  35
HETATM   35  N4  UNL     1      12.116  -1.234 108.936  1.00  0.00    -0.382 N 
ATOM     36  H42 UNL     1      12.518  -1.993 109.485  1.00  0.00     0.157 HD
ATOM     37  H41 UNL     1      11.230  -0.975 109.370  1.00  0.00     0.157 HD
ENDBRANCH  33  35
ENDBRANCH  26  28
ENDBRANCH  25  26
ENDBRANCH   2  25
TORSDOF 10
ENDMDL
MODEL 4
REMARK VINA RESULT: -7.822154408      3.006      8.938
REMARK  10 active torsions:
REMARK  status: ('A' for Active; 'I' for Inactive)
REMARK    1  A    between atoms: C2_2  and  O1_4 
REMARK    2  A    between atoms: C2_2  and  C4_6 
REMARK    3  A    between atoms: C4_6  and  C8_22 
REMARK    4  A    between atoms: N1_7  and  O2_9 
REMARK    5  A    between atoms: O2_9  and  C5_10 
REMARK    6  A    between atoms: C5_10  and  C6_12 
REMARK    7  A    between atoms: C7_18  and  N4_19 
REMARK       I    between atoms: C8_22  and  N5_24 
REMARK    8  A    between atoms: N5_24  and  N6_26 
REMARK       I    between atoms: N6_26  and  C9_28 
REMARK    9  A    between atoms: C9_28  and  C10_30 
REMARK   10  A    between atoms: C12_33  and  N7_34 
ROOT
HETATM    1  C4  UNL     1       9.461   3.350 105.262  1.00  0.00     0.135 C 
HETATM    2  N1  UNL     1       9.697   2.612 106.231  1.00  0.00    -0.253 N 
ATOM      3  H1  UNL     1       8.891   2.134 106.636  1.00  0.00     0.195 HD
ENDROOT
BRANCH   1   4
HETATM    4  C2  UNL     1       8.022   3.442 104.815  1.00  0.00     0.100 C 
HETATM    5  C1  UNL     1       7.270   4.455 105.618  1.00  0.00     0.052 C 
HETATM    6  C3  UNL     1       7.352   2.092 104.987  1.00  0.00     0.052 C 
BRANCH   4   7
HETATM    7  O1  UNL     1       8.026   3.747 103.456  1.00  0.00    -0.384 OA
ATOM      8  H1  UNL     1       8.705   4.372 103.230  1.00  0.00     0.211 HD
ENDBRANCH   4   7
ENDBRANCH   1   4
BRANCH   1   9
HETATM    9  C8  UNL     1      10.433   4.122 104.538  1.00  0.00     0.287 C 
HETATM   10  O5  UNL     1      11.276   3.463 103.820  1.00  0.00    -0.264 OA
HETATM   11  N5  UNL     1      10.599   5.505 104.500  1.00  0.00    -0.262 N 
ATOM     12  H5  UNL     1       9.972   6.100 105.041  1.00  0.00     0.190 HD
BRANCH  11  13
HETATM   13  N6  UNL     1      11.603   6.086 103.738  1.00  0.00    -0.263 N 
HETATM   14  C9  UNL     1      11.332   6.674 102.500  1.00  0.00     0.270 C 
HETATM   15  O6  UNL     1      10.158   6.669 102.080  1.00  0.00    -0.266 OA
ATOM     16  H6  UNL     1      12.560   6.084 104.090  1.00  0.00     0.190 HD
BRANCH  14  17
HETATM   17  C10 UNL     1      12.391   7.304 101.662  1.00  0.00     0.043 A 
HETATM   18  C11 UNL     1      12.491   8.667 101.556  1.00  0.00     0.069 A 
HETATM   19  S1  UNL     1      13.830   8.871 100.517  1.00  0.00    -0.077 SA
HETATM   20  C12 UNL     1      14.226   7.241 100.244  1.00  0.00     0.144 A 
HETATM   21  C13 UNL     1      13.292   6.571 100.982  1.00  0.00     0.061 A 
BRANCH  20  22
HETATM   22  N7  UNL     1      15.275   6.703  99.446  1.00  0.00    -0.108 N 
HETATM   23  O7  UNL     1      16.353   7.301  99.306  1.00  0.00    -0.531 OA
HETATM   24  O8  UNL     1      15.119   5.504  98.808  1.00  0.00    -0.531 OA
ENDBRANCH  20  22
ENDBRANCH  14  17
ENDBRANCH  11  13
ENDBRANCH   1   9
BRANCH   2  25
HETATM   25  O2  UNL     1      10.868   2.366 106.806  1.00  0.00    -0.193 OA
BRANCH  25  26
HETATM   26  C5  UNL     1      11.059   1.722 108.024  1.00  0.00     0.337 C 
HETATM   27  O3  UNL     1      10.483   2.221 109.013  1.00  0.00    -0.255 OA
BRANCH  26  28
HETATM   28  C6  UNL     1      11.900   0.542 108.051  1.00  0.00     0.178 A 
HETATM   29  N2  UNL     1      12.826   0.200 107.132  1.00  0.00    -0.232 N 
HETATM   30  O4  UNL     1      13.382  -0.901 107.467  1.00  0.00    -0.155 OA
ATOM     31  H2  UNL     1      13.049   0.739 106.295  1.00  0.00     0.197 HD
HETATM   32  N3  UNL     1      12.894  -1.353 108.577  1.00  0.00    -0.224 N 
HETATM   33  C7  UNL     1      11.954  -0.475 108.983  1.00  0.00     0.156 A 
ATOM     34  H3  UNL     1      13.168  -2.211 109.055  1.00  0.00     0.198 HD
BRANCH  33  35
HETATM   35  N4  UNL     1      11.260  -0.592 110.039  1.00  0.00    -0.382 N 
ATOM     36  H42 UNL     1      11.630  -0.847 110.954  1.00  0.00     0.157 HD
ATOM     37  H41 UNL     1      10.255  -0.453 110.139  1.00  0.00     0.157 HD
ENDBRANCH  33  35
ENDBRANCH  26  28
ENDBRANCH  25  26
ENDBRANCH   2  25
TORSDOF 10
ENDMDL
MODEL 5
REMARK VINA RESULT: -7.811043880      2.997      8.314
REMARK  10 active torsions:
REMARK  status: ('A' for Active; 'I' for Inactive)
REMARK    1  A    between atoms: C2_2  and  O1_4 
REMARK    2  A    between atoms: C2_2  and  C4_6 
REMARK    3  A    between atoms: C4_6  and  C8_22 
REMARK    4  A    between atoms: N1_7  and  O2_9 
REMARK    5  A    between atoms: O2_9  and  C5_10 
REMARK    6  A    between atoms: C5_10  and  C6_12 
REMARK    7  A    between atoms: C7_18  and  N4_19 
REMARK       I    between atoms: C8_22  and  N5_24 
REMARK    8  A    between atoms: N5_24  and  N6_26 
REMARK       I    between atoms: N6_26  and  C9_28 
REMARK    9  A    between atoms: C9_28  and  C10_30 
REMARK   10  A    between atoms: C12_33  and  N7_34 
ROOT
HETATM    1  C4  UNL     1       9.620   3.467 105.333  1.00  0.00     0.135 C 
HETATM    2  N1  UNL     1       9.909   2.806 106.342  1.00  0.00    -0.253 N 
ATOM      3  H1  UNL     1       9.137   2.314 106.791  1.00  0.00     0.195 HD
ENDROOT
BRANCH   1   4
HETATM    4  C2  UNL     1       8.171   3.455 104.907  1.00  0.00     0.100 C 
HETATM    5  C1  UNL     1       7.380   4.476 105.660  1.00  0.00     0.052 C 
HETATM    6  C3  UNL     1       7.577   2.086 105.175  1.00  0.00     0.052 C 
BRANCH   4   7
HETATM    7  O1  UNL     1       8.138   3.674 103.533  1.00  0.00    -0.384 OA
ATOM      8  H1  UNL     1       7.613   4.432 103.302  1.00  0.00     0.211 HD
ENDBRANCH   4   7
ENDBRANCH   1   4
BRANCH   1   9
HETATM    9  C8  UNL     1      10.539   4.239 104.543  1.00  0.00     0.287 C 
HETATM   10  O5  UNL     1      11.356   3.580 103.796  1.00  0.00    -0.264 OA
HETATM   11  N5  UNL     1      10.676   5.624 104.466  1.00  0.00    -0.262 N 
ATOM     12  H5  UNL     1      10.067   6.220 105.026  1.00  0.00     0.190 HD
BRANCH  11  13
HETATM   13  N6  UNL     1      11.628   6.206 103.641  1.00  0.00    -0.263 N 
HETATM   14  C9  UNL     1      11.310   6.637 102.350  1.00  0.00     0.270 C 
HETATM   15  O6  UNL     1      10.141   6.490 101.942  1.00  0.00    -0.266 OA
ATOM     16  H6  UNL     1      12.581   6.321 103.984  1.00  0.00     0.190 HD
BRANCH  14  17
HETATM   17  C10 UNL     1      12.313   7.264 101.444  1.00  0.00     0.043 A 
HETATM   18  C11 UNL     1      12.270   8.604 101.161  1.00  0.00     0.069 A 
HETATM   19  S1  UNL     1      13.601   8.816 100.113  1.00  0.00    -0.077 SA
HETATM   20  C12 UNL     1      14.173   7.216 100.059  1.00  0.00     0.144 A 
HETATM   21  C13 UNL     1      13.301   6.551 100.872  1.00  0.00     0.061 A 
BRANCH  20  22
HETATM   22  N7  UNL     1      15.289   6.696  99.345  1.00  0.00    -0.108 N 
HETATM   23  O7  UNL     1      16.354   7.328  99.258  1.00  0.00    -0.531 OA
HETATM   24  O8  UNL     1      15.216   5.476  98.730  1.00  0.00    -0.531 OA
ENDBRANCH  20  22
ENDBRANCH  14  17
ENDBRANCH  11  13
ENDBRANCH   1   9
BRANCH   2  25
HETATM   25  O2  UNL     1      11.101   2.658 106.909  1.00  0.00    -0.193 OA
BRANCH  25  26
HETATM   26  C5  UNL     1      11.551   1.524 107.577  1.00  0.00     0.337 C 
HETATM   27  O3  UNL     1      11.038   1.295 108.691  1.00  0.00    -0.255 OA
BRANCH  26  28
HETATM   28  C6  UNL     1      12.567   0.710 106.937  1.00  0.00     0.178 A 
HETATM   29  N2  UNL     1      12.915  -0.547 107.280  1.00  0.00    -0.232 N 
HETATM   30  O4  UNL     1      13.844  -0.963 106.507  1.00  0.00    -0.155 OA
ATOM     31  H2  UNL     1      12.500  -1.084 108.042  1.00  0.00     0.197 HD
HETATM   32  N3  UNL     1      14.168  -0.062 105.637  1.00  0.00    -0.224 N 
HETATM   33  C7  UNL     1      13.388   1.013 105.870  1.00  0.00     0.156 A 
ATOM     34  H3  UNL     1      14.880  -0.148 104.911  1.00  0.00     0.198 HD
BRANCH  33  35
HETATM   35  N4  UNL     1      13.426   2.095 105.208  1.00  0.00    -0.382 N 
ATOM     36  H42 UNL     1      13.775   2.182 104.254  1.00  0.00     0.157 HD
ATOM     37  H41 UNL     1      13.124   3.020 105.513  1.00  0.00     0.157 HD
ENDBRANCH  33  35
ENDBRANCH  26  28
ENDBRANCH  25  26
ENDBRANCH   2  25
TORSDOF 10
ENDMDL
