MODEL 1
REMARK VINA RESULT: -5.510020238      0.000      0.000
REMARK  1 active torsions:
REMARK  status: ('A' for Active; 'I' for Inactive)
REMARK    1  A    between atoms: C3_4  and  O1_5 
ROOT
HETATM    1  C1  UNL     1      14.469   4.523  19.000  1.00  0.00     0.312 C 
HETATM    2  N1  UNL     1      15.132   4.495  17.698  1.00  0.00     0.120 N 
HETATM    3  C2  UNL     1      15.204   3.086  17.319  1.00  0.00     0.308 C 
HETATM    4  C3  UNL     1      15.897   3.005  16.005  1.00  0.00     0.179 C 
HETATM    5  C4  UNL     1      15.329   3.943  14.960  1.00  0.00     0.256 C 
HETATM    6  C5  UNL     1      16.492   4.342  14.074  1.00  0.00     0.038 C 
HETATM    7  C6  UNL     1      17.026   5.696  14.376  1.00  0.00     0.004 C 
HETATM    8  C7  UNL     1      15.968   6.750  14.521  1.00  0.00     0.036 C 
HETATM    9  C8  UNL     1      14.703   6.290  15.113  1.00  0.00     0.230 C 
HETATM   10  C9  UNL     1      14.628   6.629  16.607  1.00  0.00     0.104 C 
HETATM   11  C10 UNL     1      14.274   5.152  16.772  1.00  0.00     0.459 C 
HETATM   12  N2  UNL     1      14.519   4.958  15.414  1.00  0.00     0.134 N 
ENDROOT
BRANCH   4  13
HETATM   13  O1  UNL     1      17.263   3.289  16.236  1.00  0.00    -0.392 OA
ATOM     14  H1  UNL     1      17.678   3.380  15.386  1.00  0.00     0.210 HD
ENDBRANCH   4  13
TORSDOF 1
ENDMDL
MODEL 2
REMARK VINA RESULT: -5.096493985      4.821      6.090
REMARK  1 active torsions:
REMARK  status: ('A' for Active; 'I' for Inactive)
REMARK    1  A    between atoms: C3_4  and  O1_5 
ROOT
HETATM    1  C1  UNL     1      17.962   1.066  11.003  1.00  0.00     0.312 C 
HETATM    2  N1  UNL     1      17.610   2.484  11.040  1.00  0.00     0.120 N 
HETATM    3  C2  UNL     1      16.532   2.600  12.019  1.00  0.00     0.308 C 
HETATM    4  C3  UNL     1      16.121   4.029  12.073  1.00  0.00     0.179 C 
HETATM    5  C4  UNL     1      17.280   4.988  12.248  1.00  0.00     0.256 C 
HETATM    6  C5  UNL     1      16.890   6.260  11.522  1.00  0.00     0.038 C 
HETATM    7  C6  UNL     1      17.537   6.401  10.191  1.00  0.00     0.004 C 
HETATM    8  C7  UNL     1      19.010   6.118  10.196  1.00  0.00     0.036 C 
HETATM    9  C8  UNL     1      19.444   5.075  11.138  1.00  0.00     0.230 C 
HETATM   10  C9  UNL     1      19.631   3.726  10.432  1.00  0.00     0.104 C 
HETATM   11  C10 UNL     1      18.737   3.187  11.549  1.00  0.00     0.459 C 
HETATM   12  N2  UNL     1      18.538   4.492  11.997  1.00  0.00     0.134 N 
ENDROOT
BRANCH   4  13
HETATM   13  O1  UNL     1      15.423   4.309  10.875  1.00  0.00    -0.392 OA
ATOM     14  H1  UNL     1      16.060   4.294  10.170  1.00  0.00     0.210 HD
ENDBRANCH   4  13
TORSDOF 1
ENDMDL
MODEL 3
REMARK VINA RESULT: -5.082816962      3.285      4.868
REMARK  1 active torsions:
REMARK  status: ('A' for Active; 'I' for Inactive)
REMARK    1  A    between atoms: C3_4  and  O1_5 
ROOT
HETATM    1  C1  UNL     1      16.426   6.405  14.330  1.00  0.00     0.312 C 
HETATM    2  N1  UNL     1      16.842   5.294  13.476  1.00  0.00     0.120 N 
HETATM    3  C2  UNL     1      15.638   4.503  13.239  1.00  0.00     0.308 C 
HETATM    4  C3  UNL     1      16.018   3.342  12.391  1.00  0.00     0.179 C 
HETATM    5  C4  UNL     1      16.812   3.724  11.159  1.00  0.00     0.256 C 
HETATM    6  C5  UNL     1      17.747   2.564  10.882  1.00  0.00     0.038 C 
HETATM    7  C6  UNL     1      19.143   2.812  11.330  1.00  0.00     0.004 C 
HETATM    8  C7  UNL     1      19.683   4.152  10.927  1.00  0.00     0.036 C 
HETATM    9  C8  UNL     1      18.697   5.242  10.898  1.00  0.00     0.230 C 
HETATM   10  C9  UNL     1      18.760   6.088  12.176  1.00  0.00     0.104 C 
HETATM   11  C10 UNL     1      17.252   5.848  12.231  1.00  0.00     0.459 C 
HETATM   12  N2  UNL     1      17.366   4.983  11.144  1.00  0.00     0.134 N 
ENDROOT
BRANCH   4  13
HETATM   13  O1  UNL     1      16.762   2.456  13.205  1.00  0.00    -0.392 OA
ATOM     14  H1  UNL     1      17.533   2.202  12.711  1.00  0.00     0.210 HD
ENDBRANCH   4  13
TORSDOF 1
ENDMDL
MODEL 4
REMARK VINA RESULT: -5.028712456      2.991      4.985
REMARK  1 active torsions:
REMARK  status: ('A' for Active; 'I' for Inactive)
REMARK    1  A    between atoms: C3_4  and  O1_5 
ROOT
HETATM    1  C1  UNL     1      16.766   7.379   9.852  1.00  0.00     0.312 C 
HETATM    2  N1  UNL     1      16.411   6.652  11.069  1.00  0.00     0.120 N 
HETATM    3  C2  UNL     1      16.985   5.318  10.917  1.00  0.00     0.308 C 
HETATM    4  C3  UNL     1      16.626   4.530  12.127  1.00  0.00     0.179 C 
HETATM    5  C4  UNL     1      16.937   5.239  13.428  1.00  0.00     0.256 C 
HETATM    6  C5  UNL     1      15.887   4.781  14.420  1.00  0.00     0.038 C 
HETATM    7  C6  UNL     1      14.805   5.779  14.636  1.00  0.00     0.004 C 
HETATM    8  C7  UNL     1      15.300   7.177  14.859  1.00  0.00     0.036 C 
HETATM    9  C8  UNL     1      16.518   7.535  14.118  1.00  0.00     0.230 C 
HETATM   10  C9  UNL     1      16.186   8.324  12.845  1.00  0.00     0.104 C 
HETATM   11  C10 UNL     1      17.076   7.291  12.153  1.00  0.00     0.459 C 
HETATM   12  N2  UNL     1      17.172   6.592  13.355  1.00  0.00     0.134 N 
ENDROOT
BRANCH   4  13
HETATM   13  O1  UNL     1      15.245   4.237  12.039  1.00  0.00    -0.392 OA
ATOM     14  H1  UNL     1      14.866   4.854  11.424  1.00  0.00     0.210 HD
ENDBRANCH   4  13
TORSDOF 1
ENDMDL
MODEL 5
REMARK VINA RESULT: -5.024063339      3.582      5.545
REMARK  1 active torsions:
REMARK  status: ('A' for Active; 'I' for Inactive)
REMARK    1  A    between atoms: C3_4  and  O1_5 
ROOT
HETATM    1  C1  UNL     1      19.052   2.080  10.801  1.00  0.00     0.312 C 
HETATM    2  N1  UNL     1      18.687   3.264  11.577  1.00  0.00     0.120 N 
HETATM    3  C2  UNL     1      19.539   4.342  11.081  1.00  0.00     0.308 C 
HETATM    4  C3  UNL     1      19.220   5.567  11.862  1.00  0.00     0.179 C 
HETATM    5  C4  UNL     1      17.738   5.874  11.931  1.00  0.00     0.256 C 
HETATM    6  C5  UNL     1      17.508   6.541  13.272  1.00  0.00     0.038 C 
HETATM    7  C6  UNL     1      16.926   5.628  14.292  1.00  0.00     0.004 C 
HETATM    8  C7  UNL     1      15.765   4.819  13.795  1.00  0.00     0.036 C 
HETATM    9  C8  UNL     1      15.840   4.420  12.382  1.00  0.00     0.230 C 
HETATM   10  C9  UNL     1      16.345   2.979  12.234  1.00  0.00     0.104 C 
HETATM   11  C10 UNL     1      17.341   3.588  11.247  1.00  0.00     0.459 C 
HETATM   12  N2  UNL     1      16.878   4.857  11.589  1.00  0.00     0.134 N 
ENDROOT
BRANCH   4  13
HETATM   13  O1  UNL     1      19.750   5.384  13.161  1.00  0.00    -0.392 OA
ATOM     14  H1  UNL     1      20.364   4.661  13.113  1.00  0.00     0.210 HD
ENDBRANCH   4  13
TORSDOF 1
ENDMDL
