MODEL 1
REMARK VINA RESULT: -9.771789459      0.000      0.000
REMARK  19 active torsions:
REMARK  status: ('A' for Active; 'I' for Inactive)
REMARK    1  A    between atoms: C2_2  and  C4_4 
REMARK    2  A    between atoms: C4_4  and  O1_5 
REMARK    3  A    between atoms: C4_4  and  C5_7 
REMARK    4  A    between atoms: C5_7  and  O2_8 
REMARK    5  A    between atoms: C5_7  and  C6_10 
REMARK    6  A    between atoms: C6_10  and  C7_11 
REMARK    7  A    between atoms: C6_10  and  N1_18 
REMARK    8  A    between atoms: C7_11  and  C8_12 
REMARK    9  A    between atoms: N1_18  and  C14_20 
REMARK   10  A    between atoms: C14_20  and  O3_21 
REMARK   11  A    between atoms: C14_20  and  C15_23 
REMARK   12  A    between atoms: C15_23  and  C16_24 
REMARK   13  A    between atoms: C15_23  and  N2_28 
REMARK   14  A    between atoms: C16_24  and  C17_25 
REMARK       I    between atoms: N2_28  and  C20_29 
REMARK   15  A    between atoms: C20_29  and  C21_31 
REMARK   16  A    between atoms: C21_31  and  N3_32 
REMARK   17  A    between atoms: N4_35  and  C24_36 
REMARK   18  A    between atoms: C24_36  and  C25_37 
REMARK   19  A    between atoms: C25_37  and  N5_38 
ROOT
HETATM    1  C15 UNL     1      22.688  -0.396  17.533  1.00  0.00     0.241 C 
ENDROOT
BRANCH   1   2
HETATM    2  C14 UNL     1      21.698   0.593  17.093  1.00  0.00     0.148 C 
BRANCH   2   3
HETATM    3  N1  UNL     1      21.017   1.584  17.781  1.00  0.00    -0.365 N 
ATOM      4  H1  UNL     1      20.743   2.456  17.327  1.00  0.00     0.161 HD
BRANCH   3   5
HETATM    5  C6  UNL     1      20.698   1.316  19.230  1.00  0.00     0.115 C 
BRANCH   5   6
HETATM    6  C5  UNL     1      20.567   2.742  19.815  1.00  0.00     0.169 C 
BRANCH   6   7
HETATM    7  C4  UNL     1      20.115   2.858  21.191  1.00  0.00     0.152 C 
BRANCH   7   8
HETATM    8  C2  UNL     1      18.683   2.821  21.551  1.00  0.00     0.009 C 
HETATM    9  C1  UNL     1      18.155   3.994  22.319  1.00  0.00     0.012 C 
HETATM   10  C3  UNL     1      18.527   1.613  22.511  1.00  0.00     0.012 C 
ENDBRANCH   7   8
BRANCH   7  11
HETATM   11  O1  UNL     1      20.632   4.086  21.680  1.00  0.00    -0.393 OA
ATOM     12  H1  UNL     1      21.567   3.964  21.802  1.00  0.00     0.210 HD
ENDBRANCH   7  11
ENDBRANCH   6   7
BRANCH   6  13
HETATM   13  O2  UNL     1      20.090   3.664  18.934  1.00  0.00    -0.391 OA
ATOM     14  H2  UNL     1      20.727   4.253  18.546  1.00  0.00     0.210 HD
ENDBRANCH   6  13
ENDBRANCH   5   6
BRANCH   5  15
HETATM   15  C7  UNL     1      19.390   0.683  19.372  1.00  0.00     0.032 C 
BRANCH  15  16
HETATM   16  C8  UNL     1      18.606   0.388  18.130  1.00  0.00    -0.013 C 
HETATM   17  C9  UNL     1      17.775   1.595  17.678  1.00  0.00     0.005 C 
HETATM   18  C10 UNL     1      16.821   2.039  18.745  1.00  0.00     0.000 C 
HETATM   19  C11 UNL     1      16.160   0.934  19.487  1.00  0.00     0.000 C 
HETATM   20  C12 UNL     1      16.378  -0.441  19.010  1.00  0.00     0.000 C 
HETATM   21  C13 UNL     1      17.637  -0.741  18.275  1.00  0.00     0.005 C 
ENDBRANCH  15  16
ENDBRANCH   5  15
ENDBRANCH   3   5
ENDBRANCH   2   3
BRANCH   2  22
HETATM   22  O3  UNL     1      21.394   0.505  15.829  1.00  0.00    -0.347 OA
ATOM     23  H3  UNL     1      22.142   0.448  15.246  1.00  0.00     0.219 HD
ENDBRANCH   2  22
ENDBRANCH   1   2
BRANCH   1  24
HETATM   24  C16 UNL     1      24.120  -0.062  17.436  1.00  0.00     0.052 C 
BRANCH  24  25
HETATM   25  C17 UNL     1      24.876   0.564  18.501  1.00  0.00    -0.011 A 
HETATM   26  C18 UNL     1      24.527   1.291  19.707  1.00  0.00     0.005 A 
HETATM   27  C19 UNL     1      24.756   2.128  18.528  1.00  0.00     0.005 A 
ENDBRANCH  24  25
ENDBRANCH   1  24
BRANCH   1  28
HETATM   28  N2  UNL     1      22.472  -1.703  17.029  1.00  0.00    -0.399 NA
HETATM   29  C20 UNL     1      22.280  -2.953  16.569  1.00  0.00     0.320 C 
HETATM   30  O4  UNL     1      22.695  -4.068  17.044  1.00  0.00    -0.254 OA
BRANCH  29  31
HETATM   31  C21 UNL     1      21.443  -3.104  15.283  1.00  0.00     0.148 A 
HETATM   32  C36 UNL     1      21.639  -4.445  14.720  1.00  0.00     0.011 A 
HETATM   33  C37 UNL     1      22.346  -3.906  13.719  1.00  0.00    -0.024 A 
HETATM   34  C38 UNL     1      22.215  -2.510  14.191  1.00  0.00     0.073 A 
BRANCH  31  35
HETATM   35  N3  UNL     1      20.120  -2.701  15.595  1.00  0.00    -0.362 N 
HETATM   36  C22 UNL     1      19.516  -3.751  16.374  1.00  0.00     0.168 C 
HETATM   37  C23 UNL     1      18.068  -3.982  16.154  1.00  0.00     0.084 C 
HETATM   38  N4  UNL     1      17.547  -3.783  14.866  1.00  0.00    -0.356 N 
HETATM   39  C34 UNL     1      18.153  -2.801  14.064  1.00  0.00     0.108 C 
HETATM   40  C35 UNL     1      19.328  -2.074  14.634  1.00  0.00     0.104 C 
BRANCH  38  41
HETATM   41  C24 UNL     1      16.869  -4.858  14.248  1.00  0.00     0.062 C 
HETATM   42  C30 UNL     1      15.543  -4.350  13.602  1.00  0.00     0.033 C 
HETATM   43  C31 UNL     1      14.861  -5.662  13.259  1.00  0.00     0.002 C 
HETATM   44  C32 UNL     1      15.437  -6.720  14.141  1.00  0.00     0.002 C 
HETATM   45  C33 UNL     1      16.312  -5.930  15.128  1.00  0.00     0.033 C 
BRANCH  41  46
HETATM   46  C25 UNL     1      17.654  -5.376  13.062  1.00  0.00     0.303 C 
BRANCH  46  47
HETATM   47  N5  UNL     1      18.792  -6.168  13.342  1.00  0.00     0.090 N 
HETATM   48  C26 UNL     1      19.776  -5.842  12.282  1.00  0.00     0.272 C 
HETATM   49  C27 UNL     1      20.685  -7.016  12.194  1.00  0.00     0.032 C 
HETATM   50  C28 UNL     1      20.050  -8.138  12.986  1.00  0.00     0.032 C 
HETATM   51  C29 UNL     1      18.653  -7.589  13.270  1.00  0.00     0.272 C 
ENDBRANCH  46  47
ENDBRANCH  41  46
ENDBRANCH  38  41
ENDBRANCH  31  35
ENDBRANCH  29  31
ENDBRANCH   1  28
TORSDOF 19
ENDMDL
MODEL 2
REMARK VINA RESULT: -9.507463510      1.691      3.625
REMARK  19 active torsions:
REMARK  status: ('A' for Active; 'I' for Inactive)
REMARK    1  A    between atoms: C2_2  and  C4_4 
REMARK    2  A    between atoms: C4_4  and  O1_5 
REMARK    3  A    between atoms: C4_4  and  C5_7 
REMARK    4  A    between atoms: C5_7  and  O2_8 
REMARK    5  A    between atoms: C5_7  and  C6_10 
REMARK    6  A    between atoms: C6_10  and  C7_11 
REMARK    7  A    between atoms: C6_10  and  N1_18 
REMARK    8  A    between atoms: C7_11  and  C8_12 
REMARK    9  A    between atoms: N1_18  and  C14_20 
REMARK   10  A    between atoms: C14_20  and  O3_21 
REMARK   11  A    between atoms: C14_20  and  C15_23 
REMARK   12  A    between atoms: C15_23  and  C16_24 
REMARK   13  A    between atoms: C15_23  and  N2_28 
REMARK   14  A    between atoms: C16_24  and  C17_25 
REMARK       I    between atoms: N2_28  and  C20_29 
REMARK   15  A    between atoms: C20_29  and  C21_31 
REMARK   16  A    between atoms: C21_31  and  N3_32 
REMARK   17  A    between atoms: N4_35  and  C24_36 
REMARK   18  A    between atoms: C24_36  and  C25_37 
REMARK   19  A    between atoms: C25_37  and  N5_38 
ROOT
HETATM    1  C15 UNL     1      22.156   0.851  18.941  1.00  0.00     0.241 C 
ENDROOT
BRANCH   1   2
HETATM    2  C14 UNL     1      21.646   2.171  19.330  1.00  0.00     0.148 C 
BRANCH   2   3
HETATM    3  N1  UNL     1      20.954   2.597  20.452  1.00  0.00    -0.365 N 
ATOM      4  H1  UNL     1      21.376   3.231  21.130  1.00  0.00     0.161 HD
BRANCH   3   5
HETATM    5  C6  UNL     1      19.546   2.083  20.624  1.00  0.00     0.115 C 
BRANCH   5   6
HETATM    6  C5  UNL     1      19.006   2.962  21.776  1.00  0.00     0.169 C 
BRANCH   6   7
HETATM    7  C4  UNL     1      18.370   2.281  22.891  1.00  0.00     0.152 C 
BRANCH   7   8
HETATM    8  C2  UNL     1      18.716   2.584  24.295  1.00  0.00     0.009 C 
HETATM    9  C1  UNL     1      20.112   3.065  24.552  1.00  0.00     0.012 C 
HETATM   10  C3  UNL     1      18.616   1.232  25.049  1.00  0.00     0.012 C 
ENDBRANCH   7   8
BRANCH   7  11
HETATM   11  O1  UNL     1      18.604   0.894  22.699  1.00  0.00    -0.393 OA
ATOM     12  H1  UNL     1      17.758   0.462  22.740  1.00  0.00     0.210 HD
ENDBRANCH   7  11
ENDBRANCH   6   7
BRANCH   6  13
HETATM   13  O2  UNL     1      18.437   4.129  21.368  1.00  0.00    -0.391 OA
ATOM     14  H2  UNL     1      18.875   4.595  20.665  1.00  0.00     0.210 HD
ENDBRANCH   6  13
ENDBRANCH   5   6
BRANCH   5  15
HETATM   15  C7  UNL     1      18.731   2.382  19.450  1.00  0.00     0.032 C 
BRANCH  15  16
HETATM   16  C8  UNL     1      18.392   1.261  18.517  1.00  0.00    -0.013 C 
HETATM   17  C9  UNL     1      17.224   1.619  17.591  1.00  0.00     0.005 C 
HETATM   18  C10 UNL     1      15.993   1.976  18.369  1.00  0.00     0.000 C 
HETATM   19  C11 UNL     1      15.744   1.128  19.563  1.00  0.00     0.000 C 
HETATM   20  C12 UNL     1      16.613  -0.042  19.767  1.00  0.00     0.000 C 
HETATM   21  C13 UNL     1      17.991  -0.004  19.205  1.00  0.00     0.005 C 
ENDBRANCH  15  16
ENDBRANCH   5  15
ENDBRANCH   3   5
ENDBRANCH   2   3
BRANCH   2  22
HETATM   22  O3  UNL     1      21.871   3.102  18.447  1.00  0.00    -0.347 OA
ATOM     23  H3  UNL     1      21.790   2.817  17.544  1.00  0.00     0.219 HD
ENDBRANCH   2  22
ENDBRANCH   1   2
BRANCH   1  24
HETATM   24  C16 UNL     1      23.613   0.625  18.934  1.00  0.00     0.052 C 
BRANCH  24  25
HETATM   25  C17 UNL     1      24.505   1.091  19.974  1.00  0.00    -0.011 A 
HETATM   26  C18 UNL     1      24.675   2.344  20.686  1.00  0.00     0.005 A 
HETATM   27  C19 UNL     1      25.514   2.194  19.496  1.00  0.00     0.005 A 
ENDBRANCH  24  25
ENDBRANCH   1  24
BRANCH   1  28
HETATM   28  N2  UNL     1      21.592   0.335  17.749  1.00  0.00    -0.399 NA
HETATM   29  C20 UNL     1      21.054  -0.133  16.607  1.00  0.00     0.320 C 
HETATM   30  O4  UNL     1      20.695   0.505  15.556  1.00  0.00    -0.254 OA
BRANCH  29  31
HETATM   31  C21 UNL     1      20.821  -1.653  16.515  1.00  0.00     0.148 A 
HETATM   32  C36 UNL     1      19.543  -1.919  15.845  1.00  0.00     0.011 A 
HETATM   33  C37 UNL     1      19.027  -2.314  17.015  1.00  0.00    -0.024 A 
HETATM   34  C38 UNL     1      20.262  -2.085  17.797  1.00  0.00     0.073 A 
BRANCH  31  35
HETATM   35  N3  UNL     1      21.994  -2.225  15.958  1.00  0.00    -0.362 N 
HETATM   36  C22 UNL     1      21.781  -2.362  14.540  1.00  0.00     0.168 C 
HETATM   37  C23 UNL     1      22.394  -3.550  13.897  1.00  0.00     0.084 C 
HETATM   38  N4  UNL     1      22.479  -4.741  14.634  1.00  0.00    -0.356 N 
HETATM   39  C34 UNL     1      22.632  -4.635  16.027  1.00  0.00     0.108 C 
HETATM   40  C35 UNL     1      22.655  -3.261  16.615  1.00  0.00     0.104 C 
BRANCH  38  41
HETATM   41  C24 UNL     1      21.886  -5.904  14.090  1.00  0.00     0.062 C 
HETATM   42  C30 UNL     1      22.687  -7.166  14.535  1.00  0.00     0.033 C 
HETATM   43  C31 UNL     1      22.076  -8.231  13.642  1.00  0.00     0.002 C 
HETATM   44  C32 UNL     1      21.477  -7.547  12.459  1.00  0.00     0.002 C 
HETATM   45  C33 UNL     1      21.947  -6.090  12.608  1.00  0.00     0.033 C 
BRANCH  41  46
HETATM   46  C25 UNL     1      20.515  -6.136  14.689  1.00  0.00     0.303 C 
BRANCH  46  47
HETATM   47  N5  UNL     1      19.497  -5.222  14.334  1.00  0.00     0.090 N 
HETATM   48  C26 UNL     1      18.532  -5.242  15.460  1.00  0.00     0.272 C 
HETATM   49  C27 UNL     1      17.234  -4.788  14.893  1.00  0.00     0.032 C 
HETATM   50  C28 UNL     1      17.373  -4.794  13.386  1.00  0.00     0.032 C 
HETATM   51  C29 UNL     1      18.702  -5.519  13.183  1.00  0.00     0.272 C 
ENDBRANCH  46  47
ENDBRANCH  41  46
ENDBRANCH  38  41
ENDBRANCH  31  35
ENDBRANCH  29  31
ENDBRANCH   1  28
TORSDOF 19
ENDMDL
MODEL 3
REMARK VINA RESULT: -9.389605312      2.764     10.146
REMARK  19 active torsions:
REMARK  status: ('A' for Active; 'I' for Inactive)
REMARK    1  A    between atoms: C2_2  and  C4_4 
REMARK    2  A    between atoms: C4_4  and  O1_5 
REMARK    3  A    between atoms: C4_4  and  C5_7 
REMARK    4  A    between atoms: C5_7  and  O2_8 
REMARK    5  A    between atoms: C5_7  and  C6_10 
REMARK    6  A    between atoms: C6_10  and  C7_11 
REMARK    7  A    between atoms: C6_10  and  N1_18 
REMARK    8  A    between atoms: C7_11  and  C8_12 
REMARK    9  A    between atoms: N1_18  and  C14_20 
REMARK   10  A    between atoms: C14_20  and  O3_21 
REMARK   11  A    between atoms: C14_20  and  C15_23 
REMARK   12  A    between atoms: C15_23  and  C16_24 
REMARK   13  A    between atoms: C15_23  and  N2_28 
REMARK   14  A    between atoms: C16_24  and  C17_25 
REMARK       I    between atoms: N2_28  and  C20_29 
REMARK   15  A    between atoms: C20_29  and  C21_31 
REMARK   16  A    between atoms: C21_31  and  N3_32 
REMARK   17  A    between atoms: N4_35  and  C24_36 
REMARK   18  A    between atoms: C24_36  and  C25_37 
REMARK   19  A    between atoms: C25_37  and  N5_38 
ROOT
HETATM    1  C15 UNL     1      20.284  -0.025  16.288  1.00  0.00     0.241 C 
ENDROOT
BRANCH   1   2
HETATM    2  C14 UNL     1      19.946  -0.709  15.035  1.00  0.00     0.148 C 
BRANCH   2   3
HETATM    3  N1  UNL     1      19.383  -1.950  14.785  1.00  0.00    -0.365 N 
ATOM      4  H1  UNL     1      18.844  -2.130  13.938  1.00  0.00     0.161 HD
BRANCH   3   5
HETATM    5  C6  UNL     1      19.604  -3.023  15.822  1.00  0.00     0.115 C 
BRANCH   5   6
HETATM    6  C5  UNL     1      18.211  -3.688  15.919  1.00  0.00     0.169 C 
BRANCH   6   7
HETATM    7  C4  UNL     1      17.945  -4.808  15.033  1.00  0.00     0.152 C 
BRANCH   7   8
HETATM    8  C2  UNL     1      17.318  -4.626  13.708  1.00  0.00     0.009 C 
HETATM    9  C1  UNL     1      15.944  -5.199  13.533  1.00  0.00     0.012 C 
HETATM   10  C3  UNL     1      18.209  -5.418  12.714  1.00  0.00     0.012 C 
ENDBRANCH   7   8
BRANCH   7  11
HETATM   11  O1  UNL     1      17.121  -5.707  15.760  1.00  0.00    -0.393 OA
ATOM     12  H1  UNL     1      17.359  -6.585  15.484  1.00  0.00     0.210 HD
ENDBRANCH   7  11
ENDBRANCH   6   7
BRANCH   6  13
HETATM   13  O2  UNL     1      17.188  -2.813  16.123  1.00  0.00    -0.391 OA
ATOM     14  H2  UNL     1      17.072  -2.491  17.010  1.00  0.00     0.210 HD
ENDBRANCH   6  13
ENDBRANCH   5   6
BRANCH   5  15
HETATM   15  C7  UNL     1      20.524  -4.046  15.332  1.00  0.00     0.032 C 
BRANCH  15  16
HETATM   16  C8  UNL     1      21.985  -3.722  15.286  1.00  0.00    -0.013 C 
HETATM   17  C9  UNL     1      22.500  -3.602  13.846  1.00  0.00     0.005 C 
HETATM   18  C10 UNL     1      22.270  -4.864  13.071  1.00  0.00     0.000 C 
HETATM   19  C11 UNL     1      22.518  -6.115  13.832  1.00  0.00     0.000 C 
HETATM   20  C12 UNL     1      23.100  -5.997  15.179  1.00  0.00     0.000 C 
HETATM   21  C13 UNL     1      22.856  -4.743  15.944  1.00  0.00     0.005 C 
ENDBRANCH  15  16
ENDBRANCH   5  15
ENDBRANCH   3   5
ENDBRANCH   2   3
BRANCH   2  22
HETATM   22  O3  UNL     1      20.251  -0.029  13.966  1.00  0.00    -0.347 OA
ATOM     23  H3  UNL     1      19.541   0.498  13.618  1.00  0.00     0.219 HD
ENDBRANCH   2  22
ENDBRANCH   1   2
BRANCH   1  24
HETATM   24  C16 UNL     1      21.581  -0.308  16.927  1.00  0.00     0.052 C 
BRANCH  24  25
HETATM   25  C17 UNL     1      22.239   0.594  17.850  1.00  0.00    -0.011 A 
HETATM   26  C18 UNL     1      23.588   0.717  18.367  1.00  0.00     0.005 A 
HETATM   27  C19 UNL     1      22.684  -0.086  19.192  1.00  0.00     0.005 A 
ENDBRANCH  24  25
ENDBRANCH   1  24
BRANCH   1  28
HETATM   28  N2  UNL     1      19.259  -0.057  17.265  1.00  0.00    -0.399 NA
HETATM   29  C20 UNL     1      18.279  -0.110  18.187  1.00  0.00     0.320 C 
HETATM   30  O4  UNL     1      17.502  -1.081  18.493  1.00  0.00    -0.254 OA
BRANCH  29  31
HETATM   31  C21 UNL     1      18.028   1.166  19.015  1.00  0.00     0.148 A 
HETATM   32  C36 UNL     1      16.589   1.330  19.248  1.00  0.00     0.011 A 
HETATM   33  C37 UNL     1      16.583   2.363  18.396  1.00  0.00    -0.024 A 
HETATM   34  C38 UNL     1      18.028   2.295  18.084  1.00  0.00     0.073 A 
BRANCH  31  35
HETATM   35  N3  UNL     1      18.881   1.105  20.147  1.00  0.00    -0.362 N 
HETATM   36  C22 UNL     1      18.069   0.760  21.287  1.00  0.00     0.168 C 
HETATM   37  C23 UNL     1      18.456   1.377  22.578  1.00  0.00     0.084 C 
HETATM   38  N4  UNL     1      18.996   2.673  22.567  1.00  0.00    -0.356 N 
HETATM   39  C34 UNL     1      19.748   3.053  21.441  1.00  0.00     0.108 C 
HETATM   40  C35 UNL     1      19.878   2.061  20.332  1.00  0.00     0.104 C 
BRANCH  38  41
HETATM   41  C24 UNL     1      18.358   3.668  23.341  1.00  0.00     0.062 C 
HETATM   42  C30 UNL     1      17.675   3.018  24.583  1.00  0.00     0.033 C 
HETATM   43  C31 UNL     1      16.840   4.176  25.100  1.00  0.00     0.002 C 
HETATM   44  C32 UNL     1      16.616   5.119  23.964  1.00  0.00     0.002 C 
HETATM   45  C33 UNL     1      17.172   4.359  22.748  1.00  0.00     0.033 C 
BRANCH  41  46
HETATM   46  C25 UNL     1      19.377   4.603  23.957  1.00  0.00     0.303 C 
BRANCH  46  47
HETATM   47  N5  UNL     1      20.307   4.035  24.858  1.00  0.00     0.090 N 
HETATM   48  C26 UNL     1      20.316   4.931  26.040  1.00  0.00     0.272 C 
HETATM   49  C27 UNL     1      21.632   4.720  26.701  1.00  0.00     0.032 C 
HETATM   50  C28 UNL     1      22.498   3.933  25.742  1.00  0.00     0.032 C 
HETATM   51  C29 UNL     1      21.677   3.969  24.453  1.00  0.00     0.272 C 
ENDBRANCH  46  47
ENDBRANCH  41  46
ENDBRANCH  38  41
ENDBRANCH  31  35
ENDBRANCH  29  31
ENDBRANCH   1  28
TORSDOF 19
ENDMDL
MODEL 4
REMARK VINA RESULT: -9.383795852      3.223      9.779
REMARK  19 active torsions:
REMARK  status: ('A' for Active; 'I' for Inactive)
REMARK    1  A    between atoms: C2_2  and  C4_4 
REMARK    2  A    between atoms: C4_4  and  O1_5 
REMARK    3  A    between atoms: C4_4  and  C5_7 
REMARK    4  A    between atoms: C5_7  and  O2_8 
REMARK    5  A    between atoms: C5_7  and  C6_10 
REMARK    6  A    between atoms: C6_10  and  C7_11 
REMARK    7  A    between atoms: C6_10  and  N1_18 
REMARK    8  A    between atoms: C7_11  and  C8_12 
REMARK    9  A    between atoms: N1_18  and  C14_20 
REMARK   10  A    between atoms: C14_20  and  O3_21 
REMARK   11  A    between atoms: C14_20  and  C15_23 
REMARK   12  A    between atoms: C15_23  and  C16_24 
REMARK   13  A    between atoms: C15_23  and  N2_28 
REMARK   14  A    between atoms: C16_24  and  C17_25 
REMARK       I    between atoms: N2_28  and  C20_29 
REMARK   15  A    between atoms: C20_29  and  C21_31 
REMARK   16  A    between atoms: C21_31  and  N3_32 
REMARK   17  A    between atoms: N4_35  and  C24_36 
REMARK   18  A    between atoms: C24_36  and  C25_37 
REMARK   19  A    between atoms: C25_37  and  N5_38 
ROOT
HETATM    1  C15 UNL     1      20.197  -7.393  12.488  1.00  0.00     0.241 C 
ENDROOT
BRANCH   1   2
HETATM    2  C14 UNL     1      18.897  -7.007  11.928  1.00  0.00     0.148 C 
BRANCH   2   3
HETATM    3  N1  UNL     1      17.690  -7.684  11.848  1.00  0.00    -0.365 N 
ATOM      4  H1  UNL     1      17.350  -8.065  10.966  1.00  0.00     0.161 HD
BRANCH   3   5
HETATM    5  C6  UNL     1      16.902  -7.829  13.126  1.00  0.00     0.115 C 
BRANCH   5   6
HETATM    6  C5  UNL     1      15.701  -6.885  12.889  1.00  0.00     0.169 C 
BRANCH   6   7
HETATM    7  C4  UNL     1      15.903  -5.471  13.157  1.00  0.00     0.152 C 
BRANCH   7   8
HETATM    8  C2  UNL     1      15.545  -4.860  14.453  1.00  0.00     0.009 C 
HETATM    9  C1  UNL     1      15.825  -3.396  14.605  1.00  0.00     0.012 C 
HETATM   10  C3  UNL     1      16.455  -5.550  15.503  1.00  0.00     0.012 C 
ENDBRANCH   7   8
BRANCH   7  11
HETATM   11  O1  UNL     1      15.183  -4.767  12.156  1.00  0.00    -0.393 OA
ATOM     12  H1  UNL     1      15.778  -4.123  11.789  1.00  0.00     0.210 HD
ENDBRANCH   7  11
ENDBRANCH   6   7
BRANCH   6  13
HETATM   13  O2  UNL     1      14.498  -7.410  13.251  1.00  0.00    -0.391 OA
ATOM     14  H2  UNL     1      14.469  -8.349  13.397  1.00  0.00     0.210 HD
ENDBRANCH   6  13
ENDBRANCH   5   6
BRANCH   5  15
HETATM   15  C7  UNL     1      16.357  -9.178  13.256  1.00  0.00     0.032 C 
BRANCH  15  16
HETATM   16  C8  UNL     1      16.836 -10.231  12.306  1.00  0.00    -0.013 C 
HETATM   17  C9  UNL     1      15.740 -11.255  11.985  1.00  0.00     0.005 C 
HETATM   18  C10 UNL     1      15.236 -11.930  13.225  1.00  0.00     0.000 C 
HETATM   19  C11 UNL     1      16.287 -12.273  14.218  1.00  0.00     0.000 C 
HETATM   20  C12 UNL     1      17.692 -12.068  13.829  1.00  0.00     0.000 C 
HETATM   21  C13 UNL     1      17.997 -11.025  12.811  1.00  0.00     0.005 C 
ENDBRANCH  15  16
ENDBRANCH   5  15
ENDBRANCH   3   5
ENDBRANCH   2   3
BRANCH   2  22
HETATM   22  O3  UNL     1      18.887  -5.819  11.393  1.00  0.00    -0.347 OA
ATOM     23  H3  UNL     1      19.129  -5.799  10.474  1.00  0.00     0.219 HD
ENDBRANCH   2  22
ENDBRANCH   1   2
BRANCH   1  24
HETATM   24  C16 UNL     1      20.243  -8.438  13.527  1.00  0.00     0.052 C 
BRANCH  24  25
HETATM   25  C17 UNL     1      21.430  -9.205  13.845  1.00  0.00    -0.011 A 
HETATM   26  C18 UNL     1      21.686 -10.590  14.189  1.00  0.00     0.005 A 
HETATM   27  C19 UNL     1      21.485  -9.699  15.333  1.00  0.00     0.005 A 
ENDBRANCH  24  25
ENDBRANCH   1  24
BRANCH   1  28
HETATM   28  N2  UNL     1      21.011  -6.302  12.879  1.00  0.00    -0.399 NA
HETATM   29  C20 UNL     1      21.793  -5.263  13.228  1.00  0.00     0.320 C 
HETATM   30  O4  UNL     1      22.596  -4.571  12.508  1.00  0.00    -0.254 OA
BRANCH  29  31
HETATM   31  C21 UNL     1      21.741  -4.812  14.700  1.00  0.00     0.148 A 
HETATM   32  C36 UNL     1      23.054  -4.298  15.107  1.00  0.00     0.011 A 
HETATM   33  C37 UNL     1      23.231  -5.388  15.864  1.00  0.00    -0.024 A 
HETATM   34  C38 UNL     1      21.930  -6.005  15.527  1.00  0.00     0.073 A 
BRANCH  31  35
HETATM   35  N3  UNL     1      20.621  -3.953  14.837  1.00  0.00    -0.362 N 
HETATM   36  C22 UNL     1      21.024  -2.638  14.407  1.00  0.00     0.168 C 
HETATM   37  C23 UNL     1      20.421  -1.497  15.137  1.00  0.00     0.084 C 
HETATM   38  N4  UNL     1      20.143  -1.648  16.505  1.00  0.00    -0.356 N 
HETATM   39  C34 UNL     1      19.800  -2.933  16.960  1.00  0.00     0.108 C 
HETATM   40  C35 UNL     1      19.797  -4.041  15.958  1.00  0.00     0.104 C 
BRANCH  38  41
HETATM   41  C24 UNL     1      20.718  -0.725  17.407  1.00  0.00     0.062 C 
HETATM   42  C30 UNL     1      21.783   0.145  16.672  1.00  0.00     0.033 C 
HETATM   43  C31 UNL     1      22.452   0.842  17.842  1.00  0.00     0.002 C 
HETATM   44  C32 UNL     1      22.214   0.017  19.063  1.00  0.00     0.002 C 
HETATM   45  C33 UNL     1      21.569  -1.265  18.511  1.00  0.00     0.033 C 
BRANCH  41  46
HETATM   46  C25 UNL     1      19.692   0.294  17.857  1.00  0.00     0.303 C 
BRANCH  46  47
HETATM   47  N5  UNL     1      18.894  -0.050  18.973  1.00  0.00     0.090 N 
HETATM   48  C26 UNL     1      17.533  -0.286  18.433  1.00  0.00     0.272 C 
HETATM   49  C27 UNL     1      16.600  -0.068  19.570  1.00  0.00     0.032 C 
HETATM   50  C28 UNL     1      17.389   0.585  20.684  1.00  0.00     0.032 C 
HETATM   51  C29 UNL     1      18.704   0.939  19.989  1.00  0.00     0.272 C 
ENDBRANCH  46  47
ENDBRANCH  41  46
ENDBRANCH  38  41
ENDBRANCH  31  35
ENDBRANCH  29  31
ENDBRANCH   1  28
TORSDOF 19
ENDMDL
MODEL 5
REMARK VINA RESULT: -9.369062868      2.671      9.577
REMARK  19 active torsions:
REMARK  status: ('A' for Active; 'I' for Inactive)
REMARK    1  A    between atoms: C2_2  and  C4_4 
REMARK    2  A    between atoms: C4_4  and  O1_5 
REMARK    3  A    between atoms: C4_4  and  C5_7 
REMARK    4  A    between atoms: C5_7  and  O2_8 
REMARK    5  A    between atoms: C5_7  and  C6_10 
REMARK    6  A    between atoms: C6_10  and  C7_11 
REMARK    7  A    between atoms: C6_10  and  N1_18 
REMARK    8  A    between atoms: C7_11  and  C8_12 
REMARK    9  A    between atoms: N1_18  and  C14_20 
REMARK   10  A    between atoms: C14_20  and  O3_21 
REMARK   11  A    between atoms: C14_20  and  C15_23 
REMARK   12  A    between atoms: C15_23  and  C16_24 
REMARK   13  A    between atoms: C15_23  and  N2_28 
REMARK   14  A    between atoms: C16_24  and  C17_25 
REMARK       I    between atoms: N2_28  and  C20_29 
REMARK   15  A    between atoms: C20_29  and  C21_31 
REMARK   16  A    between atoms: C21_31  and  N3_32 
REMARK   17  A    between atoms: N4_35  and  C24_36 
REMARK   18  A    between atoms: C24_36  and  C25_37 
REMARK   19  A    between atoms: C25_37  and  N5_38 
ROOT
HETATM    1  C15 UNL     1      18.937  -0.717  15.811  1.00  0.00     0.241 C 
ENDROOT
BRANCH   1   2
HETATM    2  C14 UNL     1      20.129  -0.186  15.140  1.00  0.00     0.148 C 
BRANCH   2   3
HETATM    3  N1  UNL     1      21.236   0.492  15.627  1.00  0.00    -0.365 N 
ATOM      4  H1  UNL     1      21.676   1.243  15.097  1.00  0.00     0.161 HD
BRANCH   3   5
HETATM    5  C6  UNL     1      21.758   0.067  16.977  1.00  0.00     0.115 C 
BRANCH   5   6
HETATM    6  C5  UNL     1      22.802  -1.013  16.607  1.00  0.00     0.169 C 
BRANCH   6   7
HETATM    7  C4  UNL     1      22.561  -2.363  17.086  1.00  0.00     0.152 C 
BRANCH   7   8
HETATM    8  C2  UNL     1      22.190  -3.463  16.172  1.00  0.00     0.009 C 
HETATM    9  C1  UNL     1      22.156  -3.137  14.710  1.00  0.00     0.012 C 
HETATM   10  C3  UNL     1      20.726  -3.828  16.533  1.00  0.00     0.012 C 
ENDBRANCH   7   8
BRANCH   7  11
HETATM   11  O1  UNL     1      21.528  -2.266  18.055  1.00  0.00    -0.393 OA
ATOM     12  H1  UNL     1      20.781  -2.745  17.713  1.00  0.00     0.210 HD
ENDBRANCH   7  11
ENDBRANCH   6   7
BRANCH   6  13
HETATM   13  O2  UNL     1      24.091  -0.575  16.635  1.00  0.00    -0.391 OA
ATOM     14  H2  UNL     1      24.596  -0.684  15.838  1.00  0.00     0.210 HD
ENDBRANCH   6  13
ENDBRANCH   5   6
BRANCH   5  15
HETATM   15  C7  UNL     1      22.489   1.154  17.622  1.00  0.00     0.032 C 
BRANCH  15  16
HETATM   16  C8  UNL     1      22.460   1.238  19.117  1.00  0.00    -0.013 C 
HETATM   17  C9  UNL     1      22.719   2.665  19.615  1.00  0.00     0.005 C 
HETATM   18  C10 UNL     1      24.042   3.185  19.138  1.00  0.00     0.000 C 
HETATM   19  C11 UNL     1      25.146   2.191  19.163  1.00  0.00     0.000 C 
HETATM   20  C12 UNL     1      24.880   0.884  19.785  1.00  0.00     0.000 C 
HETATM   21  C13 UNL     1      23.479   0.380  19.795  1.00  0.00     0.005 C 
ENDBRANCH  15  16
ENDBRANCH   5  15
ENDBRANCH   3   5
ENDBRANCH   2   3
BRANCH   2  22
HETATM   22  O3  UNL     1      20.133  -0.372  13.851  1.00  0.00    -0.347 OA
ATOM     23  H3  UNL     1      19.537   0.189  13.369  1.00  0.00     0.219 HD
ENDBRANCH   2  22
ENDBRANCH   1   2
BRANCH   1  24
HETATM   24  C16 UNL     1      18.025  -1.593  15.053  1.00  0.00     0.052 C 
BRANCH  24  25
HETATM   25  C17 UNL     1      17.357  -2.745  15.623  1.00  0.00    -0.011 A 
HETATM   26  C18 UNL     1      17.287  -4.153  15.284  1.00  0.00     0.005 A 
HETATM   27  C19 UNL     1      16.219  -3.330  14.716  1.00  0.00     0.005 A 
ENDBRANCH  24  25
ENDBRANCH   1  24
BRANCH   1  28
HETATM   28  N2  UNL     1      18.183   0.253  16.516  1.00  0.00    -0.399 NA
HETATM   29  C20 UNL     1      17.462   1.185  17.166  1.00  0.00     0.320 C 
HETATM   30  O4  UNL     1      16.776   2.158  16.694  1.00  0.00    -0.254 OA
BRANCH  29  31
HETATM   31  C21 UNL     1      17.433   1.100  18.705  1.00  0.00     0.148 A 
HETATM   32  C36 UNL     1      17.200  -0.288  19.120  1.00  0.00     0.011 A 
HETATM   33  C37 UNL     1      15.967   0.051  19.515  1.00  0.00    -0.024 A 
HETATM   34  C38 UNL     1      16.086   1.476  19.135  1.00  0.00     0.073 A 
BRANCH  31  35
HETATM   35  N3  UNL     1      18.600   1.749  19.183  1.00  0.00    -0.362 N 
HETATM   36  C22 UNL     1      19.077   1.007  20.322  1.00  0.00     0.168 C 
HETATM   37  C23 UNL     1      19.692   1.802  21.412  1.00  0.00     0.084 C 
HETATM   38  N4  UNL     1      19.189   3.087  21.670  1.00  0.00    -0.356 N 
HETATM   39  C34 UNL     1      18.668   3.811  20.584  1.00  0.00     0.108 C 
HETATM   40  C35 UNL     1      18.658   3.140  19.249  1.00  0.00     0.104 C 
BRANCH  38  41
HETATM   41  C24 UNL     1      18.729   3.372  22.976  1.00  0.00     0.062 C 
HETATM   42  C30 UNL     1      18.639   2.055  23.807  1.00  0.00     0.033 C 
HETATM   43  C31 UNL     1      17.882   2.532  25.033  1.00  0.00     0.002 C 
HETATM   44  C32 UNL     1      17.130   3.765  24.655  1.00  0.00     0.002 C 
HETATM   45  C33 UNL     1      17.322   3.851  23.131  1.00  0.00     0.033 C 
BRANCH  41  46
HETATM   46  C25 UNL     1      19.751   4.190  23.737  1.00  0.00     0.303 C 
BRANCH  46  47
HETATM   47  N5  UNL     1      21.100   3.775  23.648  1.00  0.00     0.090 N 
HETATM   48  C26 UNL     1      21.641   3.881  25.025  1.00  0.00     0.272 C 
HETATM   49  C27 UNL     1      23.113   4.027  24.874  1.00  0.00     0.032 C 
HETATM   50  C28 UNL     1      23.392   4.307  23.414  1.00  0.00     0.032 C 
HETATM   51  C29 UNL     1      21.992   4.563  22.856  1.00  0.00     0.272 C 
ENDBRANCH  46  47
ENDBRANCH  41  46
ENDBRANCH  38  41
ENDBRANCH  31  35
ENDBRANCH  29  31
ENDBRANCH   1  28
TORSDOF 19
ENDMDL
