MODEL 1
REMARK VINA RESULT: -4.151243019      0.000      0.000
REMARK  3 active torsions:
REMARK  status: ('A' for Active; 'I' for Inactive)
REMARK    1  A    between atoms: N1_2  and  C2_4 
REMARK    2  A    between atoms: C2_4  and  N2_6 
REMARK    3  A    between atoms: N2_6  and  N3_8 
ROOT
HETATM    1  N3  UNL     1      21.863  40.917  73.613  1.00  0.00    -0.300 N 
ATOM      2  H3  UNL     1      21.279  41.495  74.216  1.00  0.00     0.186 HD
HETATM    3  C3  UNL     1      23.089  41.214  73.448  1.00  0.00     0.200 C 
HETATM    4  C4  UNL     1      23.903  40.411  72.607  1.00  0.00     0.106 C 
HETATM    5  N4  UNL     1      24.588  39.757  71.919  1.00  0.00    -0.191 NA
ENDROOT
BRANCH   1   6
HETATM    6  N2  UNL     1      21.321  39.823  72.984  1.00  0.00    -0.276 N 
ATOM      7  H2  UNL     1      21.180  39.836  71.974  1.00  0.00     0.189 HD
BRANCH   6   8
HETATM    8  C2  UNL     1      20.957  38.671  73.740  1.00  0.00     0.186 C 
HETATM    9  S1  UNL     1      20.743  38.738  75.365  1.00  0.00    -0.040 SA
BRANCH   8  10
HETATM   10  N1  UNL     1      20.761  37.406  73.134  1.00  0.00    -0.370 N 
HETATM   11  C1  UNL     1      20.708  37.227  71.718  1.00  0.00     0.148 C 
ATOM     12  H1  UNL     1      20.652  36.588  73.734  1.00  0.00     0.161 HD
ENDBRANCH   8  10
ENDBRANCH   6   8
ENDBRANCH   1   6
TORSDOF 3
ENDMDL
MODEL 2
REMARK VINA RESULT: -4.069998396      1.963      2.375
REMARK  3 active torsions:
REMARK  status: ('A' for Active; 'I' for Inactive)
REMARK    1  A    between atoms: N1_2  and  C2_4 
REMARK    2  A    between atoms: C2_4  and  N2_6 
REMARK    3  A    between atoms: N2_6  and  N3_8 
ROOT
HETATM    1  N3  UNL     1      22.617  39.866  71.825  1.00  0.00    -0.300 N 
ATOM      2  H3  UNL     1      22.026  39.886  70.994  1.00  0.00     0.186 HD
HETATM    3  C3  UNL     1      23.374  40.855  72.086  1.00  0.00     0.200 C 
HETATM    4  C4  UNL     1      24.198  40.827  73.242  1.00  0.00     0.106 C 
HETATM    5  N4  UNL     1      24.881  40.821  74.192  1.00  0.00    -0.191 NA
ENDROOT
BRANCH   1   6
HETATM    6  N2  UNL     1      22.589  38.773  72.656  1.00  0.00    -0.276 N 
ATOM      7  H2  UNL     1      23.448  38.448  73.098  1.00  0.00     0.189 HD
BRANCH   6   8
HETATM    8  C2  UNL     1      21.361  38.091  72.900  1.00  0.00     0.186 C 
HETATM    9  S1  UNL     1      20.726  37.041  71.811  1.00  0.00    -0.040 SA
BRANCH   8  10
HETATM   10  N1  UNL     1      20.619  38.282  74.092  1.00  0.00    -0.370 N 
HETATM   11  C1  UNL     1      21.065  39.129  75.151  1.00  0.00     0.148 C 
ATOM     12  H1  UNL     1      19.730  37.794  74.198  1.00  0.00     0.161 HD
ENDBRANCH   8  10
ENDBRANCH   6   8
ENDBRANCH   1   6
TORSDOF 3
ENDMDL
MODEL 3
REMARK VINA RESULT: -4.060882519      1.304      1.434
REMARK  3 active torsions:
REMARK  status: ('A' for Active; 'I' for Inactive)
REMARK    1  A    between atoms: N1_2  and  C2_4 
REMARK    2  A    between atoms: C2_4  and  N2_6 
REMARK    3  A    between atoms: N2_6  and  N3_8 
ROOT
HETATM    1  N3  UNL     1      22.628  39.825  71.875  1.00  0.00    -0.300 N 
ATOM      2  H3  UNL     1      22.025  39.816  71.053  1.00  0.00     0.186 HD
HETATM    3  C3  UNL     1      23.376  40.829  72.098  1.00  0.00     0.200 C 
HETATM    4  C4  UNL     1      24.217  40.842  73.242  1.00  0.00     0.106 C 
HETATM    5  N4  UNL     1      24.914  40.870  74.182  1.00  0.00    -0.191 NA
ENDROOT
BRANCH   1   6
HETATM    6  N2  UNL     1      22.626  38.754  72.734  1.00  0.00    -0.276 N 
ATOM      7  H2  UNL     1      23.489  38.239  72.908  1.00  0.00     0.189 HD
BRANCH   6   8
HETATM    8  C2  UNL     1      21.419  38.360  73.384  1.00  0.00     0.186 C 
HETATM    9  S1  UNL     1      20.931  39.051  74.789  1.00  0.00    -0.040 SA
BRANCH   8  10
HETATM   10  N1  UNL     1      20.575  37.353  72.855  1.00  0.00    -0.370 N 
HETATM   11  C1  UNL     1      20.961  36.516  71.764  1.00  0.00     0.148 C 
ATOM     12  H1  UNL     1      19.653  37.220  73.271  1.00  0.00     0.161 HD
ENDBRANCH   8  10
ENDBRANCH   6   8
ENDBRANCH   1   6
TORSDOF 3
ENDMDL
MODEL 4
REMARK VINA RESULT: -3.886154710      7.786      9.677
REMARK  3 active torsions:
REMARK  status: ('A' for Active; 'I' for Inactive)
REMARK    1  A    between atoms: N1_2  and  C2_4 
REMARK    2  A    between atoms: C2_4  and  N2_6 
REMARK    3  A    between atoms: N2_6  and  N3_8 
ROOT
HETATM    1  N3  UNL     1      19.054  32.117  78.808  1.00  0.00    -0.300 N 
ATOM      2  H3  UNL     1      19.895  31.665  79.165  1.00  0.00     0.186 HD
HETATM    3  C3  UNL     1      18.023  31.418  78.549  1.00  0.00     0.200 C 
HETATM    4  C4  UNL     1      16.851  32.047  78.051  1.00  0.00     0.106 C 
HETATM    5  N4  UNL     1      15.877  32.550  77.642  1.00  0.00    -0.191 NA
ENDROOT
BRANCH   1   6
HETATM    6  N2  UNL     1      19.041  33.476  78.611  1.00  0.00    -0.276 N 
ATOM      7  H2  UNL     1      18.184  33.938  78.305  1.00  0.00     0.189 HD
BRANCH   6   8
HETATM    8  C2  UNL     1      20.223  34.242  78.833  1.00  0.00     0.186 C 
HETATM    9  S1  UNL     1      21.716  33.568  78.750  1.00  0.00    -0.040 SA
BRANCH   8  10
HETATM   10  N1  UNL     1      20.176  35.625  79.137  1.00  0.00    -0.370 N 
HETATM   11  C1  UNL     1      21.056  36.238  80.080  1.00  0.00     0.148 C 
ATOM     12  H1  UNL     1      19.485  36.207  78.663  1.00  0.00     0.161 HD
ENDBRANCH   8  10
ENDBRANCH   6   8
ENDBRANCH   1   6
TORSDOF 3
ENDMDL
MODEL 5
REMARK VINA RESULT: -3.741443914      7.961      9.089
REMARK  3 active torsions:
REMARK  status: ('A' for Active; 'I' for Inactive)
REMARK    1  A    between atoms: N1_2  and  C2_4 
REMARK    2  A    between atoms: C2_4  and  N2_6 
REMARK    3  A    between atoms: N2_6  and  N3_8 
ROOT
HETATM    1  N3  UNL     1      22.368  33.159  78.910  1.00  0.00    -0.300 N 
ATOM      2  H3  UNL     1      23.018  32.376  78.867  1.00  0.00     0.186 HD
HETATM    3  C3  UNL     1      21.114  32.941  78.912  1.00  0.00     0.200 C 
HETATM    4  C4  UNL     1      20.207  34.032  78.971  1.00  0.00     0.106 C 
HETATM    5  N4  UNL     1      19.447  34.920  79.021  1.00  0.00    -0.191 NA
ENDROOT
BRANCH   1   6
HETATM    6  N2  UNL     1      22.850  34.444  78.967  1.00  0.00    -0.276 N 
ATOM      7  H2  UNL     1      22.239  35.227  78.737  1.00  0.00     0.189 HD
BRANCH   6   8
HETATM    8  C2  UNL     1      24.204  34.684  79.345  1.00  0.00     0.186 C 
HETATM    9  S1  UNL     1      24.711  36.162  79.843  1.00  0.00    -0.040 SA
BRANCH   8  10
HETATM   10  N1  UNL     1      25.185  33.663  79.311  1.00  0.00    -0.370 N 
HETATM   11  C1  UNL     1      25.551  32.905  80.465  1.00  0.00     0.148 C 
ATOM     12  H1  UNL     1      25.651  33.461  78.426  1.00  0.00     0.161 HD
ENDBRANCH   8  10
ENDBRANCH   6   8
ENDBRANCH   1   6
TORSDOF 3
ENDMDL
