MODEL 1
REMARK VINA RESULT: -6.592698305      0.000      0.000
REMARK  3 active torsions:
REMARK  status: ('A' for Active; 'I' for Inactive)
REMARK    1  A    between atoms: O1_1  and  N1_3 
REMARK    2  A    between atoms: C5_8  and  C6_9 
REMARK    3  A    between atoms: N2_10  and  O2_12 
ROOT
HETATM    1  N1  UNL     1      21.663  39.180  74.348  1.00  0.00    -0.235 N 
HETATM    2  C1  UNL     1      22.608  39.952  74.921  1.00  0.00     0.123 A 
HETATM    3  C2  UNL     1      23.641  40.474  74.184  1.00  0.00     0.020 A 
HETATM    4  C3  UNL     1      23.699  40.199  72.844  1.00  0.00     0.004 A 
HETATM    5  C4  UNL     1      22.716  39.394  72.248  1.00  0.00     0.033 A 
HETATM    6  C5  UNL     1      21.701  38.895  73.030  1.00  0.00     0.079 A 
ENDROOT
BRANCH   6   7
HETATM    7  C6  UNL     1      20.647  38.055  72.481  1.00  0.00     0.145 C 
HETATM    8  N2  UNL     1      20.774  36.903  71.999  1.00  0.00    -0.278 N 
ATOM      9  H2  UNL     1      19.878  36.532  71.684  1.00  0.00     0.193 HD
BRANCH   8  10
HETATM   10  O2  UNL     1      21.746  36.046  71.790  1.00  0.00    -0.290 OA
ATOM     11  H2  UNL     1      21.832  35.117  71.609  1.00  0.00     0.244 HD
ENDBRANCH   8  10
ENDBRANCH   6   7
BRANCH   1  12
HETATM   12  O1  UNL     1      20.655  38.684  75.131  1.00  0.00    -0.283 OA
ATOM     13  H1  UNL     1      19.928  38.239  74.712  1.00  0.00     0.245 HD
ENDBRANCH   1  12
TORSDOF 3
ENDMDL
MODEL 2
REMARK VINA RESULT: -6.013338227      1.618      2.194
REMARK  3 active torsions:
REMARK  status: ('A' for Active; 'I' for Inactive)
REMARK    1  A    between atoms: O1_1  and  N1_3 
REMARK    2  A    between atoms: C5_8  and  C6_9 
REMARK    3  A    between atoms: N2_10  and  O2_12 
ROOT
HETATM    1  N1  UNL     1      22.689  39.593  72.829  1.00  0.00    -0.235 N 
HETATM    2  C1  UNL     1      23.184  40.224  73.913  1.00  0.00     0.123 A 
HETATM    3  C2  UNL     1      22.593  40.087  75.144  1.00  0.00     0.020 A 
HETATM    4  C3  UNL     1      21.485  39.291  75.259  1.00  0.00     0.004 A 
HETATM    5  C4  UNL     1      20.971  38.635  74.129  1.00  0.00     0.033 A 
HETATM    6  C5  UNL     1      21.598  38.805  72.919  1.00  0.00     0.079 A 
ENDROOT
BRANCH   6   7
HETATM    7  C6  UNL     1      21.122  38.156  71.705  1.00  0.00     0.145 C 
HETATM    8  N2  UNL     1      20.972  36.925  71.518  1.00  0.00    -0.278 N 
ATOM      9  H2  UNL     1      20.623  36.732  70.580  1.00  0.00     0.193 HD
BRANCH   8  10
HETATM   10  O2  UNL     1      21.141  35.817  72.201  1.00  0.00    -0.290 OA
ATOM     11  H2  UNL     1      21.628  35.006  72.108  1.00  0.00     0.244 HD
ENDBRANCH   8  10
ENDBRANCH   6   7
BRANCH   1  12
HETATM   12  O1  UNL     1      23.317  39.767  71.624  1.00  0.00    -0.283 OA
ATOM     13  H1  UNL     1      22.868  39.496  70.832  1.00  0.00     0.245 HD
ENDBRANCH   1  12
TORSDOF 3
ENDMDL
MODEL 3
REMARK VINA RESULT: -5.040953518      7.264      8.041
REMARK  3 active torsions:
REMARK  status: ('A' for Active; 'I' for Inactive)
REMARK    1  A    between atoms: O1_1  and  N1_3 
REMARK    2  A    between atoms: C5_8  and  C6_9 
REMARK    3  A    between atoms: N2_10  and  O2_12 
ROOT
HETATM    1  N1  UNL     1      21.699  33.866  78.726  1.00  0.00    -0.235 N 
HETATM    2  C1  UNL     1      20.374  34.103  78.806  1.00  0.00     0.123 A 
HETATM    3  C2  UNL     1      19.894  35.305  79.262  1.00  0.00     0.020 A 
HETATM    4  C3  UNL     1      20.787  36.272  79.638  1.00  0.00     0.004 A 
HETATM    5  C4  UNL     1      22.166  36.024  79.555  1.00  0.00     0.033 A 
HETATM    6  C5  UNL     1      22.597  34.804  79.092  1.00  0.00     0.079 A 
ENDROOT
BRANCH   6   7
HETATM    7  C6  UNL     1      24.011  34.477  78.979  1.00  0.00     0.145 C 
HETATM    8  N2  UNL     1      24.608  33.514  79.516  1.00  0.00    -0.278 N 
ATOM      9  H2  UNL     1      25.599  33.510  79.276  1.00  0.00     0.193 HD
BRANCH   8  10
HETATM   10  O2  UNL     1      24.304  32.508  80.304  1.00  0.00    -0.290 OA
ATOM     11  H2  UNL     1      24.575  32.180  81.154  1.00  0.00     0.244 HD
ENDBRANCH   8  10
ENDBRANCH   6   7
BRANCH   1  12
HETATM   12  O1  UNL     1      22.123  32.648  78.265  1.00  0.00    -0.283 OA
ATOM     13  H1  UNL     1      22.098  32.480  77.331  1.00  0.00     0.245 HD
ENDBRANCH   1  12
TORSDOF 3
ENDMDL
MODEL 4
REMARK VINA RESULT: -4.966217861      7.512      8.066
REMARK  3 active torsions:
REMARK  status: ('A' for Active; 'I' for Inactive)
REMARK    1  A    between atoms: O1_1  and  N1_3 
REMARK    2  A    between atoms: C5_8  and  C6_9 
REMARK    3  A    between atoms: N2_10  and  O2_12 
ROOT
HETATM    1  N1  UNL     1      22.619  35.709  79.678  1.00  0.00    -0.235 N 
HETATM    2  C1  UNL     1      21.300  35.974  79.763  1.00  0.00     0.123 A 
HETATM    3  C2  UNL     1      20.368  35.121  79.227  1.00  0.00     0.020 A 
HETATM    4  C3  UNL     1      20.801  33.984  78.599  1.00  0.00     0.004 A 
HETATM    5  C4  UNL     1      22.174  33.708  78.510  1.00  0.00     0.033 A 
HETATM    6  C5  UNL     1      23.067  34.595  79.063  1.00  0.00     0.079 A 
ENDROOT
BRANCH   6   7
HETATM    7  C6  UNL     1      24.505  34.375  79.010  1.00  0.00     0.145 C 
HETATM    8  N2  UNL     1      25.151  33.467  79.588  1.00  0.00    -0.278 N 
ATOM      9  H2  UNL     1      26.148  33.535  79.385  1.00  0.00     0.193 HD
BRANCH   8  10
HETATM   10  O2  UNL     1      24.894  32.455  80.382  1.00  0.00    -0.290 OA
ATOM     11  H2  UNL     1      24.353  32.285  81.145  1.00  0.00     0.244 HD
ENDBRANCH   8  10
ENDBRANCH   6   7
BRANCH   1  12
HETATM   12  O1  UNL     1      23.505  36.596  80.229  1.00  0.00    -0.283 OA
ATOM     13  H1  UNL     1      24.145  36.273  80.853  1.00  0.00     0.245 HD
ENDBRANCH   1  12
TORSDOF 3
ENDMDL
MODEL 5
REMARK VINA RESULT: -4.522236549      9.631     10.232
REMARK  3 active torsions:
REMARK  status: ('A' for Active; 'I' for Inactive)
REMARK    1  A    between atoms: O1_1  and  N1_3 
REMARK    2  A    between atoms: C5_8  and  C6_9 
REMARK    3  A    between atoms: N2_10  and  O2_12 
ROOT
HETATM    1  N1  UNL     1      27.877  46.111  75.144  1.00  0.00    -0.235 N 
HETATM    2  C1  UNL     1      26.991  46.574  76.048  1.00  0.00     0.123 A 
HETATM    3  C2  UNL     1      27.397  46.989  77.292  1.00  0.00     0.020 A 
HETATM    4  C3  UNL     1      28.728  46.927  77.605  1.00  0.00     0.004 A 
HETATM    5  C4  UNL     1      29.650  46.444  76.663  1.00  0.00     0.033 A 
HETATM    6  C5  UNL     1      29.193  46.041  75.431  1.00  0.00     0.079 A 
ENDROOT
BRANCH   6   7
HETATM    7  C6  UNL     1      30.091  45.530  74.405  1.00  0.00     0.145 C 
HETATM    8  N2  UNL     1      30.048  44.401  73.859  1.00  0.00    -0.278 N 
ATOM      9  H2  UNL     1      30.792  44.294  73.170  1.00  0.00     0.193 HD
BRANCH   8  10
HETATM   10  O2  UNL     1      29.306  43.321  73.933  1.00  0.00    -0.290 OA
ATOM     11  H2  UNL     1      29.440  42.389  74.058  1.00  0.00     0.244 HD
ENDBRANCH   8  10
ENDBRANCH   6   7
BRANCH   1  12
HETATM   12  O1  UNL     1      27.417  45.709  73.918  1.00  0.00    -0.283 OA
ATOM     13  H1  UNL     1      27.134  44.809  73.810  1.00  0.00     0.245 HD
ENDBRANCH   1  12
TORSDOF 3
ENDMDL
