MODEL 1
REMARK VINA RESULT: -7.155825274      0.000      0.000
REMARK  10 active torsions:
REMARK  status: ('A' for Active; 'I' for Inactive)
REMARK    1  A    between atoms: C2_2  and  N2_6 
REMARK    2  A    between atoms: N2_6  and  N3_8 
REMARK    3  A    between atoms: C4_11  and  C5_12 
REMARK    4  A    between atoms: N4_13  and  N5_15 
REMARK    5  A    between atoms: N5_15  and  C6_17 
REMARK    6  A    between atoms: C8_23  and  C9_24 
REMARK    7  A    between atoms: C9_24  and  O2_25 
REMARK    8  A    between atoms: C9_24  and  O3_27 
REMARK    9  A    between atoms: C10_29  and  N8_30 
REMARK   10  A    between atoms: N8_30  and  N9_32 
ROOT
HETATM    1  N3  UNL     1       7.380 -29.387 -25.732  1.00  0.00    -0.198 N 
HETATM    2  C3  UNL     1       7.272 -28.193 -25.065  1.00  0.00     0.281 C 
HETATM    3  O1  UNL     1       6.332 -27.430 -25.395  1.00  0.00    -0.265 OA
HETATM    4  C4  UNL     1       8.060 -27.693 -24.063  1.00  0.00     0.066 C 
HETATM    5  C7  UNL     1       9.268 -28.186 -23.627  1.00  0.00     0.106 C 
HETATM    6  N7  UNL     1       9.851 -29.362 -23.971  1.00  0.00    -0.361 N 
ATOM      7  H7  UNL     1      10.777 -29.526 -23.578  1.00  0.00     0.165 HD
HETATM    8  C8  UNL     1       9.365 -30.364 -24.776  1.00  0.00     0.112 C 
HETATM    9  C10 UNL     1       8.482 -30.192 -25.793  1.00  0.00     0.172 C 
ENDROOT
BRANCH   4  10
HETATM   10  C5  UNL     1       7.597 -26.497 -23.353  1.00  0.00     0.125 C 
HETATM   11  N4  UNL     1       8.375 -25.847 -22.592  1.00  0.00    -0.309 N 
ATOM     12  H4  UNL     1       9.330 -26.196 -22.501  1.00  0.00     0.186 HD
BRANCH  11  13
HETATM   13  N5  UNL     1       8.057 -24.717 -21.876  1.00  0.00    -0.279 N 
ATOM     14  H5  UNL     1       8.439 -24.604 -20.937  1.00  0.00     0.189 HD
BRANCH  13  15
HETATM   15  C6  UNL     1       7.221 -23.707 -22.398  1.00  0.00     0.199 C 
HETATM   16  N6  UNL     1       7.612 -23.052 -23.589  1.00  0.00    -0.068 NA
HETATM   17  S1  UNL     1       5.840 -23.305 -21.651  1.00  0.00    -0.043 SA
ENDBRANCH  13  15
ENDBRANCH  11  13
ENDBRANCH   4  10
BRANCH   1  18
HETATM   18  N2  UNL     1       6.229 -29.747 -26.396  1.00  0.00    -0.279 N 
ATOM     19  H2  UNL     1       5.983 -29.210 -27.228  1.00  0.00     0.189 HD
BRANCH  18  20
HETATM   20  C2  UNL     1       5.362 -30.794 -26.022  1.00  0.00     0.086 C 
HETATM   21  C1  UNL     1       5.754 -32.230 -26.228  1.00  0.00     0.090 C 
HETATM   22  N1  UNL     1       4.217 -30.545 -25.479  1.00  0.00    -0.388 N 
ATOM     23  H12 UNL     1       3.589 -31.303 -25.209  1.00  0.00     0.157 HD
ATOM     24  H11 UNL     1       3.950 -29.571 -25.340  1.00  0.00     0.157 HD
ENDBRANCH  18  20
ENDBRANCH   1  18
BRANCH   9  25
HETATM   25  N8  UNL     1       8.651 -30.781 -26.870  1.00  0.00    -0.289 N 
ATOM     26  H8  UNL     1       8.418 -31.773 -26.823  1.00  0.00     0.188 HD
BRANCH  25  27
HETATM   27  N9  UNL     1       9.082 -30.391 -28.110  1.00  0.00    -0.344 N 
ATOM     28  H92 UNL     1       9.193 -29.379 -28.168  1.00  0.00     0.176 HD
ATOM     29  H91 UNL     1       9.311 -30.890 -28.970  1.00  0.00     0.176 HD
ENDBRANCH  25  27
ENDBRANCH   9  25
BRANCH   8  30
HETATM   30  C9  UNL     1       9.887 -31.682 -24.425  1.00  0.00     0.309 C 
BRANCH  30  31
HETATM   31  O2  UNL     1      10.858 -32.011 -25.399  1.00  0.00    -0.366 OA
ATOM     32  H2  UNL     1      10.418 -32.530 -26.061  1.00  0.00     0.213 HD
ENDBRANCH  30  31
BRANCH  30  33
HETATM   33  O3  UNL     1      10.624 -31.521 -23.208  1.00  0.00    -0.366 OA
ATOM     34  H3  UNL     1      11.065 -30.681 -23.266  1.00  0.00     0.213 HD
ENDBRANCH  30  33
ENDBRANCH   8  30
TORSDOF 10
ENDMDL
MODEL 2
REMARK VINA RESULT: -6.917546986      0.764      1.032
REMARK  10 active torsions:
REMARK  status: ('A' for Active; 'I' for Inactive)
REMARK    1  A    between atoms: C2_2  and  N2_6 
REMARK    2  A    between atoms: N2_6  and  N3_8 
REMARK    3  A    between atoms: C4_11  and  C5_12 
REMARK    4  A    between atoms: N4_13  and  N5_15 
REMARK    5  A    between atoms: N5_15  and  C6_17 
REMARK    6  A    between atoms: C8_23  and  C9_24 
REMARK    7  A    between atoms: C9_24  and  O2_25 
REMARK    8  A    between atoms: C9_24  and  O3_27 
REMARK    9  A    between atoms: C10_29  and  N8_30 
REMARK   10  A    between atoms: N8_30  and  N9_32 
ROOT
HETATM    1  N3  UNL     1       7.456 -29.804 -24.849  1.00  0.00    -0.198 N 
HETATM    2  C3  UNL     1       7.333 -28.496 -24.452  1.00  0.00     0.281 C 
HETATM    3  O1  UNL     1       6.203 -27.963 -24.563  1.00  0.00    -0.265 OA
HETATM    4  C4  UNL     1       8.288 -27.661 -23.936  1.00  0.00     0.066 C 
HETATM    5  C7  UNL     1       9.645 -27.877 -23.883  1.00  0.00     0.106 C 
HETATM    6  N7  UNL     1      10.309 -29.027 -24.166  1.00  0.00    -0.361 N 
ATOM      7  H7  UNL     1      11.325 -28.972 -24.116  1.00  0.00     0.165 HD
HETATM    8  C8  UNL     1       9.799 -30.255 -24.511  1.00  0.00     0.112 C 
HETATM    9  C10 UNL     1       8.616 -30.463 -25.144  1.00  0.00     0.172 C 
ENDROOT
BRANCH   4  10
HETATM   10  C5  UNL     1       7.851 -26.382 -23.369  1.00  0.00     0.125 C 
HETATM   11  N4  UNL     1       8.488 -25.838 -22.417  1.00  0.00    -0.309 N 
ATOM     12  H4  UNL     1       9.311 -26.332 -22.071  1.00  0.00     0.186 HD
BRANCH  11  13
HETATM   13  N5  UNL     1       8.177 -24.646 -21.805  1.00  0.00    -0.279 N 
ATOM     14  H5  UNL     1       8.649 -24.401 -20.935  1.00  0.00     0.189 HD
BRANCH  13  15
HETATM   15  C6  UNL     1       7.227 -23.752 -22.342  1.00  0.00     0.199 C 
HETATM   16  N6  UNL     1       7.557 -23.037 -23.517  1.00  0.00    -0.068 NA
HETATM   17  S1  UNL     1       5.785 -23.546 -21.629  1.00  0.00    -0.043 SA
ENDBRANCH  13  15
ENDBRANCH  11  13
ENDBRANCH   4  10
BRANCH   1  18
HETATM   18  N2  UNL     1       6.250 -30.457 -24.955  1.00  0.00    -0.279 N 
ATOM     19  H2  UNL     1       5.822 -30.792 -24.091  1.00  0.00     0.189 HD
BRANCH  18  20
HETATM   20  C2  UNL     1       5.555 -30.703 -26.157  1.00  0.00     0.086 C 
HETATM   21  C1  UNL     1       5.322 -32.107 -26.640  1.00  0.00     0.090 C 
HETATM   22  N1  UNL     1       5.087 -29.728 -26.864  1.00  0.00    -0.388 N 
ATOM     23  H12 UNL     1       4.584 -29.905 -27.733  1.00  0.00     0.157 HD
ATOM     24  H11 UNL     1       5.245 -28.775 -26.536  1.00  0.00     0.157 HD
ENDBRANCH  18  20
ENDBRANCH   1  18
BRANCH   9  25
HETATM   25  N8  UNL     1       8.538 -31.292 -26.061  1.00  0.00    -0.289 N 
ATOM     26  H8  UNL     1       7.947 -32.090 -25.829  1.00  0.00     0.188 HD
BRANCH  25  27
HETATM   27  N9  UNL     1       9.073 -31.372 -27.319  1.00  0.00    -0.344 N 
ATOM     28  H92 UNL     1      10.067 -31.600 -27.292  1.00  0.00     0.176 HD
ATOM     29  H91 UNL     1       8.694 -31.255 -28.259  1.00  0.00     0.176 HD
ENDBRANCH  25  27
ENDBRANCH   9  25
BRANCH   8  30
HETATM   30  C9  UNL     1      10.663 -31.363 -24.113  1.00  0.00     0.309 C 
BRANCH  30  31
HETATM   31  O2  UNL     1       9.972 -32.081 -23.110  1.00  0.00    -0.366 OA
ATOM     32  H2  UNL     1       9.061 -31.817 -23.161  1.00  0.00     0.213 HD
ENDBRANCH  30  31
BRANCH  30  33
HETATM   33  O3  UNL     1      10.726 -32.257 -25.229  1.00  0.00    -0.366 OA
ATOM     34  H3  UNL     1      10.787 -33.135 -24.873  1.00  0.00     0.213 HD
ENDBRANCH  30  33
ENDBRANCH   8  30
TORSDOF 10
ENDMDL
MODEL 3
REMARK VINA RESULT: -6.899867171      0.923      1.063
REMARK  10 active torsions:
REMARK  status: ('A' for Active; 'I' for Inactive)
REMARK    1  A    between atoms: C2_2  and  N2_6 
REMARK    2  A    between atoms: N2_6  and  N3_8 
REMARK    3  A    between atoms: C4_11  and  C5_12 
REMARK    4  A    between atoms: N4_13  and  N5_15 
REMARK    5  A    between atoms: N5_15  and  C6_17 
REMARK    6  A    between atoms: C8_23  and  C9_24 
REMARK    7  A    between atoms: C9_24  and  O2_25 
REMARK    8  A    between atoms: C9_24  and  O3_27 
REMARK    9  A    between atoms: C10_29  and  N8_30 
REMARK   10  A    between atoms: N8_30  and  N9_32 
ROOT
HETATM    1  N3  UNL     1       7.407 -29.556 -25.715  1.00  0.00    -0.198 N 
HETATM    2  C3  UNL     1       7.308 -28.347 -25.074  1.00  0.00     0.281 C 
HETATM    3  O1  UNL     1       6.349 -27.602 -25.389  1.00  0.00    -0.265 OA
HETATM    4  C4  UNL     1       8.123 -27.815 -24.111  1.00  0.00     0.066 C 
HETATM    5  C7  UNL     1       9.350 -28.284 -23.704  1.00  0.00     0.106 C 
HETATM    6  N7  UNL     1       9.935 -29.463 -24.040  1.00  0.00    -0.361 N 
ATOM      7  H7  UNL     1      10.875 -29.607 -23.673  1.00  0.00     0.165 HD
HETATM    8  C8  UNL     1       9.434 -30.488 -24.804  1.00  0.00     0.112 C 
HETATM    9  C10 UNL     1       8.516 -30.350 -25.794  1.00  0.00     0.172 C 
ENDROOT
BRANCH   4  10
HETATM   10  C5  UNL     1       7.670 -26.608 -23.413  1.00  0.00     0.125 C 
HETATM   11  N4  UNL     1       8.421 -26.012 -22.583  1.00  0.00    -0.309 N 
ATOM     12  H4  UNL     1       9.346 -26.414 -22.428  1.00  0.00     0.186 HD
BRANCH  11  13
HETATM   13  N5  UNL     1       8.109 -24.878 -21.871  1.00  0.00    -0.279 N 
ATOM     14  H5  UNL     1       8.671 -24.639 -21.054  1.00  0.00     0.189 HD
BRANCH  13  15
HETATM   15  C6  UNL     1       7.038 -24.034 -22.233  1.00  0.00     0.199 C 
HETATM   16  N6  UNL     1       5.790 -24.209 -21.590  1.00  0.00    -0.068 NA
HETATM   17  S1  UNL     1       7.230 -22.886 -23.362  1.00  0.00    -0.043 SA
ENDBRANCH  13  15
ENDBRANCH  11  13
ENDBRANCH   4  10
BRANCH   1  18
HETATM   18  N2  UNL     1       6.240 -29.943 -26.332  1.00  0.00    -0.279 N 
ATOM     19  H2  UNL     1       5.907 -29.369 -27.107  1.00  0.00     0.189 HD
BRANCH  18  20
HETATM   20  C2  UNL     1       5.464 -31.068 -25.982  1.00  0.00     0.086 C 
HETATM   21  C1  UNL     1       4.161 -30.908 -25.251  1.00  0.00     0.090 C 
HETATM   22  N1  UNL     1       5.846 -32.261 -26.297  1.00  0.00    -0.388 N 
ATOM     23  H12 UNL     1       5.285 -33.074 -26.044  1.00  0.00     0.157 HD
ATOM     24  H11 UNL     1       6.730 -32.369 -26.794  1.00  0.00     0.157 HD
ENDBRANCH  18  20
ENDBRANCH   1  18
BRANCH   9  25
HETATM   25  N8  UNL     1       8.656 -30.962 -26.863  1.00  0.00    -0.289 N 
ATOM     26  H8  UNL     1       8.266 -31.905 -26.836  1.00  0.00     0.188 HD
BRANCH  25  27
HETATM   27  N9  UNL     1       9.219 -30.651 -28.071  1.00  0.00    -0.344 N 
ATOM     28  H92 UNL     1       9.725 -31.444 -28.465  1.00  0.00     0.176 HD
ATOM     29  H91 UNL     1       9.239 -29.810 -28.648  1.00  0.00     0.176 HD
ENDBRANCH  25  27
ENDBRANCH   9  25
BRANCH   8  30
HETATM   30  C9  UNL     1       9.982 -31.791 -24.440  1.00  0.00     0.309 C 
BRANCH  30  31
HETATM   31  O2  UNL     1      10.896 -32.151 -25.458  1.00  0.00    -0.366 OA
ATOM     32  H2  UNL     1      11.765 -31.949 -25.131  1.00  0.00     0.213 HD
ENDBRANCH  30  31
BRANCH  30  33
HETATM   33  O3  UNL     1      10.789 -31.587 -23.275  1.00  0.00    -0.366 OA
ATOM     34  H3  UNL     1      11.293 -32.382 -23.149  1.00  0.00     0.213 HD
ENDBRANCH  30  33
ENDBRANCH   8  30
TORSDOF 10
ENDMDL
MODEL 4
REMARK VINA RESULT: -6.783575473      1.309      1.358
REMARK  10 active torsions:
REMARK  status: ('A' for Active; 'I' for Inactive)
REMARK    1  A    between atoms: C2_2  and  N2_6 
REMARK    2  A    between atoms: N2_6  and  N3_8 
REMARK    3  A    between atoms: C4_11  and  C5_12 
REMARK    4  A    between atoms: N4_13  and  N5_15 
REMARK    5  A    between atoms: N5_15  and  C6_17 
REMARK    6  A    between atoms: C8_23  and  C9_24 
REMARK    7  A    between atoms: C9_24  and  O2_25 
REMARK    8  A    between atoms: C9_24  and  O3_27 
REMARK    9  A    between atoms: C10_29  and  N8_30 
REMARK   10  A    between atoms: N8_30  and  N9_32 
ROOT
HETATM    1  N3  UNL     1       7.424 -29.186 -25.827  1.00  0.00    -0.198 N 
HETATM    2  C3  UNL     1       7.290 -27.926 -25.300  1.00  0.00     0.281 C 
HETATM    3  O1  UNL     1       6.383 -27.197 -25.768  1.00  0.00    -0.265 OA
HETATM    4  C4  UNL     1       8.021 -27.326 -24.309  1.00  0.00     0.066 C 
HETATM    5  C7  UNL     1       9.193 -27.778 -23.748  1.00  0.00     0.106 C 
HETATM    6  N7  UNL     1       9.781 -28.988 -23.927  1.00  0.00    -0.361 N 
ATOM      7  H7  UNL     1      10.678 -29.115 -23.460  1.00  0.00     0.165 HD
HETATM    8  C8  UNL     1       9.333 -30.067 -24.649  1.00  0.00     0.112 C 
HETATM    9  C10 UNL     1       8.517 -30.000 -25.732  1.00  0.00     0.172 C 
ENDROOT
BRANCH   4  10
HETATM   10  C5  UNL     1       7.531 -26.058 -23.761  1.00  0.00     0.125 C 
HETATM   11  N4  UNL     1       7.955 -24.948 -24.204  1.00  0.00    -0.309 N 
ATOM     12  H4  UNL     1       8.647 -24.984 -24.953  1.00  0.00     0.186 HD
BRANCH  11  13
HETATM   13  N5  UNL     1       7.572 -23.700 -23.772  1.00  0.00    -0.279 N 
ATOM     14  H5  UNL     1       7.201 -23.598 -22.827  1.00  0.00     0.189 HD
BRANCH  13  15
HETATM   15  C6  UNL     1       7.674 -22.557 -24.592  1.00  0.00     0.199 C 
HETATM   16  N6  UNL     1       8.318 -21.407 -24.076  1.00  0.00    -0.068 NA
HETATM   17  S1  UNL     1       7.069 -22.556 -26.096  1.00  0.00    -0.043 SA
ENDBRANCH  13  15
ENDBRANCH  11  13
ENDBRANCH   4  10
BRANCH   1  18
HETATM   18  N2  UNL     1       6.312 -29.607 -26.520  1.00  0.00    -0.279 N 
ATOM     19  H2  UNL     1       6.104 -29.135 -27.400  1.00  0.00     0.189 HD
BRANCH  18  20
HETATM   20  C2  UNL     1       5.436 -30.636 -26.115  1.00  0.00     0.086 C 
HETATM   21  C1  UNL     1       5.872 -32.073 -26.141  1.00  0.00     0.090 C 
HETATM   22  N1  UNL     1       4.244 -30.366 -25.697  1.00  0.00    -0.388 N 
ATOM     23  H12 UNL     1       3.611 -31.110 -25.405  1.00  0.00     0.157 HD
ATOM     24  H11 UNL     1       3.948 -29.390 -25.680  1.00  0.00     0.157 HD
ENDBRANCH  18  20
ENDBRANCH   1  18
BRANCH   9  25
HETATM   25  N8  UNL     1       8.744 -30.702 -26.727  1.00  0.00    -0.289 N 
ATOM     26  H8  UNL     1       8.682 -31.701 -26.533  1.00  0.00     0.188 HD
BRANCH  25  27
HETATM   27  N9  UNL     1       9.062 -30.430 -28.031  1.00  0.00    -0.344 N 
ATOM     28  H92 UNL     1       8.464 -30.943 -28.679  1.00  0.00     0.176 HD
ATOM     29  H91 UNL     1       9.757 -29.834 -28.481  1.00  0.00     0.176 HD
ENDBRANCH  25  27
ENDBRANCH   9  25
BRANCH   8  30
HETATM   30  C9  UNL     1       9.814 -31.343 -24.127  1.00  0.00     0.309 C 
BRANCH  30  31
HETATM   31  O2  UNL     1      10.770 -31.829 -25.049  1.00  0.00    -0.366 OA
ATOM     32  H2  UNL     1      11.537 -32.074 -24.546  1.00  0.00     0.213 HD
ENDBRANCH  30  31
BRANCH  30  33
HETATM   33  O3  UNL     1      10.561 -31.046 -22.942  1.00  0.00    -0.366 OA
ATOM     34  H3  UNL     1      10.928 -31.868 -22.638  1.00  0.00     0.213 HD
ENDBRANCH  30  33
ENDBRANCH   8  30
TORSDOF 10
ENDMDL
MODEL 5
REMARK VINA RESULT: -6.177681386      1.986      3.851
REMARK  10 active torsions:
REMARK  status: ('A' for Active; 'I' for Inactive)
REMARK    1  A    between atoms: C2_2  and  N2_6 
REMARK    2  A    between atoms: N2_6  and  N3_8 
REMARK    3  A    between atoms: C4_11  and  C5_12 
REMARK    4  A    between atoms: N4_13  and  N5_15 
REMARK    5  A    between atoms: N5_15  and  C6_17 
REMARK    6  A    between atoms: C8_23  and  C9_24 
REMARK    7  A    between atoms: C9_24  and  O2_25 
REMARK    8  A    between atoms: C9_24  and  O3_27 
REMARK    9  A    between atoms: C10_29  and  N8_30 
REMARK   10  A    between atoms: N8_30  and  N9_32 
ROOT
HETATM    1  N3  UNL     1       8.337 -29.706 -24.906  1.00  0.00    -0.198 N 
HETATM    2  C3  UNL     1       8.525 -28.575 -24.151  1.00  0.00     0.281 C 
HETATM    3  O1  UNL     1       9.616 -28.461 -23.543  1.00  0.00    -0.265 OA
HETATM    4  C4  UNL     1       7.674 -27.521 -23.955  1.00  0.00     0.066 C 
HETATM    5  C7  UNL     1       6.347 -27.443 -24.311  1.00  0.00     0.106 C 
HETATM    6  N7  UNL     1       5.647 -28.314 -25.081  1.00  0.00    -0.361 N 
ATOM      7  H7  UNL     1       4.655 -28.107 -25.189  1.00  0.00     0.165 HD
HETATM    8  C8  UNL     1       6.091 -29.437 -25.736  1.00  0.00     0.112 C 
HETATM    9  C10 UNL     1       7.146 -30.201 -25.353  1.00  0.00     0.172 C 
ENDROOT
BRANCH   4  10
HETATM   10  C5  UNL     1       8.200 -26.323 -23.294  1.00  0.00     0.125 C 
HETATM   11  N4  UNL     1       7.452 -25.590 -22.578  1.00  0.00    -0.309 N 
ATOM     12  H4  UNL     1       6.477 -25.876 -22.488  1.00  0.00     0.186 HD
BRANCH  11  13
HETATM   13  N5  UNL     1       7.829 -24.448 -21.912  1.00  0.00    -0.279 N 
ATOM     14  H5  UNL     1       8.820 -24.287 -21.732  1.00  0.00     0.189 HD
BRANCH  13  15
HETATM   15  C6  UNL     1       6.891 -23.492 -21.469  1.00  0.00     0.199 C 
HETATM   16  N6  UNL     1       5.866 -23.907 -20.587  1.00  0.00    -0.068 NA
HETATM   17  S1  UNL     1       6.983 -21.949 -21.958  1.00  0.00    -0.043 SA
ENDBRANCH  13  15
ENDBRANCH  11  13
ENDBRANCH   4  10
BRANCH   1  18
HETATM   18  N2  UNL     1       9.509 -30.368 -25.196  1.00  0.00    -0.279 N 
ATOM     19  H2  UNL     1       9.959 -30.153 -26.085  1.00  0.00     0.189 HD
BRANCH  18  20
HETATM   20  C2  UNL     1      10.138 -31.318 -24.365  1.00  0.00     0.086 C 
HETATM   21  C1  UNL     1      10.933 -32.450 -24.954  1.00  0.00     0.090 C 
HETATM   22  N1  UNL     1      10.061 -31.230 -23.079  1.00  0.00    -0.388 N 
ATOM     23  H12 UNL     1      10.516 -31.917 -22.478  1.00  0.00     0.157 HD
ATOM     24  H11 UNL     1       9.522 -30.462 -22.679  1.00  0.00     0.157 HD
ENDBRANCH  18  20
ENDBRANCH   1  18
BRANCH   9  25
HETATM   25  N8  UNL     1       7.064 -31.437 -25.389  1.00  0.00    -0.289 N 
ATOM     26  H8  UNL     1       7.033 -31.862 -24.462  1.00  0.00     0.188 HD
BRANCH  25  27
HETATM   27  N9  UNL     1       7.005 -32.358 -26.400  1.00  0.00    -0.344 N 
ATOM     28  H92 UNL     1       6.649 -33.256 -26.071  1.00  0.00     0.176 HD
ATOM     29  H91 UNL     1       7.239 -32.336 -27.392  1.00  0.00     0.176 HD
ENDBRANCH  25  27
ENDBRANCH   9  25
BRANCH   8  30
HETATM   30  C9  UNL     1       5.314 -29.744 -26.934  1.00  0.00     0.309 C 
BRANCH  30  31
HETATM   31  O2  UNL     1       4.593 -30.929 -26.662  1.00  0.00    -0.366 OA
ATOM     32  H2  UNL     1       5.154 -31.655 -26.910  1.00  0.00     0.213 HD
ENDBRANCH  30  31
BRANCH  30  33
HETATM   33  O3  UNL     1       4.316 -28.723 -27.048  1.00  0.00    -0.366 OA
ATOM     34  H3  UNL     1       4.765 -27.933 -27.327  1.00  0.00     0.213 HD
ENDBRANCH  30  33
ENDBRANCH   8  30
TORSDOF 10
ENDMDL
