MODEL 1
REMARK VINA RESULT: -8.490869117      0.000      0.000
REMARK  11 active torsions:
REMARK  status: ('A' for Active; 'I' for Inactive)
REMARK    1  A    between atoms: C6_6  and  C7_7 
REMARK    2  A    between atoms: C7_7  and  N1_8 
REMARK       I    between atoms: N1_8  and  C8_10 
REMARK    3  A    between atoms: C8_10  and  C9_12 
REMARK    4  A    between atoms: C12_16  and  C13_17 
REMARK    5  A    between atoms: C13_17  and  C14_18 
REMARK    6  A    between atoms: N3_20  and  C16_21 
REMARK    7  A    between atoms: C26_36  and  O3_37 
REMARK    8  A    between atoms: O3_37  and  C27_38 
REMARK    9  A    between atoms: C27_38  and  C28_39 
REMARK   10  A    between atoms: C28_39  and  O4_40 
REMARK   11  A    between atoms: C30_42  and  O5_43 
ROOT
HETATM    1  N1  UNL     1      48.406   8.996   0.402  1.00  0.00    -0.351 N 
ATOM      2  H1  UNL     1      47.543   8.703  -0.055  1.00  0.00     0.163 HD
HETATM    3  C8  UNL     1      49.285   8.066   1.070  1.00  0.00     0.253 C 
HETATM    4  O1  UNL     1      50.363   8.474   1.614  1.00  0.00    -0.268 OA
ENDROOT
BRANCH   1   5
HETATM    5  C7  UNL     1      48.839  10.359   0.430  1.00  0.00     0.180 C 
BRANCH   5   6
HETATM    6  C6  UNL     1      47.767  11.385   0.412  1.00  0.00     0.034 A 
HETATM    7  C4  UNL     1      47.029  11.533  -0.669  1.00  0.00    -0.027 A 
HETATM    8  C3  UNL     1      45.950  12.555  -0.654  1.00  0.00    -0.017 A 
HETATM    9  C5  UNL     1      47.327  10.773  -1.873  1.00  0.00     0.051 C 
HETATM   10  C2  UNL     1      45.140  12.698  -1.662  1.00  0.00    -0.018 C 
HETATM   11  C33 UNL     1      45.737  13.390   0.586  1.00  0.00     0.043 A 
HETATM   12  C1  UNL     1      45.048  11.987  -2.943  1.00  0.00     0.037 C 
HETATM   13  C24 UNL     1      46.570  13.155   1.667  1.00  0.00     0.049 A 
HETATM   14  C32 UNL     1      44.750  14.330   0.665  1.00  0.00     0.165 A 
HETATM   15  N5  UNL     1      47.567  12.175   1.590  1.00  0.00    -0.357 N 
HETATM   16  C25 UNL     1      46.385  13.893   2.829  1.00  0.00     0.070 A 
ATOM     17  H5  UNL     1      48.170  12.018   2.398  1.00  0.00     0.166 HD
HETATM   18  C26 UNL     1      45.408  14.847   2.958  1.00  0.00     0.107 A 
HETATM   19  C30 UNL     1      44.611  15.041   1.867  1.00  0.00     0.141 A 
HETATM   20  F1  UNL     1      43.919  14.613  -0.339  1.00  0.00    -0.202 F 
BRANCH  18  21
HETATM   21  O3  UNL     1      45.252  15.567   4.141  1.00  0.00    -0.346 OA
BRANCH  21  22
HETATM   22  C27 UNL     1      46.287  15.968   4.965  1.00  0.00     0.201 C 
BRANCH  22  23
HETATM   23  C28 UNL     1      46.496  17.457   4.985  1.00  0.00     0.193 C 
BRANCH  23  24
HETATM   24  O4  UNL     1      47.711  17.938   4.639  1.00  0.00    -0.394 OA
HETATM   25  C29 UNL     1      48.687  17.091   4.200  1.00  0.00     0.201 C 
ENDBRANCH  23  24
ENDBRANCH  22  23
ENDBRANCH  21  22
ENDBRANCH  18  21
BRANCH  19  26
HETATM   26  O5  UNL     1      43.586  15.998   1.927  1.00  0.00    -0.350 OA
HETATM   27  C31 UNL     1      43.927  17.329   1.604  1.00  0.00     0.210 C 
ENDBRANCH  19  26
ENDBRANCH   5   6
ENDBRANCH   1   5
BRANCH   3  28
HETATM   28  C9  UNL     1      49.001   6.669   1.142  1.00  0.00     0.056 A 
HETATM   29  C10 UNL     1      49.081   5.811   0.038  1.00  0.00     0.108 A 
HETATM   30  N2  UNL     1      48.695   4.597   0.426  1.00  0.00    -0.359 N 
HETATM   31  C11 UNL     1      48.368   4.616   1.722  1.00  0.00     0.019 A 
HETATM   32  C23 UNL     1      48.514   3.255  -0.117  1.00  0.00     0.128 C 
HETATM   33  C12 UNL     1      48.561   5.928   2.180  1.00  0.00    -0.013 A 
HETATM   34  C21 UNL     1      47.952   3.269   2.159  1.00  0.00     0.059 C 
HETATM   35  C22 UNL     1      48.599   2.387   1.103  1.00  0.00     0.026 C 
BRANCH  33  36
HETATM   36  C13 UNL     1      48.389   6.368   3.616  1.00  0.00     0.100 C 
BRANCH  36  37
HETATM   37  C14 UNL     1      49.684   6.027   4.287  1.00  0.00     0.033 A 
HETATM   38  C15 UNL     1      49.811   4.869   5.032  1.00  0.00     0.122 A 
HETATM   39  N3  UNL     1      51.087   4.795   5.510  1.00  0.00    -0.299 N 
HETATM   40  C20 UNL     1      51.703   5.877   5.066  1.00  0.00     0.327 A 
HETATM   41  O2  UNL     1      52.896   6.236   5.257  1.00  0.00    -0.246 OA
HETATM   42  N4  UNL     1      50.852   6.640   4.315  1.00  0.00    -0.311 N 
ATOM     43  H4  UNL     1      51.079   7.524   3.860  1.00  0.00     0.170 HD
BRANCH  39  44
HETATM   44  C16 UNL     1      51.631   3.732   6.311  1.00  0.00     0.030 C 
HETATM   45  C17 UNL     1      50.695   2.525   6.292  1.00  0.00     0.038 C 
HETATM   46  C18 UNL     1      51.732   4.161   7.757  1.00  0.00     0.038 C 
HETATM   47  C19 UNL     1      53.000   3.339   5.829  1.00  0.00     0.038 C 
ENDBRANCH  39  44
ENDBRANCH  36  37
ENDBRANCH  33  36
ENDBRANCH   3  28
TORSDOF 11
ENDMDL
MODEL 2
REMARK VINA RESULT: -8.229374572      2.440      3.027
REMARK  11 active torsions:
REMARK  status: ('A' for Active; 'I' for Inactive)
REMARK    1  A    between atoms: C6_6  and  C7_7 
REMARK    2  A    between atoms: C7_7  and  N1_8 
REMARK       I    between atoms: N1_8  and  C8_10 
REMARK    3  A    between atoms: C8_10  and  C9_12 
REMARK    4  A    between atoms: C12_16  and  C13_17 
REMARK    5  A    between atoms: C13_17  and  C14_18 
REMARK    6  A    between atoms: N3_20  and  C16_21 
REMARK    7  A    between atoms: C26_36  and  O3_37 
REMARK    8  A    between atoms: O3_37  and  C27_38 
REMARK    9  A    between atoms: C27_38  and  C28_39 
REMARK   10  A    between atoms: C28_39  and  O4_40 
REMARK   11  A    between atoms: C30_42  and  O5_43 
ROOT
HETATM    1  N1  UNL     1      49.320   8.591   2.001  1.00  0.00    -0.351 N 
ATOM      2  H1  UNL     1      49.820   9.188   1.341  1.00  0.00     0.163 HD
HETATM    3  C8  UNL     1      49.757   7.254   2.323  1.00  0.00     0.253 C 
HETATM    4  O1  UNL     1      49.110   6.549   3.166  1.00  0.00    -0.268 OA
ENDROOT
BRANCH   1   5
HETATM    5  C7  UNL     1      48.134   9.016   2.678  1.00  0.00     0.180 C 
BRANCH   5   6
HETATM    6  C6  UNL     1      47.256   9.951   1.932  1.00  0.00     0.034 A 
HETATM    7  C4  UNL     1      46.630   9.532   0.852  1.00  0.00    -0.027 A 
HETATM    8  C3  UNL     1      45.743  10.484   0.134  1.00  0.00    -0.017 A 
HETATM    9  C5  UNL     1      46.876   8.196   0.332  1.00  0.00     0.051 C 
HETATM   10  C2  UNL     1      45.040  10.108  -0.895  1.00  0.00    -0.018 C 
HETATM   11  C33 UNL     1      45.591  11.892   0.655  1.00  0.00     0.043 A 
HETATM   12  C1  UNL     1      44.916   8.808  -1.565  1.00  0.00     0.037 C 
HETATM   13  C24 UNL     1      46.296  12.232   1.797  1.00  0.00     0.049 A 
HETATM   14  C32 UNL     1      44.776  12.805   0.048  1.00  0.00     0.165 A 
HETATM   15  N5  UNL     1      47.114  11.287   2.429  1.00  0.00    -0.357 N 
HETATM   16  C25 UNL     1      46.160  13.514   2.312  1.00  0.00     0.070 A 
ATOM     17  H5  UNL     1      47.624  11.558   3.270  1.00  0.00     0.166 HD
HETATM   18  C26 UNL     1      45.354  14.466   1.741  1.00  0.00     0.107 A 
HETATM   19  C30 UNL     1      44.678  14.083   0.618  1.00  0.00     0.141 A 
HETATM   20  F1  UNL     1      44.077  12.548  -1.058  1.00  0.00    -0.202 F 
BRANCH  18  21
HETATM   21  O3  UNL     1      45.241  15.742   2.288  1.00  0.00    -0.346 OA
BRANCH  21  22
HETATM   22  C27 UNL     1      46.236  16.388   2.998  1.00  0.00     0.201 C 
BRANCH  22  23
HETATM   23  C28 UNL     1      45.982  17.857   3.188  1.00  0.00     0.193 C 
BRANCH  23  24
HETATM   24  O4  UNL     1      46.693  18.514   4.133  1.00  0.00    -0.394 OA
HETATM   25  C29 UNL     1      47.598  17.842   4.904  1.00  0.00     0.201 C 
ENDBRANCH  23  24
ENDBRANCH  22  23
ENDBRANCH  21  22
ENDBRANCH  18  21
BRANCH  19  26
HETATM   26  O5  UNL     1      43.829  15.002  -0.019  1.00  0.00    -0.350 OA
HETATM   27  C31 UNL     1      44.220  15.464  -1.294  1.00  0.00     0.210 C 
ENDBRANCH  19  26
ENDBRANCH   5   6
ENDBRANCH   1   5
BRANCH   3  28
HETATM   28  C9  UNL     1      50.918   6.671   1.733  1.00  0.00     0.056 A 
HETATM   29  C10 UNL     1      51.061   6.469   0.354  1.00  0.00     0.108 A 
HETATM   30  N2  UNL     1      52.222   5.853   0.142  1.00  0.00    -0.359 N 
HETATM   31  C11 UNL     1      52.845   5.641   1.306  1.00  0.00     0.019 A 
HETATM   32  C23 UNL     1      53.028   5.333  -0.958  1.00  0.00     0.128 C 
HETATM   33  C12 UNL     1      52.021   6.159   2.318  1.00  0.00    -0.013 A 
HETATM   34  C21 UNL     1      54.139   4.970   1.074  1.00  0.00     0.059 C 
HETATM   35  C22 UNL     1      54.411   5.318  -0.380  1.00  0.00     0.026 C 
BRANCH  33  36
HETATM   36  C13 UNL     1      52.389   6.203   3.783  1.00  0.00     0.100 C 
BRANCH  36  37
HETATM   37  C14 UNL     1      51.857   4.927   4.358  1.00  0.00     0.033 A 
HETATM   38  C15 UNL     1      52.646   3.794   4.420  1.00  0.00     0.122 A 
HETATM   39  N3  UNL     1      51.928   2.791   5.002  1.00  0.00    -0.299 N 
HETATM   40  C20 UNL     1      50.743   3.309   5.279  1.00  0.00     0.327 A 
HETATM   41  O2  UNL     1      49.750   2.752   5.820  1.00  0.00    -0.246 OA
HETATM   42  N4  UNL     1      50.688   4.618   4.888  1.00  0.00    -0.311 N 
ATOM     43  H4  UNL     1      49.887   5.243   4.987  1.00  0.00     0.170 HD
BRANCH  39  44
HETATM   44  C16 UNL     1      52.397   1.459   5.271  1.00  0.00     0.030 C 
HETATM   45  C17 UNL     1      52.657   1.283   6.765  1.00  0.00     0.038 C 
HETATM   46  C18 UNL     1      53.722   1.220   4.584  1.00  0.00     0.038 C 
HETATM   47  C19 UNL     1      51.413   0.431   4.787  1.00  0.00     0.038 C 
ENDBRANCH  39  44
ENDBRANCH  36  37
ENDBRANCH  33  36
ENDBRANCH   3  28
TORSDOF 11
ENDMDL
MODEL 3
REMARK VINA RESULT: -8.228142423      2.501      4.674
REMARK  11 active torsions:
REMARK  status: ('A' for Active; 'I' for Inactive)
REMARK    1  A    between atoms: C6_6  and  C7_7 
REMARK    2  A    between atoms: C7_7  and  N1_8 
REMARK       I    between atoms: N1_8  and  C8_10 
REMARK    3  A    between atoms: C8_10  and  C9_12 
REMARK    4  A    between atoms: C12_16  and  C13_17 
REMARK    5  A    between atoms: C13_17  and  C14_18 
REMARK    6  A    between atoms: N3_20  and  C16_21 
REMARK    7  A    between atoms: C26_36  and  O3_37 
REMARK    8  A    between atoms: O3_37  and  C27_38 
REMARK    9  A    between atoms: C27_38  and  C28_39 
REMARK   10  A    between atoms: C28_39  and  O4_40 
REMARK   11  A    between atoms: C30_42  and  O5_43 
ROOT
HETATM    1  N1  UNL     1      47.140  10.296   1.558  1.00  0.00    -0.351 N 
ATOM      2  H1  UNL     1      46.579  10.135   0.722  1.00  0.00     0.163 HD
HETATM    3  C8  UNL     1      48.071   9.318   2.068  1.00  0.00     0.253 C 
HETATM    4  O1  UNL     1      48.764   9.569   3.108  1.00  0.00    -0.268 OA
ENDROOT
BRANCH   1   5
HETATM    5  C7  UNL     1      47.066  11.508   2.315  1.00  0.00     0.180 C 
BRANCH   5   6
HETATM    6  C6  UNL     1      46.261  12.602   1.716  1.00  0.00     0.034 A 
HETATM    7  C4  UNL     1      46.074  13.716   2.393  1.00  0.00    -0.027 A 
HETATM    8  C3  UNL     1      45.280  14.802   1.763  1.00  0.00    -0.017 A 
HETATM    9  C5  UNL     1      46.562  13.837   3.758  1.00  0.00     0.051 C 
HETATM   10  C2  UNL     1      45.124  15.953   2.350  1.00  0.00    -0.018 C 
HETATM   11  C33 UNL     1      44.711  14.597   0.380  1.00  0.00     0.043 A 
HETATM   12  C1  UNL     1      45.621  16.465   3.632  1.00  0.00     0.037 C 
HETATM   13  C24 UNL     1      44.964  13.387  -0.244  1.00  0.00     0.049 A 
HETATM   14  C32 UNL     1      43.989  15.566  -0.257  1.00  0.00     0.165 A 
HETATM   15  N5  UNL     1      45.723  12.405   0.404  1.00  0.00    -0.357 N 
HETATM   16  C25 UNL     1      44.471  13.178  -1.526  1.00  0.00     0.070 A 
ATOM     17  H5  UNL     1      45.898  11.521  -0.074  1.00  0.00     0.166 HD
HETATM   18  C26 UNL     1      43.742  14.119  -2.207  1.00  0.00     0.107 A 
HETATM   19  C30 UNL     1      43.521  15.296  -1.552  1.00  0.00     0.141 A 
HETATM   20  F1  UNL     1      43.701  16.749   0.287  1.00  0.00    -0.202 F 
BRANCH  18  21
HETATM   21  O3  UNL     1      43.266  13.873  -3.493  1.00  0.00    -0.346 OA
BRANCH  21  22
HETATM   22  C27 UNL     1      42.128  13.145  -3.788  1.00  0.00     0.201 C 
BRANCH  22  23
HETATM   23  C28 UNL     1      40.954  13.997  -4.182  1.00  0.00     0.193 C 
BRANCH  23  24
HETATM   24  O4  UNL     1      40.175  14.507  -3.201  1.00  0.00    -0.394 OA
HETATM   25  C29 UNL     1      39.531  15.697  -3.383  1.00  0.00     0.201 C 
ENDBRANCH  23  24
ENDBRANCH  22  23
ENDBRANCH  21  22
ENDBRANCH  18  21
BRANCH  19  26
HETATM   26  O5  UNL     1      42.788  16.309  -2.190  1.00  0.00    -0.350 OA
HETATM   27  C31 UNL     1      43.513  17.232  -2.974  1.00  0.00     0.210 C 
ENDBRANCH  19  26
ENDBRANCH   5   6
ENDBRANCH   1   5
BRANCH   3  28
HETATM   28  C9  UNL     1      48.265   8.053   1.438  1.00  0.00     0.056 A 
HETATM   29  C10 UNL     1      48.418   7.898   0.055  1.00  0.00     0.108 A 
HETATM   30  N2  UNL     1      48.515   6.596  -0.210  1.00  0.00    -0.359 N 
HETATM   31  C11 UNL     1      48.434   5.894   0.925  1.00  0.00     0.019 A 
HETATM   32  C23 UNL     1      48.679   5.696  -1.346  1.00  0.00     0.128 C 
HETATM   33  C12 UNL     1      48.276   6.813   1.973  1.00  0.00    -0.013 A 
HETATM   34  C21 UNL     1      48.554   4.451   0.637  1.00  0.00     0.059 C 
HETATM   35  C22 UNL     1      49.251   4.462  -0.714  1.00  0.00     0.026 C 
BRANCH  33  36
HETATM   36  C13 UNL     1      48.229   6.443   3.437  1.00  0.00     0.100 C 
BRANCH  36  37
HETATM   37  C14 UNL     1      49.663   6.340   3.860  1.00  0.00     0.033 A 
HETATM   38  C15 UNL     1      50.294   5.112   3.927  1.00  0.00     0.122 A 
HETATM   39  N3  UNL     1      51.588   5.306   4.316  1.00  0.00    -0.299 N 
HETATM   40  C20 UNL     1      51.724   6.611   4.478  1.00  0.00     0.327 A 
HETATM   41  O2  UNL     1      52.748   7.255   4.835  1.00  0.00    -0.246 OA
HETATM   42  N4  UNL     1      50.551   7.255   4.202  1.00  0.00    -0.311 N 
ATOM     43  H4  UNL     1      50.389   8.261   4.252  1.00  0.00     0.170 HD
BRANCH  39  44
HETATM   44  C16 UNL     1      52.585   4.283   4.482  1.00  0.00     0.030 C 
HETATM   45  C17 UNL     1      53.690   4.450   3.442  1.00  0.00     0.038 C 
HETATM   46  C18 UNL     1      51.983   2.918   4.239  1.00  0.00     0.038 C 
HETATM   47  C19 UNL     1      53.163   4.313   5.869  1.00  0.00     0.038 C 
ENDBRANCH  39  44
ENDBRANCH  36  37
ENDBRANCH  33  36
ENDBRANCH   3  28
TORSDOF 11
ENDMDL
MODEL 4
REMARK VINA RESULT: -8.223042341      1.822      2.191
REMARK  11 active torsions:
REMARK  status: ('A' for Active; 'I' for Inactive)
REMARK    1  A    between atoms: C6_6  and  C7_7 
REMARK    2  A    between atoms: C7_7  and  N1_8 
REMARK       I    between atoms: N1_8  and  C8_10 
REMARK    3  A    between atoms: C8_10  and  C9_12 
REMARK    4  A    between atoms: C12_16  and  C13_17 
REMARK    5  A    between atoms: C13_17  and  C14_18 
REMARK    6  A    between atoms: N3_20  and  C16_21 
REMARK    7  A    between atoms: C26_36  and  O3_37 
REMARK    8  A    between atoms: O3_37  and  C27_38 
REMARK    9  A    between atoms: C27_38  and  C28_39 
REMARK   10  A    between atoms: C28_39  and  O4_40 
REMARK   11  A    between atoms: C30_42  and  O5_43 
ROOT
HETATM    1  N1  UNL     1      48.484   8.930   1.912  1.00  0.00    -0.351 N 
ATOM      2  H1  UNL     1      48.172   8.790   0.951  1.00  0.00     0.163 HD
HETATM    3  C8  UNL     1      49.519   8.129   2.518  1.00  0.00     0.253 C 
HETATM    4  O1  UNL     1      49.888   8.351   3.718  1.00  0.00    -0.268 OA
ENDROOT
BRANCH   1   5
HETATM    5  C7  UNL     1      47.927   9.937   2.763  1.00  0.00     0.180 C 
BRANCH   5   6
HETATM    6  C6  UNL     1      47.041  10.930   2.105  1.00  0.00     0.034 A 
HETATM    7  C4  UNL     1      46.340  10.575   1.049  1.00  0.00    -0.027 A 
HETATM    8  C3  UNL     1      45.447  11.584   0.421  1.00  0.00    -0.017 A 
HETATM    9  C5  UNL     1      46.507   9.253   0.466  1.00  0.00     0.051 C 
HETATM   10  C2  UNL     1      44.673  11.273  -0.578  1.00  0.00    -0.018 C 
HETATM   11  C33 UNL     1      45.376  12.975   1.003  1.00  0.00     0.043 A 
HETATM   12  C1  UNL     1      44.464  10.005  -1.287  1.00  0.00     0.037 C 
HETATM   13  C24 UNL     1      46.158  13.245   2.113  1.00  0.00     0.049 A 
HETATM   14  C32 UNL     1      44.561  13.938   0.480  1.00  0.00     0.165 A 
HETATM   15  N5  UNL     1      46.976  12.249   2.660  1.00  0.00    -0.357 N 
HETATM   16  C25 UNL     1      46.098  14.510   2.683  1.00  0.00     0.070 A 
ATOM     17  H5  UNL     1      47.544  12.469   3.478  1.00  0.00     0.166 HD
HETATM   18  C26 UNL     1      45.295  15.510   2.196  1.00  0.00     0.107 A 
HETATM   19  C30 UNL     1      44.542  15.195   1.102  1.00  0.00     0.141 A 
HETATM   20  F1  UNL     1      43.790  13.749  -0.591  1.00  0.00    -0.202 F 
BRANCH  18  21
HETATM   21  O3  UNL     1      45.260  16.767   2.797  1.00  0.00    -0.346 OA
BRANCH  21  22
HETATM   22  C27 UNL     1      45.068  16.993   4.147  1.00  0.00     0.201 C 
BRANCH  22  23
HETATM   23  C28 UNL     1      46.301  17.476   4.858  1.00  0.00     0.193 C 
BRANCH  23  24
HETATM   24  O4  UNL     1      47.381  17.808   4.114  1.00  0.00    -0.394 OA
HETATM   25  C29 UNL     1      48.503  17.031   4.145  1.00  0.00     0.201 C 
ENDBRANCH  23  24
ENDBRANCH  22  23
ENDBRANCH  21  22
ENDBRANCH  18  21
BRANCH  19  26
HETATM   26  O5  UNL     1      43.691  16.166   0.552  1.00  0.00    -0.350 OA
HETATM   27  C31 UNL     1      43.797  16.403  -0.836  1.00  0.00     0.210 C 
ENDBRANCH  19  26
ENDBRANCH   5   6
ENDBRANCH   1   5
BRANCH   3  28
HETATM   28  C9  UNL     1      50.177   7.077   1.813  1.00  0.00     0.056 A 
HETATM   29  C10 UNL     1      51.238   7.293   0.924  1.00  0.00     0.108 A 
HETATM   30  N2  UNL     1      51.579   6.121   0.391  1.00  0.00    -0.359 N 
HETATM   31  C11 UNL     1      50.799   5.153   0.883  1.00  0.00     0.019 A 
HETATM   32  C23 UNL     1      52.532   5.562  -0.562  1.00  0.00     0.128 C 
HETATM   33  C12 UNL     1      49.909   5.754   1.786  1.00  0.00    -0.013 A 
HETATM   34  C21 UNL     1      51.183   3.850   0.304  1.00  0.00     0.059 C 
HETATM   35  C22 UNL     1      52.609   4.122  -0.150  1.00  0.00     0.026 C 
BRANCH  33  36
HETATM   36  C13 UNL     1      48.908   5.002   2.631  1.00  0.00     0.100 C 
BRANCH  36  37
HETATM   37  C14 UNL     1      49.646   4.642   3.884  1.00  0.00     0.033 A 
HETATM   38  C15 UNL     1      49.935   3.323   4.181  1.00  0.00     0.122 A 
HETATM   39  N3  UNL     1      50.626   3.281   5.358  1.00  0.00    -0.299 N 
HETATM   40  C20 UNL     1      50.743   4.537   5.752  1.00  0.00     0.327 A 
HETATM   41  O2  UNL     1      51.305   4.985   6.789  1.00  0.00    -0.246 OA
HETATM   42  N4  UNL     1      50.146   5.380   4.857  1.00  0.00    -0.311 N 
ATOM     43  H4  UNL     1      50.095   6.397   4.928  1.00  0.00     0.170 HD
BRANCH  39  44
HETATM   44  C16 UNL     1      51.131   2.099   6.001  1.00  0.00     0.030 C 
HETATM   45  C17 UNL     1      52.582   2.310   6.427  1.00  0.00     0.038 C 
HETATM   46  C18 UNL     1      51.144   0.938   5.033  1.00  0.00     0.038 C 
HETATM   47  C19 UNL     1      50.287   1.726   7.187  1.00  0.00     0.038 C 
ENDBRANCH  39  44
ENDBRANCH  36  37
ENDBRANCH  33  36
ENDBRANCH   3  28
TORSDOF 11
ENDMDL
MODEL 5
REMARK VINA RESULT: -8.134162197      2.379      4.640
REMARK  11 active torsions:
REMARK  status: ('A' for Active; 'I' for Inactive)
REMARK    1  A    between atoms: C6_6  and  C7_7 
REMARK    2  A    between atoms: C7_7  and  N1_8 
REMARK       I    between atoms: N1_8  and  C8_10 
REMARK    3  A    between atoms: C8_10  and  C9_12 
REMARK    4  A    between atoms: C12_16  and  C13_17 
REMARK    5  A    between atoms: C13_17  and  C14_18 
REMARK    6  A    between atoms: N3_20  and  C16_21 
REMARK    7  A    between atoms: C26_36  and  O3_37 
REMARK    8  A    between atoms: O3_37  and  C27_38 
REMARK    9  A    between atoms: C27_38  and  C28_39 
REMARK   10  A    between atoms: C28_39  and  O4_40 
REMARK   11  A    between atoms: C30_42  and  O5_43 
ROOT
HETATM    1  N1  UNL     1      47.181  10.182   1.630  1.00  0.00    -0.351 N 
ATOM      2  H1  UNL     1      46.571  10.001   0.833  1.00  0.00     0.163 HD
HETATM    3  C8  UNL     1      48.151   9.223   2.100  1.00  0.00     0.253 C 
HETATM    4  O1  UNL     1      48.905   9.500   3.090  1.00  0.00    -0.268 OA
ENDROOT
BRANCH   1   5
HETATM    5  C7  UNL     1      47.141  11.408   2.367  1.00  0.00     0.180 C 
BRANCH   5   6
HETATM    6  C6  UNL     1      46.335  12.503   1.770  1.00  0.00     0.034 A 
HETATM    7  C4  UNL     1      46.157  13.620   2.444  1.00  0.00    -0.027 A 
HETATM    8  C3  UNL     1      45.362  14.706   1.815  1.00  0.00    -0.017 A 
HETATM    9  C5  UNL     1      46.654  13.744   3.805  1.00  0.00     0.051 C 
HETATM   10  C2  UNL     1      45.214  15.860   2.398  1.00  0.00    -0.018 C 
HETATM   11  C33 UNL     1      44.782  14.497   0.437  1.00  0.00     0.043 A 
HETATM   12  C1  UNL     1      45.722  16.376   3.675  1.00  0.00     0.037 C 
HETATM   13  C24 UNL     1      45.027  13.284  -0.184  1.00  0.00     0.049 A 
HETATM   14  C32 UNL     1      44.060  15.466  -0.199  1.00  0.00     0.165 A 
HETATM   15  N5  UNL     1      45.788  12.302   0.462  1.00  0.00    -0.357 N 
HETATM   16  C25 UNL     1      44.525  13.071  -1.461  1.00  0.00     0.070 A 
ATOM     17  H5  UNL     1      45.956  11.415  -0.013  1.00  0.00     0.166 HD
HETATM   18  C26 UNL     1      43.794  14.012  -2.141  1.00  0.00     0.107 A 
HETATM   19  C30 UNL     1      43.581  15.192  -1.490  1.00  0.00     0.141 A 
HETATM   20  F1  UNL     1      43.779  16.652   0.343  1.00  0.00    -0.202 F 
BRANCH  18  21
HETATM   21  O3  UNL     1      43.308  13.762  -3.423  1.00  0.00    -0.346 OA
BRANCH  21  22
HETATM   22  C27 UNL     1      43.275  12.519  -4.028  1.00  0.00     0.201 C 
BRANCH  22  23
HETATM   23  C28 UNL     1      41.937  11.840  -3.935  1.00  0.00     0.193 C 
BRANCH  23  24
HETATM   24  O4  UNL     1      41.902  10.545  -3.549  1.00  0.00    -0.394 OA
HETATM   25  C29 UNL     1      42.978   9.982  -2.926  1.00  0.00     0.201 C 
ENDBRANCH  23  24
ENDBRANCH  22  23
ENDBRANCH  21  22
ENDBRANCH  18  21
BRANCH  19  26
HETATM   26  O5  UNL     1      42.847  16.205  -2.126  1.00  0.00    -0.350 OA
HETATM   27  C31 UNL     1      43.571  17.132  -2.906  1.00  0.00     0.210 C 
ENDBRANCH  19  26
ENDBRANCH   5   6
ENDBRANCH   1   5
BRANCH   3  28
HETATM   28  C9  UNL     1      48.319   7.948   1.483  1.00  0.00     0.056 A 
HETATM   29  C10 UNL     1      48.469   7.776   0.101  1.00  0.00     0.108 A 
HETATM   30  N2  UNL     1      48.539   6.470  -0.150  1.00  0.00    -0.359 N 
HETATM   31  C11 UNL     1      48.443   5.781   0.991  1.00  0.00     0.019 A 
HETATM   32  C23 UNL     1      48.684   5.555  -1.278  1.00  0.00     0.128 C 
HETATM   33  C12 UNL     1      48.304   6.714   2.030  1.00  0.00    -0.013 A 
HETATM   34  C21 UNL     1      48.533   4.333   0.718  1.00  0.00     0.059 C 
HETATM   35  C22 UNL     1      49.230   4.316  -0.633  1.00  0.00     0.026 C 
BRANCH  33  36
HETATM   36  C13 UNL     1      48.250   6.359   3.498  1.00  0.00     0.100 C 
BRANCH  36  37
HETATM   37  C14 UNL     1      49.681   6.243   3.925  1.00  0.00     0.033 A 
HETATM   38  C15 UNL     1      50.288   5.006   4.036  1.00  0.00     0.122 A 
HETATM   39  N3  UNL     1      51.585   5.188   4.419  1.00  0.00    -0.299 N 
HETATM   40  C20 UNL     1      51.747   6.495   4.535  1.00  0.00     0.327 A 
HETATM   41  O2  UNL     1      52.784   7.131   4.868  1.00  0.00    -0.246 OA
HETATM   42  N4  UNL     1      50.586   7.152   4.235  1.00  0.00    -0.311 N 
ATOM     43  H4  UNL     1      50.445   8.162   4.249  1.00  0.00     0.170 HD
BRANCH  39  44
HETATM   44  C16 UNL     1      52.562   4.153   4.623  1.00  0.00     0.030 C 
HETATM   45  C17 UNL     1      51.901   2.779   4.530  1.00  0.00     0.038 C 
HETATM   46  C18 UNL     1      53.143   4.245   6.015  1.00  0.00     0.038 C 
HETATM   47  C19 UNL     1      53.681   4.262   3.626  1.00  0.00     0.038 C 
ENDBRANCH  39  44
ENDBRANCH  36  37
ENDBRANCH  33  36
ENDBRANCH   3  28
TORSDOF 11
ENDMDL
