MODEL 1
REMARK VINA RESULT: -7.955269143      0.000      0.000
REMARK  13 active torsions:
REMARK  status: ('A' for Active; 'I' for Inactive)
REMARK    1  A    between atoms: N2_5  and  C4_6 
REMARK    2  A    between atoms: C4_6  and  C5_7 
REMARK    3  A    between atoms: C5_7  and  N3_8 
REMARK    4  A    between atoms: N3_8  and  C6_9 
REMARK    5  A    between atoms: N3_8  and  C8_12 
REMARK    6  A    between atoms: C6_9  and  C7_10 
REMARK    7  A    between atoms: C8_12  and  C9_13 
REMARK    8  A    between atoms: C9_13  and  C10_14 
REMARK    9  A    between atoms: C10_14  and  O1_15 
REMARK   10  A    between atoms: O1_15  and  C11_16 
REMARK   11  A    between atoms: C29_34  and  O2_35 
REMARK   12  A    between atoms: C30_37  and  O3_39 
REMARK   13  A    between atoms: C33_42  and  O4_43 
ROOT
HETATM    1  C11 UNL     1      46.730   9.347  -1.662  1.00  0.00     0.069 A 
HETATM    2  C12 UNL     1      47.714   9.630  -2.589  1.00  0.00     0.037 A 
HETATM    3  C13 UNL     1      48.980   9.154  -2.401  1.00  0.00     0.013 A 
HETATM    4  C14 UNL     1      49.325   8.372  -1.281  1.00  0.00    -0.021 A 
HETATM    5  C15 UNL     1      48.373   8.098  -0.384  1.00  0.00    -0.035 A 
HETATM    6  C16 UNL     1      47.062   8.598  -0.591  1.00  0.00     0.045 A 
HETATM    7  C17 UNL     1      49.274   7.326   0.449  1.00  0.00     0.018 A 
HETATM    8  C18 UNL     1      48.960   5.871   0.544  1.00  0.00     0.018 C 
HETATM    9  C19 UNL     1      48.826   5.251   1.864  1.00  0.00     0.011 C 
HETATM   10  C20 UNL     1      49.529   5.886   3.022  1.00  0.00    -0.036 C 
HETATM   11  C21 UNL     1      48.448   6.500   3.894  1.00  0.00     0.016 C 
HETATM   12  C22 UNL     1      50.470   6.929   2.488  1.00  0.00    -0.005 C 
HETATM   13  C23 UNL     1      51.426   7.445   3.503  1.00  0.00     0.006 C 
HETATM   14  C24 UNL     1      52.470   6.328   3.669  1.00  0.00     0.008 C 
HETATM   15  C25 UNL     1      51.835   5.001   3.424  1.00  0.00     0.027 C 
HETATM   16  C26 UNL     1      50.398   4.902   3.815  1.00  0.00     0.001 C 
HETATM   17  C27 UNL     1      50.173   4.985   5.296  1.00  0.00     0.008 C 
HETATM   18  C28 UNL     1      51.372   4.798   6.150  1.00  0.00     0.035 C 
HETATM   19  C29 UNL     1      52.452   3.934   5.615  1.00  0.00     0.152 C 
HETATM   20  C30 UNL     1      52.572   3.867   4.138  1.00  0.00     0.084 C 
HETATM   21  C31 UNL     1      54.014   3.819   3.662  1.00  0.00     0.049 C 
HETATM   22  C32 UNL     1      49.629   7.950   1.791  1.00  0.00     0.022 C 
HETATM   23  C33 UNL     1      50.338   7.630  -0.530  1.00  0.00     0.164 A 
ENDROOT
BRANCH  23  24
HETATM   24  O4  UNL     1      51.333   8.513  -0.092  1.00  0.00    -0.390 OA
ATOM     25  H4  UNL     1      51.600   9.071  -0.814  1.00  0.00     0.210 HD
ENDBRANCH  23  24
BRANCH   1  26
HETATM   26  O1  UNL     1      45.436   9.829  -1.845  1.00  0.00    -0.351 OA
BRANCH  26  27
HETATM   27  C10 UNL     1      44.522  10.009  -0.800  1.00  0.00     0.177 C 
BRANCH  27  28
HETATM   28  C9  UNL     1      44.565  11.435  -0.266  1.00  0.00     0.047 C 
BRANCH  28  29
HETATM   29  C8  UNL     1      44.577  11.485   1.215  1.00  0.00     0.129 C 
BRANCH  29  30
HETATM   30  N3  UNL     1      45.340  12.631   1.668  1.00  0.00    -0.371 N 
BRANCH  30  31
HETATM   31  C5  UNL     1      44.695  13.852   1.606  1.00  0.00     0.093 C 
BRANCH  31  32
HETATM   32  C4  UNL     1      45.570  15.023   1.942  1.00  0.00     0.317 C 
BRANCH  32  33
HETATM   33  N2  UNL     1      44.979  15.888   2.895  1.00  0.00     0.096 N 
HETATM   34  C3  UNL     1      45.218  17.246   2.526  1.00  0.00     0.303 C 
HETATM   35  C2  UNL     1      45.997  17.931   3.626  1.00  0.00     0.302 C 
HETATM   36  N1  UNL     1      47.145  17.138   3.965  1.00  0.00     0.087 N 
HETATM   37  C1  UNL     1      47.977  17.918   4.872  1.00  0.00     0.310 C 
HETATM   38  C35 UNL     1      46.799  15.851   4.484  1.00  0.00     0.302 C 
HETATM   39  C34 UNL     1      45.341  15.537   4.232  1.00  0.00     0.303 C 
ENDBRANCH  32  33
ENDBRANCH  31  32
ENDBRANCH  30  31
BRANCH  30  40
HETATM   40  C6  UNL     1      46.408  12.324   2.502  1.00  0.00     0.078 C 
BRANCH  40  41
HETATM   41  C7  UNL     1      47.458  11.378   1.955  1.00  0.00     0.159 C 
HETATM   42 CL1  UNL     1      48.064  11.991   0.376  1.00  0.00    -0.125 Cl
ENDBRANCH  40  41
ENDBRANCH  30  40
ENDBRANCH  29  30
ENDBRANCH  28  29
ENDBRANCH  27  28
ENDBRANCH  26  27
ENDBRANCH   1  26
BRANCH  20  43
HETATM   43  O3  UNL     1      51.973   2.688   3.679  1.00  0.00    -0.387 OA
ATOM     44  H3  UNL     1      52.581   1.993   3.901  1.00  0.00     0.210 HD
ENDBRANCH  20  43
BRANCH  19  45
HETATM   45  O2  UNL     1      53.653   4.372   6.228  1.00  0.00    -0.393 OA
ATOM     46  H2  UNL     1      53.981   3.635   6.730  1.00  0.00     0.210 HD
ENDBRANCH  19  45
TORSDOF 13
ENDMDL
MODEL 2
REMARK VINA RESULT: -7.904249173      1.716      2.172
REMARK  13 active torsions:
REMARK  status: ('A' for Active; 'I' for Inactive)
REMARK    1  A    between atoms: N2_5  and  C4_6 
REMARK    2  A    between atoms: C4_6  and  C5_7 
REMARK    3  A    between atoms: C5_7  and  N3_8 
REMARK    4  A    between atoms: N3_8  and  C6_9 
REMARK    5  A    between atoms: N3_8  and  C8_12 
REMARK    6  A    between atoms: C6_9  and  C7_10 
REMARK    7  A    between atoms: C8_12  and  C9_13 
REMARK    8  A    between atoms: C9_13  and  C10_14 
REMARK    9  A    between atoms: C10_14  and  O1_15 
REMARK   10  A    between atoms: O1_15  and  C11_16 
REMARK   11  A    between atoms: C29_34  and  O2_35 
REMARK   12  A    between atoms: C30_37  and  O3_39 
REMARK   13  A    between atoms: C33_42  and  O4_43 
ROOT
HETATM    1  C11 UNL     1      46.435  10.412  -0.260  1.00  0.00     0.069 A 
HETATM    2  C12 UNL     1      47.362  10.860  -1.182  1.00  0.00     0.037 A 
HETATM    3  C13 UNL     1      48.629  10.352  -1.170  1.00  0.00     0.013 A 
HETATM    4  C14 UNL     1      49.032   9.372  -0.241  1.00  0.00    -0.021 A 
HETATM    5  C15 UNL     1      48.136   8.939   0.650  1.00  0.00    -0.035 A 
HETATM    6  C16 UNL     1      46.823   9.475   0.627  1.00  0.00     0.045 A 
HETATM    7  C17 UNL     1      49.076   8.020   1.263  1.00  0.00     0.018 A 
HETATM    8  C18 UNL     1      48.744   6.575   1.105  1.00  0.00     0.018 C 
HETATM    9  C19 UNL     1      48.685   5.719   2.292  1.00  0.00     0.011 C 
HETATM   10  C20 UNL     1      49.471   6.122   3.499  1.00  0.00    -0.036 C 
HETATM   11  C21 UNL     1      48.458   6.566   4.539  1.00  0.00     0.016 C 
HETATM   12  C22 UNL     1      50.393   7.243   3.108  1.00  0.00    -0.005 C 
HETATM   13  C23 UNL     1      51.421   7.555   4.136  1.00  0.00     0.006 C 
HETATM   14  C24 UNL     1      52.454   6.422   4.021  1.00  0.00     0.008 C 
HETATM   15  C25 UNL     1      51.783   5.167   3.574  1.00  0.00     0.027 C 
HETATM   16  C26 UNL     1      50.372   5.003   4.034  1.00  0.00     0.001 C 
HETATM   17  C27 UNL     1      50.244   4.807   5.516  1.00  0.00     0.008 C 
HETATM   18  C28 UNL     1      51.493   4.458   6.239  1.00  0.00     0.035 C 
HETATM   19  C29 UNL     1      52.521   3.705   5.482  1.00  0.00     0.152 C 
HETATM   20  C30 UNL     1      52.546   3.916   4.013  1.00  0.00     0.084 C 
HETATM   21  C31 UNL     1      53.953   3.952   3.442  1.00  0.00     0.049 C 
HETATM   22  C32 UNL     1      49.527   8.380   2.671  1.00  0.00     0.022 C 
HETATM   23  C33 UNL     1      50.079   8.497   0.289  1.00  0.00     0.164 A 
ENDROOT
BRANCH  23  24
HETATM   24  O4  UNL     1      51.115   9.278   0.817  1.00  0.00    -0.390 OA
ATOM     25  H4  UNL     1      51.438   8.877   1.616  1.00  0.00     0.210 HD
ENDBRANCH  23  24
BRANCH   1  26
HETATM   26  O1  UNL     1      45.141  10.925  -0.264  1.00  0.00    -0.351 OA
BRANCH  26  27
HETATM   27  C10 UNL     1      44.570  11.596   0.825  1.00  0.00     0.177 C 
BRANCH  27  28
HETATM   28  C9  UNL     1      45.214  12.960   1.035  1.00  0.00     0.047 C 
BRANCH  28  29
HETATM   29  C8  UNL     1      44.758  13.961   0.043  1.00  0.00     0.129 C 
BRANCH  29  30
HETATM   30  N3  UNL     1      44.166  15.098   0.719  1.00  0.00    -0.371 N 
BRANCH  30  31
HETATM   31  C5  UNL     1      44.168  15.050   2.101  1.00  0.00     0.093 C 
BRANCH  31  32
HETATM   32  C4  UNL     1      44.529  16.350   2.756  1.00  0.00     0.317 C 
BRANCH  32  33
HETATM   33  N2  UNL     1      44.977  16.181   4.089  1.00  0.00     0.096 N 
HETATM   34  C3  UNL     1      45.334  17.448   4.641  1.00  0.00     0.303 C 
HETATM   35  C2  UNL     1      46.794  17.427   5.033  1.00  0.00     0.302 C 
HETATM   36  N1  UNL     1      47.580  16.954   3.928  1.00  0.00     0.087 N 
HETATM   37  C1  UNL     1      48.986  17.141   4.267  1.00  0.00     0.310 C 
HETATM   38  C35 UNL     1      47.263  15.611   3.554  1.00  0.00     0.302 C 
HETATM   39  C34 UNL     1      45.971  15.159   4.194  1.00  0.00     0.303 C 
ENDBRANCH  32  33
ENDBRANCH  31  32
ENDBRANCH  30  31
BRANCH  30  40
HETATM   40  C6  UNL     1      44.088  16.253  -0.049  1.00  0.00     0.078 C 
BRANCH  40  41
HETATM   41  C7  UNL     1      43.558  16.105  -1.461  1.00  0.00     0.159 C 
HETATM   42 CL1  UNL     1      44.136  17.474  -2.474  1.00  0.00    -0.125 Cl
ENDBRANCH  40  41
ENDBRANCH  30  40
ENDBRANCH  29  30
ENDBRANCH  28  29
ENDBRANCH  27  28
ENDBRANCH  26  27
ENDBRANCH   1  26
BRANCH  20  43
HETATM   43  O3  UNL     1      51.898   2.847   3.383  1.00  0.00    -0.387 OA
ATOM     44  H3  UNL     1      52.245   2.064   3.795  1.00  0.00     0.210 HD
ENDBRANCH  20  43
BRANCH  19  45
HETATM   45  O2  UNL     1      53.767   4.015   6.085  1.00  0.00    -0.393 OA
ATOM     46  H2  UNL     1      54.313   4.377   5.398  1.00  0.00     0.210 HD
ENDBRANCH  19  45
TORSDOF 13
ENDMDL
MODEL 3
REMARK VINA RESULT: -7.538037333      1.828      2.772
REMARK  13 active torsions:
REMARK  status: ('A' for Active; 'I' for Inactive)
REMARK    1  A    between atoms: N2_5  and  C4_6 
REMARK    2  A    between atoms: C4_6  and  C5_7 
REMARK    3  A    between atoms: C5_7  and  N3_8 
REMARK    4  A    between atoms: N3_8  and  C6_9 
REMARK    5  A    between atoms: N3_8  and  C8_12 
REMARK    6  A    between atoms: C6_9  and  C7_10 
REMARK    7  A    between atoms: C8_12  and  C9_13 
REMARK    8  A    between atoms: C9_13  and  C10_14 
REMARK    9  A    between atoms: C10_14  and  O1_15 
REMARK   10  A    between atoms: O1_15  and  C11_16 
REMARK   11  A    between atoms: C29_34  and  O2_35 
REMARK   12  A    between atoms: C30_37  and  O3_39 
REMARK   13  A    between atoms: C33_42  and  O4_43 
ROOT
HETATM    1  C11 UNL     1      49.204   9.405   0.880  1.00  0.00     0.069 A 
HETATM    2  C12 UNL     1      50.010   9.351  -0.242  1.00  0.00     0.037 A 
HETATM    3  C13 UNL     1      50.882   8.314  -0.401  1.00  0.00     0.013 A 
HETATM    4  C14 UNL     1      50.992   7.279   0.550  1.00  0.00    -0.021 A 
HETATM    5  C15 UNL     1      50.213   7.330   1.633  1.00  0.00    -0.035 A 
HETATM    6  C16 UNL     1      49.310   8.414   1.787  1.00  0.00     0.045 A 
HETATM    7  C17 UNL     1      50.747   6.093   2.170  1.00  0.00     0.018 A 
HETATM    8  C18 UNL     1      49.776   4.964   2.248  1.00  0.00     0.018 C 
HETATM    9  C19 UNL     1      49.597   4.259   3.518  1.00  0.00     0.011 C 
HETATM   10  C20 UNL     1      50.721   4.277   4.506  1.00  0.00    -0.036 C 
HETATM   11  C21 UNL     1      50.267   5.162   5.653  1.00  0.00     0.016 C 
HETATM   12  C22 UNL     1      51.939   4.832   3.823  1.00  0.00    -0.005 C 
HETATM   13  C23 UNL     1      53.192   4.653   4.603  1.00  0.00     0.006 C 
HETATM   14  C24 UNL     1      53.554   3.168   4.438  1.00  0.00     0.008 C 
HETATM   15  C25 UNL     1      52.312   2.359   4.272  1.00  0.00     0.027 C 
HETATM   16  C26 UNL     1      51.115   2.879   4.998  1.00  0.00     0.001 C 
HETATM   17  C27 UNL     1      51.236   2.796   6.491  1.00  0.00     0.008 C 
HETATM   18  C28 UNL     1      52.318   1.923   7.010  1.00  0.00     0.035 C 
HETATM   19  C29 UNL     1      52.708   0.762   6.174  1.00  0.00     0.152 C 
HETATM   20  C30 UNL     1      52.506   0.907   4.711  1.00  0.00     0.084 C 
HETATM   21  C31 UNL     1      53.619   0.273   3.893  1.00  0.00     0.049 C 
HETATM   22  C32 UNL     1      51.604   6.232   3.420  1.00  0.00     0.022 C 
HETATM   23  C33 UNL     1      51.621   6.029   0.980  1.00  0.00     0.164 A 
ENDROOT
BRANCH  23  24
HETATM   24  O4  UNL     1      52.984   6.251   1.215  1.00  0.00    -0.390 OA
ATOM     25  H4  UNL     1      53.470   5.454   1.035  1.00  0.00     0.210 HD
ENDBRANCH  23  24
BRANCH   1  26
HETATM   26  O1  UNL     1      48.312  10.460   1.050  1.00  0.00    -0.351 OA
BRANCH  26  27
HETATM   27  C10 UNL     1      47.363  10.515   2.079  1.00  0.00     0.177 C 
BRANCH  27  28
HETATM   28  C9  UNL     1      46.904  11.944   2.334  1.00  0.00     0.047 C 
BRANCH  28  29
HETATM   29  C8  UNL     1      46.724  12.714   1.081  1.00  0.00     0.129 C 
BRANCH  29  30
HETATM   30  N3  UNL     1      45.313  12.910   0.816  1.00  0.00    -0.371 N 
BRANCH  30  31
HETATM   31  C5  UNL     1      44.642  13.745   1.690  1.00  0.00     0.093 C 
BRANCH  31  32
HETATM   32  C4  UNL     1      45.008  15.194   1.553  1.00  0.00     0.317 C 
BRANCH  32  33
HETATM   33  N2  UNL     1      44.804  15.922   2.751  1.00  0.00     0.096 N 
HETATM   34  C3  UNL     1      45.175  17.285   2.554  1.00  0.00     0.303 C 
HETATM   35  C2  UNL     1      46.288  17.642   3.513  1.00  0.00     0.302 C 
HETATM   36  N1  UNL     1      47.334  16.663   3.417  1.00  0.00     0.087 N 
HETATM   37  C1  UNL     1      48.470  17.144   4.194  1.00  0.00     0.310 C 
HETATM   38  C35 UNL     1      46.907  15.352   3.795  1.00  0.00     0.302 C 
HETATM   39  C34 UNL     1      45.399  15.275   3.878  1.00  0.00     0.303 C 
ENDBRANCH  32  33
ENDBRANCH  31  32
ENDBRANCH  30  31
BRANCH  30  40
HETATM   40  C6  UNL     1      44.923  12.622  -0.486  1.00  0.00     0.078 C 
BRANCH  40  41
HETATM   41  C7  UNL     1      45.226  11.230  -1.003  1.00  0.00     0.159 C 
HETATM   42 CL1  UNL     1      44.396  10.007   0.022  1.00  0.00    -0.125 Cl
ENDBRANCH  40  41
ENDBRANCH  30  40
ENDBRANCH  29  30
ENDBRANCH  28  29
ENDBRANCH  27  28
ENDBRANCH  26  27
ENDBRANCH   1  26
BRANCH  20  43
HETATM   43  O3  UNL     1      51.328   0.247   4.341  1.00  0.00    -0.387 OA
ATOM     44  H3  UNL     1      51.508  -0.677   4.464  1.00  0.00     0.210 HD
ENDBRANCH  20  43
BRANCH  19  45
HETATM   45  O2  UNL     1      54.057   0.472   6.499  1.00  0.00    -0.393 OA
ATOM     46  H2  UNL     1      54.084  -0.450   6.729  1.00  0.00     0.210 HD
ENDBRANCH  19  45
TORSDOF 13
ENDMDL
MODEL 4
REMARK VINA RESULT: -7.407956630      1.955      3.290
REMARK  13 active torsions:
REMARK  status: ('A' for Active; 'I' for Inactive)
REMARK    1  A    between atoms: N2_5  and  C4_6 
REMARK    2  A    between atoms: C4_6  and  C5_7 
REMARK    3  A    between atoms: C5_7  and  N3_8 
REMARK    4  A    between atoms: N3_8  and  C6_9 
REMARK    5  A    between atoms: N3_8  and  C8_12 
REMARK    6  A    between atoms: C6_9  and  C7_10 
REMARK    7  A    between atoms: C8_12  and  C9_13 
REMARK    8  A    between atoms: C9_13  and  C10_14 
REMARK    9  A    between atoms: C10_14  and  O1_15 
REMARK   10  A    between atoms: O1_15  and  C11_16 
REMARK   11  A    between atoms: C29_34  and  O2_35 
REMARK   12  A    between atoms: C30_37  and  O3_39 
REMARK   13  A    between atoms: C33_42  and  O4_43 
ROOT
HETATM    1  C11 UNL     1      48.592  10.244   0.158  1.00  0.00     0.069 A 
HETATM    2  C12 UNL     1      47.668  10.714   1.073  1.00  0.00     0.037 A 
HETATM    3  C13 UNL     1      47.568  10.125   2.300  1.00  0.00     0.013 A 
HETATM    4  C14 UNL     1      48.385   9.039   2.675  1.00  0.00    -0.021 A 
HETATM    5  C15 UNL     1      49.278   8.585   1.792  1.00  0.00    -0.035 A 
HETATM    6  C16 UNL     1      49.372   9.206   0.520  1.00  0.00     0.045 A 
HETATM    7  C17 UNL     1      49.764   7.560   2.696  1.00  0.00     0.018 A 
HETATM    8  C18 UNL     1      51.175   7.732   3.148  1.00  0.00     0.018 C 
HETATM    9  C19 UNL     1      52.117   6.621   2.996  1.00  0.00     0.011 C 
HETATM   10  C20 UNL     1      51.571   5.229   2.938  1.00  0.00    -0.036 C 
HETATM   11  C21 UNL     1      51.753   4.757   1.507  1.00  0.00     0.016 C 
HETATM   12  C22 UNL     1      50.120   5.276   3.327  1.00  0.00    -0.005 C 
HETATM   13  C23 UNL     1      49.526   3.936   3.577  1.00  0.00     0.006 C 
HETATM   14  C24 UNL     1      50.068   3.511   4.952  1.00  0.00     0.008 C 
HETATM   15  C25 UNL     1      51.420   4.103   5.168  1.00  0.00     0.027 C 
HETATM   16  C26 UNL     1      52.242   4.276   3.934  1.00  0.00     0.001 C 
HETATM   17  C27 UNL     1      52.665   2.979   3.308  1.00  0.00     0.008 C 
HETATM   18  C28 UNL     1      52.524   1.769   4.156  1.00  0.00     0.035 C 
HETATM   19  C29 UNL     1      52.647   1.955   5.622  1.00  0.00     0.152 C 
HETATM   20  C30 UNL     1      52.258   3.285   6.153  1.00  0.00     0.084 C 
HETATM   21  C31 UNL     1      51.537   3.203   7.488  1.00  0.00     0.049 C 
HETATM   22  C32 UNL     1      49.430   6.127   2.310  1.00  0.00     0.022 C 
HETATM   23  C33 UNL     1      48.775   8.048   3.679  1.00  0.00     0.164 A 
ENDROOT
BRANCH  23  24
HETATM   24  O4  UNL     1      47.696   7.191   3.930  1.00  0.00    -0.390 OA
ATOM     25  H4  UNL     1      47.517   6.671   3.155  1.00  0.00     0.210 HD
ENDBRANCH  23  24
BRANCH   1  26
HETATM   26  O1  UNL     1      48.700  10.838  -1.096  1.00  0.00    -0.351 OA
BRANCH  26  27
HETATM   27  C10 UNL     1      48.293  12.149  -1.370  1.00  0.00     0.177 C 
BRANCH  27  28
HETATM   28  C9  UNL     1      47.036  12.171  -2.229  1.00  0.00     0.047 C 
BRANCH  28  29
HETATM   29  C8  UNL     1      46.008  13.102  -1.706  1.00  0.00     0.129 C 
BRANCH  29  30
HETATM   30  N3  UNL     1      45.102  12.396  -0.822  1.00  0.00    -0.371 N 
BRANCH  30  31
HETATM   31  C5  UNL     1      44.589  13.130   0.231  1.00  0.00     0.093 C 
BRANCH  31  32
HETATM   32  C4  UNL     1      45.633  13.802   1.073  1.00  0.00     0.317 C 
BRANCH  32  33
HETATM   33  N2  UNL     1      45.175  14.085   2.384  1.00  0.00     0.096 N 
HETATM   34  C3  UNL     1      44.236  15.159   2.344  1.00  0.00     0.303 C 
HETATM   35  C2  UNL     1      44.756  16.307   3.178  1.00  0.00     0.302 C 
HETATM   36  N1  UNL     1      46.105  16.609   2.789  1.00  0.00     0.087 N 
HETATM   37  C1  UNL     1      46.499  17.841   3.462  1.00  0.00     0.310 C 
HETATM   38  C35 UNL     1      47.007  15.525   3.023  1.00  0.00     0.302 C 
HETATM   39  C34 UNL     1      46.257  14.244   3.305  1.00  0.00     0.303 C 
ENDBRANCH  32  33
ENDBRANCH  31  32
ENDBRANCH  30  31
BRANCH  30  40
HETATM   40  C6  UNL     1      44.522  11.261  -1.373  1.00  0.00     0.078 C 
BRANCH  40  41
HETATM   41  C7  UNL     1      44.501  10.014  -0.513  1.00  0.00     0.159 C 
HETATM   42 CL1  UNL     1      45.574   8.761  -1.230  1.00  0.00    -0.125 Cl
ENDBRANCH  40  41
ENDBRANCH  30  40
ENDBRANCH  29  30
ENDBRANCH  28  29
ENDBRANCH  27  28
ENDBRANCH  26  27
ENDBRANCH   1  26
BRANCH  20  43
HETATM   43  O3  UNL     1      53.411   4.045   6.380  1.00  0.00    -0.387 OA
ATOM     44  H3  UNL     1      54.103   3.413   6.534  1.00  0.00     0.210 HD
ENDBRANCH  20  43
BRANCH  19  45
HETATM   45  O2  UNL     1      51.905   0.905   6.220  1.00  0.00    -0.393 OA
ATOM     46  H2  UNL     1      52.535   0.357   6.673  1.00  0.00     0.210 HD
ENDBRANCH  19  45
TORSDOF 13
ENDMDL
MODEL 5
REMARK VINA RESULT: -7.400269941      3.576      9.449
REMARK  13 active torsions:
REMARK  status: ('A' for Active; 'I' for Inactive)
REMARK    1  A    between atoms: N2_5  and  C4_6 
REMARK    2  A    between atoms: C4_6  and  C5_7 
REMARK    3  A    between atoms: C5_7  and  N3_8 
REMARK    4  A    between atoms: N3_8  and  C6_9 
REMARK    5  A    between atoms: N3_8  and  C8_12 
REMARK    6  A    between atoms: C6_9  and  C7_10 
REMARK    7  A    between atoms: C8_12  and  C9_13 
REMARK    8  A    between atoms: C9_13  and  C10_14 
REMARK    9  A    between atoms: C10_14  and  O1_15 
REMARK   10  A    between atoms: O1_15  and  C11_16 
REMARK   11  A    between atoms: C29_34  and  O2_35 
REMARK   12  A    between atoms: C30_37  and  O3_39 
REMARK   13  A    between atoms: C33_42  and  O4_43 
ROOT
HETATM    1  C11 UNL     1      46.571   8.853  -2.611  1.00  0.00     0.069 A 
HETATM    2  C12 UNL     1      46.031   9.478  -3.720  1.00  0.00     0.037 A 
HETATM    3  C13 UNL     1      45.660  10.790  -3.645  1.00  0.00     0.013 A 
HETATM    4  C14 UNL     1      45.811  11.542  -2.463  1.00  0.00    -0.021 A 
HETATM    5  C15 UNL     1      46.333  10.938  -1.392  1.00  0.00    -0.035 A 
HETATM    6  C16 UNL     1      46.715   9.575  -1.482  1.00  0.00     0.045 A 
HETATM    7  C17 UNL     1      46.239  12.134  -0.577  1.00  0.00     0.018 A 
HETATM    8  C18 UNL     1      47.545  12.718  -0.154  1.00  0.00     0.018 C 
HETATM    9  C19 UNL     1      47.782  12.989   1.266  1.00  0.00     0.011 C 
HETATM   10  C20 UNL     1      46.600  13.217   2.153  1.00  0.00    -0.036 C 
HETATM   11  C21 UNL     1      46.496  11.996   3.049  1.00  0.00     0.016 C 
HETATM   12  C22 UNL     1      45.383  13.376   1.286  1.00  0.00    -0.005 C 
HETATM   13  C23 UNL     1      44.191  13.878   2.019  1.00  0.00     0.006 C 
HETATM   14  C24 UNL     1      44.458  15.377   2.232  1.00  0.00     0.008 C 
HETATM   15  C25 UNL     1      45.925  15.619   2.350  1.00  0.00     0.027 C 
HETATM   16  C26 UNL     1      46.703  14.509   2.975  1.00  0.00     0.001 C 
HETATM   17  C27 UNL     1      46.393  14.303   4.428  1.00  0.00     0.008 C 
HETATM   18  C28 UNL     1      45.664  15.406   5.102  1.00  0.00     0.035 C 
HETATM   19  C29 UNL     1      45.885  16.777   4.582  1.00  0.00     0.152 C 
HETATM   20  C30 UNL     1      46.239  16.888   3.145  1.00  0.00     0.084 C 
HETATM   21  C31 UNL     1      45.596  18.085   2.467  1.00  0.00     0.049 C 
HETATM   22  C32 UNL     1      45.213  12.089   0.546  1.00  0.00     0.022 C 
HETATM   23  C33 UNL     1      45.652  12.811  -1.752  1.00  0.00     0.164 A 
ENDROOT
BRANCH  23  24
HETATM   24  O4  UNL     1      44.290  13.123  -1.655  1.00  0.00    -0.390 OA
ATOM     25  H4  UNL     1      43.865  12.507  -1.069  1.00  0.00     0.210 HD
ENDBRANCH  23  24
BRANCH   1  26
HETATM   26  O1  UNL     1      46.951   7.515  -2.678  1.00  0.00    -0.351 OA
BRANCH  26  27
HETATM   27  C10 UNL     1      48.258   7.069  -2.451  1.00  0.00     0.177 C 
BRANCH  27  28
HETATM   28  C9  UNL     1      48.409   6.482  -1.053  1.00  0.00     0.047 C 
BRANCH  28  29
HETATM   29  C8  UNL     1      49.505   7.119  -0.287  1.00  0.00     0.129 C 
BRANCH  29  30
HETATM   30  N3  UNL     1      48.960   7.891   0.812  1.00  0.00    -0.371 N 
BRANCH  30  31
HETATM   31  C5  UNL     1      48.495   7.165   1.892  1.00  0.00     0.093 C 
BRANCH  31  32
HETATM   32  C4  UNL     1      49.536   6.302   2.542  1.00  0.00     0.317 C 
BRANCH  32  33
HETATM   33  N2  UNL     1      49.969   6.817   3.788  1.00  0.00     0.096 N 
HETATM   34  C3  UNL     1      51.240   7.447   3.633  1.00  0.00     0.303 C 
HETATM   35  C2  UNL     1      52.252   6.752   4.515  1.00  0.00     0.302 C 
HETATM   36  N1  UNL     1      52.195   5.336   4.286  1.00  0.00     0.087 N 
HETATM   37  C1  UNL     1      53.313   4.723   4.993  1.00  0.00     0.310 C 
HETATM   38  C35 UNL     1      50.930   4.766   4.629  1.00  0.00     0.302 C 
HETATM   39  C34 UNL     1      49.886   5.841   4.829  1.00  0.00     0.303 C 
ENDBRANCH  32  33
ENDBRANCH  31  32
ENDBRANCH  30  31
BRANCH  30  40
HETATM   40  C6  UNL     1      49.373   9.217   0.849  1.00  0.00     0.078 C 
BRANCH  40  41
HETATM   41  C7  UNL     1      50.614   9.574   0.056  1.00  0.00     0.159 C 
HETATM   42 CL1  UNL     1      50.155  10.536  -1.392  1.00  0.00    -0.125 Cl
ENDBRANCH  40  41
ENDBRANCH  30  40
ENDBRANCH  29  30
ENDBRANCH  28  29
ENDBRANCH  27  28
ENDBRANCH  26  27
ENDBRANCH   1  26
BRANCH  20  43
HETATM   43  O3  UNL     1      47.621  17.069   3.024  1.00  0.00    -0.387 OA
ATOM     44  H3  UNL     1      47.990  16.745   3.837  1.00  0.00     0.210 HD
ENDBRANCH  20  43
BRANCH  19  45
HETATM   45  O2  UNL     1      44.718  17.517   4.901  1.00  0.00    -0.393 OA
ATOM     46  H2  UNL     1      45.002  18.411   5.052  1.00  0.00     0.210 HD
ENDBRANCH  19  45
TORSDOF 13
ENDMDL
