MODEL 1
REMARK VINA RESULT: -7.425564681      0.000      0.000
REMARK  9 active torsions:
REMARK  status: ('A' for Active; 'I' for Inactive)
REMARK    1  A    between atoms: C2_2  and  C3_3 
REMARK    2  A    between atoms: C3_3  and  C4_4 
REMARK    3  A    between atoms: C5_7  and  C6_8 
REMARK    4  A    between atoms: C6_8  and  C7_9 
REMARK    5  A    between atoms: C8_10  and  C9_11 
REMARK    6  A    between atoms: C9_11  and  C10_12 
REMARK    7  A    between atoms: C10_12  and  O1_13 
REMARK    8  A    between atoms: N3_18  and  C12_19 
REMARK    9  A    between atoms: C14_23  and  C15_24 
ROOT
HETATM    1  C4  UNL     1      48.530  11.183   0.937  1.00  0.00     0.038 A 
HETATM    2  N1  UNL     1      48.997  10.004   1.363  1.00  0.00    -0.347 N 
ATOM      3  H1  UNL     1      49.845   9.558   1.014  1.00  0.00     0.167 HD
HETATM    4  C5  UNL     1      48.204   9.487   2.307  1.00  0.00     0.087 A 
HETATM    5  N4  UNL     1      47.223  10.389   2.455  1.00  0.00    -0.343 N 
ATOM      6  H4  UNL     1      46.452  10.281   3.114  1.00  0.00     0.167 HD
HETATM    7  C14 UNL     1      47.365  11.457   1.638  1.00  0.00     0.067 A 
ENDROOT
BRANCH   7   8
HETATM    8  C15 UNL     1      46.570  12.664   1.537  1.00  0.00     0.002 A 
HETATM    9  C16 UNL     1      45.772  12.800   0.402  1.00  0.00     0.023 A 
HETATM   10  C17 UNL     1      45.032  13.905   0.153  1.00  0.00    -0.037 A 
HETATM   11  C18 UNL     1      44.181  14.038  -1.071  1.00  0.00     0.050 C 
HETATM   12  C19 UNL     1      45.094  14.931   1.102  1.00  0.00     0.067 A 
HETATM   13 CL1  UNL     1      44.138  16.355   0.758  1.00  0.00    -0.081 Cl
HETATM   14  C20 UNL     1      45.854  14.879   2.248  1.00  0.00     0.065 A 
HETATM   15  C21 UNL     1      46.607  13.690   2.436  1.00  0.00    -0.017 A 
HETATM   16  N6  UNL     1      45.832  15.941   3.198  1.00  0.00    -0.340 N 
HETATM   17  C22 UNL     1      47.536  13.629   3.569  1.00  0.00     0.049 C 
HETATM   18  C23 UNL     1      46.858  14.277   4.788  1.00  0.00     0.081 C 
HETATM   19  C24 UNL     1      46.634  15.729   4.386  1.00  0.00     0.077 C 
HETATM   20  N5  UNL     1      47.117  16.670   5.037  1.00  0.00    -0.389 N 
ATOM     21  H52 UNL     1      47.682  16.521   5.873  1.00  0.00     0.157 HD
ATOM     22  H51 UNL     1      46.968  17.643   4.769  1.00  0.00     0.157 HD
HETATM   23  C25 UNL     1      45.068  17.114   3.000  1.00  0.00     0.158 C 
ENDBRANCH   7   8
BRANCH   1  24
HETATM   24  C3  UNL     1      49.196  12.022  -0.062  1.00  0.00     0.059 C 
BRANCH  24  25
HETATM   25  C2  UNL     1      48.839  11.563  -1.490  1.00  0.00     0.002 C 
HETATM   26  C1  UNL     1      48.413  12.810  -2.236  1.00  0.00     0.005 C 
ENDBRANCH  24  25
ENDBRANCH   1  24
BRANCH   4  27
HETATM   27  C6  UNL     1      48.358   8.187   2.999  1.00  0.00     0.136 C 
BRANCH  27  28
HETATM   28  C7  UNL     1      49.521   7.415   2.595  1.00  0.00     0.043 A 
HETATM   29  C8  UNL     1      50.698   7.210   3.278  1.00  0.00    -0.015 A 
HETATM   30  C11 UNL     1      51.470   6.394   2.479  1.00  0.00     0.116 A 
HETATM   31  N2  UNL     1      50.769   6.128   1.369  1.00  0.00    -0.309 N 
HETATM   32  N3  UNL     1      49.581   6.737   1.417  1.00  0.00    -0.296 N 
ATOM     33  H2  UNL     1      51.095   5.545   0.598  1.00  0.00     0.186 HD
BRANCH  29  34
HETATM   34  C9  UNL     1      51.089   7.750   4.627  1.00  0.00     0.068 C 
BRANCH  34  35
HETATM   35  C10 UNL     1      52.599   7.740   4.738  1.00  0.00     0.168 C 
BRANCH  35  36
HETATM   36  O1  UNL     1      53.111   8.951   5.190  1.00  0.00    -0.401 OA
ATOM     37  H1  UNL     1      53.530   9.452   4.501  1.00  0.00     0.209 HD
ENDBRANCH  35  36
ENDBRANCH  34  35
ENDBRANCH  29  34
BRANCH  32  38
HETATM   38  C12 UNL     1      48.623   6.618   0.346  1.00  0.00     0.144 C 
HETATM   39  C13 UNL     1      49.081   7.276  -0.911  1.00  0.00     0.028 C 
ENDBRANCH  32  38
ENDBRANCH  27  28
ENDBRANCH   4  27
TORSDOF 9
ENDMDL
MODEL 2
REMARK VINA RESULT: -7.358840137      3.655      8.008
REMARK  9 active torsions:
REMARK  status: ('A' for Active; 'I' for Inactive)
REMARK    1  A    between atoms: C2_2  and  C3_3 
REMARK    2  A    between atoms: C3_3  and  C4_4 
REMARK    3  A    between atoms: C5_7  and  C6_8 
REMARK    4  A    between atoms: C6_8  and  C7_9 
REMARK    5  A    between atoms: C8_10  and  C9_11 
REMARK    6  A    between atoms: C9_11  and  C10_12 
REMARK    7  A    between atoms: C10_12  and  O1_13 
REMARK    8  A    between atoms: N3_18  and  C12_19 
REMARK    9  A    between atoms: C14_23  and  C15_24 
ROOT
HETATM    1  C4  UNL     1      47.731  11.523   1.747  1.00  0.00     0.038 A 
HETATM    2  N1  UNL     1      47.724  12.230   2.883  1.00  0.00    -0.347 N 
ATOM      3  H1  UNL     1      48.275  11.999   3.710  1.00  0.00     0.167 HD
HETATM    4  C5  UNL     1      46.901  13.279   2.790  1.00  0.00     0.087 A 
HETATM    5  N4  UNL     1      46.392  13.201   1.552  1.00  0.00    -0.343 N 
ATOM      6  H4  UNL     1      45.722  13.870   1.174  1.00  0.00     0.167 HD
HETATM    7  C14 UNL     1      46.863  12.140   0.857  1.00  0.00     0.067 A 
ENDROOT
BRANCH   7   8
HETATM    8  C15 UNL     1      46.618  11.742  -0.514  1.00  0.00     0.002 A 
HETATM    9  C16 UNL     1      47.396  12.353  -1.497  1.00  0.00     0.023 A 
HETATM   10  C17 UNL     1      47.225  12.120  -2.818  1.00  0.00    -0.037 A 
HETATM   11  C18 UNL     1      48.066  12.787  -3.862  1.00  0.00     0.050 C 
HETATM   12  C19 UNL     1      46.217  11.218  -3.173  1.00  0.00     0.067 A 
HETATM   13 CL1  UNL     1      46.005  10.937  -4.886  1.00  0.00    -0.081 Cl
HETATM   14  C20 UNL     1      45.406  10.570  -2.270  1.00  0.00     0.065 A 
HETATM   15  C21 UNL     1      45.642  10.871  -0.902  1.00  0.00    -0.017 A 
HETATM   16  N6  UNL     1      44.431   9.623  -2.698  1.00  0.00    -0.340 N 
HETATM   17  C22 UNL     1      44.725  10.315   0.099  1.00  0.00     0.049 C 
HETATM   18  C23 UNL     1      44.399   8.865  -0.295  1.00  0.00     0.081 C 
HETATM   19  C24 UNL     1      43.687   8.974  -1.637  1.00  0.00     0.077 C 
HETATM   20  N5  UNL     1      42.536   8.538  -1.806  1.00  0.00    -0.389 N 
ATOM     21  H52 UNL     1      42.012   8.082  -1.059  1.00  0.00     0.157 HD
ATOM     22  H51 UNL     1      42.059   8.611  -2.704  1.00  0.00     0.157 HD
HETATM   23  C25 UNL     1      44.216   9.329  -4.064  1.00  0.00     0.158 C 
ENDBRANCH   7   8
BRANCH   1  24
HETATM   24  C3  UNL     1      48.563  10.340   1.516  1.00  0.00     0.059 C 
BRANCH  24  25
HETATM   25  C2  UNL     1      48.153   9.188   2.455  1.00  0.00     0.002 C 
HETATM   26  C1  UNL     1      47.510   8.138   1.573  1.00  0.00     0.005 C 
ENDBRANCH  24  25
ENDBRANCH   1  24
BRANCH   4  27
HETATM   27  C6  UNL     1      46.591  14.276   3.840  1.00  0.00     0.136 C 
BRANCH  27  28
HETATM   28  C7  UNL     1      46.530  15.652   3.375  1.00  0.00     0.043 A 
HETATM   29  C8  UNL     1      45.538  16.270   2.648  1.00  0.00    -0.015 A 
HETATM   30  C11 UNL     1      45.944  17.578   2.478  1.00  0.00     0.116 A 
HETATM   31  N2  UNL     1      47.130  17.718   3.085  1.00  0.00    -0.309 N 
HETATM   32  N3  UNL     1      47.506  16.562   3.637  1.00  0.00    -0.296 N 
ATOM     33  H2  UNL     1      47.669  18.584   3.120  1.00  0.00     0.186 HD
BRANCH  29  34
HETATM   34  C9  UNL     1      44.257  15.671   2.136  1.00  0.00     0.068 C 
BRANCH  34  35
HETATM   35  C10 UNL     1      44.169  15.909   0.643  1.00  0.00     0.168 C 
BRANCH  35  36
HETATM   36  O1  UNL     1      44.697  14.859  -0.099  1.00  0.00    -0.401 OA
ATOM     37  H1  UNL     1      45.628  14.739   0.046  1.00  0.00     0.209 HD
ENDBRANCH  35  36
ENDBRANCH  34  35
ENDBRANCH  29  34
BRANCH  32  38
HETATM   38  C12 UNL     1      48.749  16.432   4.357  1.00  0.00     0.144 C 
HETATM   39  C13 UNL     1      49.026  17.600   5.240  1.00  0.00     0.028 C 
ENDBRANCH  32  38
ENDBRANCH  27  28
ENDBRANCH   4  27
TORSDOF 9
ENDMDL
MODEL 3
REMARK VINA RESULT: -7.344041304      3.543      7.650
REMARK  9 active torsions:
REMARK  status: ('A' for Active; 'I' for Inactive)
REMARK    1  A    between atoms: C2_2  and  C3_3 
REMARK    2  A    between atoms: C3_3  and  C4_4 
REMARK    3  A    between atoms: C5_7  and  C6_8 
REMARK    4  A    between atoms: C6_8  and  C7_9 
REMARK    5  A    between atoms: C8_10  and  C9_11 
REMARK    6  A    between atoms: C9_11  and  C10_12 
REMARK    7  A    between atoms: C10_12  and  O1_13 
REMARK    8  A    between atoms: N3_18  and  C12_19 
REMARK    9  A    between atoms: C14_23  and  C15_24 
ROOT
HETATM    1  C4  UNL     1      47.804  11.328   1.866  1.00  0.00     0.038 A 
HETATM    2  N1  UNL     1      47.787  12.054   2.990  1.00  0.00    -0.347 N 
ATOM      3  H1  UNL     1      48.300  11.815   3.839  1.00  0.00     0.167 HD
HETATM    4  C5  UNL     1      47.011  13.133   2.853  1.00  0.00     0.087 A 
HETATM    5  N4  UNL     1      46.541  13.055   1.599  1.00  0.00    -0.343 N 
ATOM      6  H4  UNL     1      45.912  13.744   1.189  1.00  0.00     0.167 HD
HETATM    7  C14 UNL     1      46.992  11.965   0.938  1.00  0.00     0.067 A 
ENDROOT
BRANCH   7   8
HETATM    8  C15 UNL     1      46.778  11.554  -0.435  1.00  0.00     0.002 A 
HETATM    9  C16 UNL     1      47.628  12.098  -1.396  1.00  0.00     0.023 A 
HETATM   10  C17 UNL     1      47.496  11.850  -2.719  1.00  0.00    -0.037 A 
HETATM   11  C18 UNL     1      48.415  12.444  -3.740  1.00  0.00     0.050 C 
HETATM   12  C19 UNL     1      46.451  11.001  -3.098  1.00  0.00     0.067 A 
HETATM   13 CL1  UNL     1      46.290  10.698  -4.813  1.00  0.00    -0.081 Cl
HETATM   14  C20 UNL     1      45.567  10.421  -2.217  1.00  0.00     0.065 A 
HETATM   15  C21 UNL     1      45.767  10.734  -0.846  1.00  0.00    -0.017 A 
HETATM   16  N6  UNL     1      44.555   9.524  -2.667  1.00  0.00    -0.340 N 
HETATM   17  C22 UNL     1      44.781  10.254   0.127  1.00  0.00     0.049 C 
HETATM   18  C23 UNL     1      44.384   8.818  -0.254  1.00  0.00     0.081 C 
HETATM   19  C24 UNL     1      43.733   8.942  -1.626  1.00  0.00     0.077 C 
HETATM   20  N5  UNL     1      42.565   8.571  -1.832  1.00  0.00    -0.389 N 
ATOM     21  H52 UNL     1      41.986   8.162  -1.100  1.00  0.00     0.157 HD
ATOM     22  H51 UNL     1      42.129   8.654  -2.750  1.00  0.00     0.157 HD
HETATM   23  C25 UNL     1      44.377   9.215  -4.035  1.00  0.00     0.158 C 
ENDBRANCH   7   8
BRANCH   1  24
HETATM   24  C3  UNL     1      48.595  10.109   1.682  1.00  0.00     0.059 C 
BRANCH  24  25
HETATM   25  C2  UNL     1      48.077   8.976   2.590  1.00  0.00     0.002 C 
HETATM   26  C1  UNL     1      47.557   7.900   1.661  1.00  0.00     0.005 C 
ENDBRANCH  24  25
ENDBRANCH   1  24
BRANCH   4  27
HETATM   27  C6  UNL     1      46.706  14.159   3.877  1.00  0.00     0.136 C 
BRANCH  27  28
HETATM   28  C7  UNL     1      46.577  15.513   3.363  1.00  0.00     0.043 A 
HETATM   29  C8  UNL     1      47.422  16.584   3.540  1.00  0.00    -0.015 A 
HETATM   30  C11 UNL     1      46.867  17.633   2.838  1.00  0.00     0.116 A 
HETATM   31  N2  UNL     1      45.738  17.190   2.268  1.00  0.00    -0.309 N 
HETATM   32  N3  UNL     1      45.542  15.905   2.573  1.00  0.00    -0.296 N 
ATOM     33  H2  UNL     1      45.118  17.753   1.686  1.00  0.00     0.186 HD
BRANCH  29  34
HETATM   34  C9  UNL     1      48.702  16.630   4.329  1.00  0.00     0.068 C 
BRANCH  34  35
HETATM   35  C10 UNL     1      48.572  17.681   5.412  1.00  0.00     0.168 C 
BRANCH  35  36
HETATM   36  O1  UNL     1      47.360  17.605   6.089  1.00  0.00    -0.401 OA
ATOM     37  H1  UNL     1      46.772  16.958   5.718  1.00  0.00     0.209 HD
ENDBRANCH  35  36
ENDBRANCH  34  35
ENDBRANCH  29  34
BRANCH  32  38
HETATM   38  C12 UNL     1      44.396  15.176   2.087  1.00  0.00     0.144 C 
HETATM   39  C13 UNL     1      44.351  15.102   0.599  1.00  0.00     0.028 C 
ENDBRANCH  32  38
ENDBRANCH  27  28
ENDBRANCH   4  27
TORSDOF 9
ENDMDL
MODEL 4
REMARK VINA RESULT: -7.334088425      5.247      9.541
REMARK  9 active torsions:
REMARK  status: ('A' for Active; 'I' for Inactive)
REMARK    1  A    between atoms: C2_2  and  C3_3 
REMARK    2  A    between atoms: C3_3  and  C4_4 
REMARK    3  A    between atoms: C5_7  and  C6_8 
REMARK    4  A    between atoms: C6_8  and  C7_9 
REMARK    5  A    between atoms: C8_10  and  C9_11 
REMARK    6  A    between atoms: C9_11  and  C10_12 
REMARK    7  A    between atoms: C10_12  and  O1_13 
REMARK    8  A    between atoms: N3_18  and  C12_19 
REMARK    9  A    between atoms: C14_23  and  C15_24 
ROOT
HETATM    1  C4  UNL     1      44.123  17.007  -2.031  1.00  0.00     0.038 A 
HETATM    2  N1  UNL     1      43.272  17.026  -3.065  1.00  0.00    -0.347 N 
ATOM      3  H1  UNL     1      43.347  17.657  -3.862  1.00  0.00     0.167 HD
HETATM    4  C5  UNL     1      42.312  16.109  -2.913  1.00  0.00     0.087 A 
HETATM    5  N4  UNL     1      42.595  15.514  -1.744  1.00  0.00    -0.343 N 
ATOM      6  H4  UNL     1      42.037  14.759  -1.346  1.00  0.00     0.167 HD
HETATM    7  C14 UNL     1      43.698  16.023  -1.150  1.00  0.00     0.067 A 
ENDROOT
BRANCH   7   8
HETATM    8  C15 UNL     1      44.368  15.620   0.070  1.00  0.00     0.002 A 
HETATM    9  C16 UNL     1      44.448  16.568   1.088  1.00  0.00     0.023 A 
HETATM   10  C17 UNL     1      45.102  16.343   2.251  1.00  0.00    -0.037 A 
HETATM   11  C18 UNL     1      45.182  17.372   3.335  1.00  0.00     0.050 C 
HETATM   12  C19 UNL     1      45.707  15.091   2.401  1.00  0.00     0.067 A 
HETATM   13 CL1  UNL     1      46.556  14.823   3.906  1.00  0.00    -0.081 Cl
HETATM   14  C20 UNL     1      45.676  14.098   1.448  1.00  0.00     0.065 A 
HETATM   15  C21 UNL     1      44.976  14.412   0.252  1.00  0.00    -0.017 A 
HETATM   16  N6  UNL     1      46.272  12.826   1.686  1.00  0.00    -0.340 N 
HETATM   17  C22 UNL     1      45.019  13.446  -0.851  1.00  0.00     0.049 C 
HETATM   18  C23 UNL     1      44.886  12.032  -0.262  1.00  0.00     0.081 C 
HETATM   19  C24 UNL     1      46.114  11.857   0.621  1.00  0.00     0.077 C 
HETATM   20  N5  UNL     1      46.931  10.940   0.431  1.00  0.00    -0.389 N 
ATOM     21  H52 UNL     1      46.821  10.258  -0.318  1.00  0.00     0.157 HD
ATOM     22  H51 UNL     1      47.754  10.823   1.023  1.00  0.00     0.157 HD
HETATM   23  C25 UNL     1      46.957  12.528   2.886  1.00  0.00     0.158 C 
ENDBRANCH   7   8
BRANCH   1  24
HETATM   24  C3  UNL     1      45.307  17.862  -1.921  1.00  0.00     0.059 C 
BRANCH  24  25
HETATM   25  C2  UNL     1      45.275  18.984  -2.977  1.00  0.00     0.002 C 
HETATM   26  C1  UNL     1      46.651  19.004  -3.608  1.00  0.00     0.005 C 
ENDBRANCH  24  25
ENDBRANCH   1  24
BRANCH   4  27
HETATM   27  C6  UNL     1      41.169  15.844  -3.816  1.00  0.00     0.136 C 
BRANCH  27  28
HETATM   28  C7  UNL     1      40.362  14.690  -3.455  1.00  0.00     0.043 A 
HETATM   29  C8  UNL     1      39.192  14.652  -2.732  1.00  0.00    -0.015 A 
HETATM   30  C11 UNL     1      38.814  13.326  -2.681  1.00  0.00     0.116 A 
HETATM   31  N2  UNL     1      39.730  12.615  -3.353  1.00  0.00    -0.309 N 
HETATM   32  N3  UNL     1      40.680  13.423  -3.832  1.00  0.00    -0.296 N 
ATOM     33  H2  UNL     1      39.706  11.603  -3.479  1.00  0.00     0.186 HD
BRANCH  29  34
HETATM   34  C9  UNL     1      38.448  15.805  -2.115  1.00  0.00     0.068 C 
BRANCH  34  35
HETATM   35  C10 UNL     1      37.877  15.363  -0.785  1.00  0.00     0.168 C 
BRANCH  35  36
HETATM   36  O1  UNL     1      38.401  16.075   0.288  1.00  0.00    -0.401 OA
ATOM     37  H1  UNL     1      39.339  15.962   0.380  1.00  0.00     0.209 HD
ENDBRANCH  35  36
ENDBRANCH  34  35
ENDBRANCH  29  34
BRANCH  32  38
HETATM   38  C12 UNL     1      41.792  12.916  -4.598  1.00  0.00     0.144 C 
HETATM   39  C13 UNL     1      42.900  12.412  -3.738  1.00  0.00     0.028 C 
ENDBRANCH  32  38
ENDBRANCH  27  28
ENDBRANCH   4  27
TORSDOF 9
ENDMDL
MODEL 5
REMARK VINA RESULT: -7.264068426      3.141      8.002
REMARK  9 active torsions:
REMARK  status: ('A' for Active; 'I' for Inactive)
REMARK    1  A    between atoms: C2_2  and  C3_3 
REMARK    2  A    between atoms: C3_3  and  C4_4 
REMARK    3  A    between atoms: C5_7  and  C6_8 
REMARK    4  A    between atoms: C6_8  and  C7_9 
REMARK    5  A    between atoms: C8_10  and  C9_11 
REMARK    6  A    between atoms: C9_11  and  C10_12 
REMARK    7  A    between atoms: C10_12  and  O1_13 
REMARK    8  A    between atoms: N3_18  and  C12_19 
REMARK    9  A    between atoms: C14_23  and  C15_24 
ROOT
HETATM    1  C4  UNL     1      46.234  12.189   0.236  1.00  0.00     0.038 A 
HETATM    2  N1  UNL     1      45.385  12.967   0.919  1.00  0.00    -0.347 N 
ATOM      3  H1  UNL     1      44.433  13.181   0.623  1.00  0.00     0.167 HD
HETATM    4  C5  UNL     1      45.951  13.426   2.039  1.00  0.00     0.087 A 
HETATM    5  N4  UNL     1      47.187  12.905   2.032  1.00  0.00    -0.343 N 
ATOM      6  H4  UNL     1      47.874  13.072   2.766  1.00  0.00     0.167 HD
HETATM    7  C14 UNL     1      47.424  12.134   0.946  1.00  0.00     0.067 A 
ENDROOT
BRANCH   7   8
HETATM    8  C15 UNL     1      48.591  11.348   0.599  1.00  0.00     0.002 A 
HETATM    9  C16 UNL     1      49.459  11.892  -0.346  1.00  0.00     0.023 A 
HETATM   10  C17 UNL     1      50.549  11.235  -0.806  1.00  0.00    -0.037 A 
HETATM   11  C18 UNL     1      51.470  11.830  -1.824  1.00  0.00     0.050 C 
HETATM   12  C19 UNL     1      50.782   9.959  -0.282  1.00  0.00     0.067 A 
HETATM   13 CL1  UNL     1      52.190   9.122  -0.895  1.00  0.00    -0.081 Cl
HETATM   14  C20 UNL     1      49.978   9.349   0.654  1.00  0.00     0.065 A 
HETATM   15  C21 UNL     1      48.851  10.099   1.083  1.00  0.00    -0.017 A 
HETATM   16  N6  UNL     1      50.303   8.066   1.183  1.00  0.00    -0.340 N 
HETATM   17  C22 UNL     1      47.886   9.451   1.978  1.00  0.00     0.049 C 
HETATM   18  C23 UNL     1      48.666   8.626   3.015  1.00  0.00     0.081 C 
HETATM   19  C24 UNL     1      49.401   7.568   2.203  1.00  0.00     0.077 C 
HETATM   20  N5  UNL     1      49.231   6.354   2.401  1.00  0.00    -0.389 N 
ATOM     21  H52 UNL     1      48.596   6.003   3.118  1.00  0.00     0.157 HD
ATOM     22  H51 UNL     1      49.723   5.645   1.857  1.00  0.00     0.157 HD
HETATM   23  C25 UNL     1      51.435   7.338   0.752  1.00  0.00     0.158 C 
ENDBRANCH   7   8
BRANCH   1  24
HETATM   24  C3  UNL     1      45.899  11.500  -1.013  1.00  0.00     0.059 C 
BRANCH  24  25
HETATM   25  C2  UNL     1      44.565  10.740  -0.880  1.00  0.00     0.002 C 
HETATM   26  C1  UNL     1      44.864   9.510  -0.048  1.00  0.00     0.005 C 
ENDBRANCH  24  25
ENDBRANCH   1  24
BRANCH   4  27
HETATM   27  C6  UNL     1      45.355  14.341   3.039  1.00  0.00     0.136 C 
BRANCH  27  28
HETATM   28  C7  UNL     1      45.745  15.735   2.898  1.00  0.00     0.043 A 
HETATM   29  C8  UNL     1      46.795  16.398   3.490  1.00  0.00    -0.015 A 
HETATM   30  C11 UNL     1      46.747  17.694   3.020  1.00  0.00     0.116 A 
HETATM   31  N2  UNL     1      45.707  17.784   2.181  1.00  0.00    -0.309 N 
HETATM   32  N3  UNL     1      45.083  16.606   2.091  1.00  0.00    -0.296 N 
ATOM     33  H2  UNL     1      45.430  18.630   1.683  1.00  0.00     0.186 HD
BRANCH  29  34
HETATM   34  C9  UNL     1      47.810  15.847   4.454  1.00  0.00     0.068 C 
BRANCH  34  35
HETATM   35  C10 UNL     1      49.033  16.740   4.440  1.00  0.00     0.168 C 
BRANCH  35  36
HETATM   36  O1  UNL     1      49.061  17.629   5.508  1.00  0.00    -0.401 OA
ATOM     37  H1  UNL     1      49.134  18.534   5.230  1.00  0.00     0.209 HD
ENDBRANCH  35  36
ENDBRANCH  34  35
ENDBRANCH  29  34
BRANCH  32  38
HETATM   38  C12 UNL     1      43.926  16.422   1.251  1.00  0.00     0.144 C 
HETATM   39  C13 UNL     1      44.278  16.278  -0.190  1.00  0.00     0.028 C 
ENDBRANCH  32  38
ENDBRANCH  27  28
ENDBRANCH   4  27
TORSDOF 9
ENDMDL
