MODEL 1
REMARK VINA RESULT: -7.485281739      0.000      0.000
REMARK  11 active torsions:
REMARK  status: ('A' for Active; 'I' for Inactive)
REMARK    1  A    between atoms: C2_2  and  O1_4 
REMARK    2  A    between atoms: O1_4  and  C3_5 
REMARK    3  A    between atoms: C13_16  and  C14_17 
REMARK    4  A    between atoms: C14_17  and  O3_18 
REMARK    5  A    between atoms: C15_20  and  C16_21 
REMARK    6  A    between atoms: C17_22  and  C18_23 
REMARK    7  A    between atoms: C18_23  and  C20_25 
REMARK    8  A    between atoms: C18_23  and  C21_28 
REMARK    9  A    between atoms: C20_25  and  O4_26 
REMARK   10  A    between atoms: C21_28  and  C22_29 
REMARK   11  A    between atoms: C22_29  and  O5_30 
ROOT
HETATM    1  C3  UNL     1      50.645   3.622   2.439  1.00  0.00     0.163 C 
HETATM    2  C4  UNL     1      50.478   4.656   3.485  1.00  0.00     0.036 C 
HETATM    3  C5  UNL     1      50.605   6.094   2.954  1.00  0.00     0.017 C 
HETATM    4  C6  UNL     1      49.513   6.320   1.963  1.00  0.00    -0.004 C 
HETATM    5  C7  UNL     1      48.209   5.806   2.733  1.00  0.00     0.021 C 
HETATM    6  C8  UNL     1      49.720   5.361   0.863  1.00  0.00    -0.035 C 
HETATM    7  C9  UNL     1      49.244   5.607  -0.342  1.00  0.00     0.009 C 
HETATM    8  C10 UNL     1      48.567   6.860  -0.586  1.00  0.00     0.033 C 
HETATM    9  C11 UNL     1      48.463   7.806   0.316  1.00  0.00     0.055 C 
HETATM   10  O2  UNL     1      47.702   8.875  -0.191  1.00  0.00    -0.354 OA
HETATM   11  C12 UNL     1      46.895   9.743   0.645  1.00  0.00     0.186 C 
HETATM   12  C13 UNL     1      47.841  10.521   1.471  1.00  0.00     0.067 C 
HETATM   13  C23 UNL     1      48.367   9.861   2.708  1.00  0.00     0.014 C 
HETATM   14  C24 UNL     1      48.355   8.363   2.705  1.00  0.00     0.018 C 
HETATM   15  C25 UNL     1      49.131   7.698   1.637  1.00  0.00     0.016 C 
HETATM   16  C26 UNL     1      50.456   8.531   1.455  1.00  0.00     0.023 C 
HETATM   17  C27 UNL     1      50.531   4.133   1.008  1.00  0.00     0.229 C 
HETATM   18  F2  UNL     1      50.060   3.197   0.129  1.00  0.00    -0.242 F 
ENDROOT
BRANCH  12  19
HETATM   19  C14 UNL     1      47.360  11.898   1.692  1.00  0.00     0.057 C 
HETATM   20  C15 UNL     1      47.535  12.480   2.904  1.00  0.00     0.097 C 
BRANCH  19  21
HETATM   21  O3  UNL     1      46.729  12.644   0.718  1.00  0.00    -0.364 OA
ATOM     22  H3  UNL     1      47.197  13.180   0.090  1.00  0.00     0.217 HD
ENDBRANCH  19  21
BRANCH  20  23
HETATM   23  C16 UNL     1      47.090  13.769   3.146  1.00  0.00    -0.075 C 
HETATM   24  C17 UNL     1      46.704  14.890   3.357  1.00  0.00    -0.090 C 
BRANCH  24  25
HETATM   25  C18 UNL     1      46.238  16.217   3.607  1.00  0.00     0.043 C 
HETATM   26  C19 UNL     1      45.242  16.587   2.497  1.00  0.00     0.031 C 
BRANCH  25  27
HETATM   27  C20 UNL     1      45.496  16.303   4.933  1.00  0.00     0.186 C 
BRANCH  27  28
HETATM   28  O4  UNL     1      44.887  17.537   5.090  1.00  0.00    -0.399 OA
ATOM     29  H4  UNL     1      45.093  17.917   5.936  1.00  0.00     0.209 HD
ENDBRANCH  27  28
ENDBRANCH  25  27
BRANCH  25  30
HETATM   30  C21 UNL     1      47.431  17.156   3.550  1.00  0.00     0.050 C 
BRANCH  30  31
HETATM   31  C22 UNL     1      48.514  16.861   4.518  1.00  0.00     0.165 C 
BRANCH  31  32
HETATM   32  O5  UNL     1      48.937  17.888   5.313  1.00  0.00    -0.401 OA
ATOM     33  H5  UNL     1      49.046  17.703   6.238  1.00  0.00     0.209 HD
ENDBRANCH  31  32
ENDBRANCH  30  31
ENDBRANCH  25  30
ENDBRANCH  24  25
ENDBRANCH  20  23
ENDBRANCH  12  19
BRANCH   1  34
HETATM   34  O1  UNL     1      49.937   2.448   2.592  1.00  0.00    -0.349 OA
BRANCH  34  35
HETATM   35  C2  UNL     1      49.029   2.387   3.608  1.00  0.00     0.303 C 
HETATM   36  C1  UNL     1      47.601   2.179   3.219  1.00  0.00     0.076 C 
HETATM   37  F1  UNL     1      49.378   1.101   4.218  1.00  0.00    -0.220 F 
ENDBRANCH  34  35
ENDBRANCH   1  34
TORSDOF 11
ENDMDL
MODEL 2
REMARK VINA RESULT: -7.402562608      4.077     10.255
REMARK  11 active torsions:
REMARK  status: ('A' for Active; 'I' for Inactive)
REMARK    1  A    between atoms: C2_2  and  O1_4 
REMARK    2  A    between atoms: O1_4  and  C3_5 
REMARK    3  A    between atoms: C13_16  and  C14_17 
REMARK    4  A    between atoms: C14_17  and  O3_18 
REMARK    5  A    between atoms: C15_20  and  C16_21 
REMARK    6  A    between atoms: C17_22  and  C18_23 
REMARK    7  A    between atoms: C18_23  and  C20_25 
REMARK    8  A    between atoms: C18_23  and  C21_28 
REMARK    9  A    between atoms: C20_25  and  O4_26 
REMARK   10  A    between atoms: C21_28  and  C22_29 
REMARK   11  A    between atoms: C22_29  and  O5_30 
ROOT
HETATM    1  C3  UNL     1      44.997  13.159   0.325  1.00  0.00     0.163 C 
HETATM    2  C4  UNL     1      44.841  12.278   1.505  1.00  0.00     0.036 C 
HETATM    3  C5  UNL     1      45.422  10.869   1.301  1.00  0.00     0.017 C 
HETATM    4  C6  UNL     1      46.890  11.002   1.068  1.00  0.00    -0.004 C 
HETATM    5  C7  UNL     1      47.364  11.958   2.260  1.00  0.00     0.021 C 
HETATM    6  C8  UNL     1      47.064  11.797  -0.161  1.00  0.00    -0.035 C 
HETATM    7  C9  UNL     1      48.165  11.693  -0.879  1.00  0.00     0.009 C 
HETATM    8  C10 UNL     1      49.177  10.742  -0.477  1.00  0.00     0.033 C 
HETATM    9  C11 UNL     1      49.025   9.918   0.532  1.00  0.00     0.055 C 
HETATM   10  O2  UNL     1      50.197   9.161   0.717  1.00  0.00    -0.354 OA
HETATM   11  C12 UNL     1      50.618   8.650   2.007  1.00  0.00     0.186 C 
HETATM   12  C13 UNL     1      49.630   7.621   2.388  1.00  0.00     0.067 C 
HETATM   13  C23 UNL     1      48.358   8.097   3.021  1.00  0.00     0.014 C 
HETATM   14  C24 UNL     1      47.961   9.507   2.706  1.00  0.00     0.018 C 
HETATM   15  C25 UNL     1      47.746   9.831   1.280  1.00  0.00     0.016 C 
HETATM   16  C26 UNL     1      47.022   8.587   0.637  1.00  0.00     0.023 C 
HETATM   17  C27 UNL     1      46.007  12.674  -0.708  1.00  0.00     0.229 C 
HETATM   18  F2  UNL     1      46.604  13.687  -1.406  1.00  0.00    -0.242 F 
ENDROOT
BRANCH  12  19
HETATM   19  C14 UNL     1      50.266   6.501   3.108  1.00  0.00     0.057 C 
HETATM   20  C15 UNL     1      50.062   6.361   4.441  1.00  0.00     0.097 C 
BRANCH  19  21
HETATM   21  O3  UNL     1      51.074   5.568   2.491  1.00  0.00    -0.364 OA
ATOM     22  H3  UNL     1      51.997   5.711   2.321  1.00  0.00     0.217 HD
ENDBRANCH  19  21
BRANCH  20  23
HETATM   23  C16 UNL     1      50.650   5.324   5.147  1.00  0.00    -0.075 C 
HETATM   24  C17 UNL     1      51.160   4.422   5.760  1.00  0.00    -0.090 C 
BRANCH  24  25
HETATM   25  C18 UNL     1      51.773   3.356   6.488  1.00  0.00     0.043 C 
HETATM   26  C19 UNL     1      53.255   3.300   6.089  1.00  0.00     0.031 C 
BRANCH  25  27
HETATM   27  C20 UNL     1      51.712   3.603   7.988  1.00  0.00     0.186 C 
BRANCH  27  28
HETATM   28  O4  UNL     1      52.047   4.911   8.296  1.00  0.00    -0.399 OA
ATOM     29  H4  UNL     1      52.768   4.947   8.913  1.00  0.00     0.209 HD
ENDBRANCH  27  28
ENDBRANCH  25  27
BRANCH  25  30
HETATM   30  C21 UNL     1      51.092   2.058   6.088  1.00  0.00     0.050 C 
BRANCH  30  31
HETATM   31  C22 UNL     1      49.735   1.856   6.649  1.00  0.00     0.165 C 
BRANCH  31  32
HETATM   32  O5  UNL     1      49.559   0.790   7.484  1.00  0.00    -0.401 OA
ATOM     33  H5  UNL     1      48.693   0.398   7.510  1.00  0.00     0.209 HD
ENDBRANCH  31  32
ENDBRANCH  30  31
ENDBRANCH  25  30
ENDBRANCH  24  25
ENDBRANCH  20  23
ENDBRANCH  12  19
BRANCH   1  34
HETATM   34  O1  UNL     1      45.155  14.509   0.560  1.00  0.00    -0.349 OA
BRANCH  34  35
HETATM   35  C2  UNL     1      44.780  14.984   1.782  1.00  0.00     0.303 C 
HETATM   36  C1  UNL     1      45.863  15.555   2.641  1.00  0.00     0.076 C 
HETATM   37  F1  UNL     1      44.023  16.179   1.398  1.00  0.00    -0.220 F 
ENDBRANCH  34  35
ENDBRANCH   1  34
TORSDOF 11
ENDMDL
MODEL 3
REMARK VINA RESULT: -7.397536990      4.352     10.225
REMARK  11 active torsions:
REMARK  status: ('A' for Active; 'I' for Inactive)
REMARK    1  A    between atoms: C2_2  and  O1_4 
REMARK    2  A    between atoms: O1_4  and  C3_5 
REMARK    3  A    between atoms: C13_16  and  C14_17 
REMARK    4  A    between atoms: C14_17  and  O3_18 
REMARK    5  A    between atoms: C15_20  and  C16_21 
REMARK    6  A    between atoms: C17_22  and  C18_23 
REMARK    7  A    between atoms: C18_23  and  C20_25 
REMARK    8  A    between atoms: C18_23  and  C21_28 
REMARK    9  A    between atoms: C20_25  and  O4_26 
REMARK   10  A    between atoms: C21_28  and  C22_29 
REMARK   11  A    between atoms: C22_29  and  O5_30 
ROOT
HETATM    1  C3  UNL     1      44.893  13.545   0.248  1.00  0.00     0.163 C 
HETATM    2  C4  UNL     1      44.824  12.762   1.503  1.00  0.00     0.036 C 
HETATM    3  C5  UNL     1      45.320  11.315   1.353  1.00  0.00     0.017 C 
HETATM    4  C6  UNL     1      46.760  11.356   0.963  1.00  0.00    -0.004 C 
HETATM    5  C7  UNL     1      47.397  12.371   2.023  1.00  0.00     0.021 C 
HETATM    6  C8  UNL     1      46.838  12.049  -0.336  1.00  0.00    -0.035 C 
HETATM    7  C9  UNL     1      47.852  11.837  -1.151  1.00  0.00     0.009 C 
HETATM    8  C10 UNL     1      48.859  10.868  -0.780  1.00  0.00     0.033 C 
HETATM    9  C11 UNL     1      48.779  10.129   0.300  1.00  0.00     0.055 C 
HETATM   10  O2  UNL     1      49.930   9.330   0.424  1.00  0.00    -0.354 OA
HETATM   11  C12 UNL     1      50.462   8.894   1.702  1.00  0.00     0.186 C 
HETATM   12  C13 UNL     1      49.477   7.947   2.260  1.00  0.00     0.067 C 
HETATM   13  C23 UNL     1      48.299   8.531   2.979  1.00  0.00     0.014 C 
HETATM   14  C24 UNL     1      47.931   9.933   2.596  1.00  0.00     0.018 C 
HETATM   15  C25 UNL     1      47.583  10.162   1.178  1.00  0.00     0.016 C 
HETATM   16  C26 UNL     1      46.743   8.912   0.711  1.00  0.00     0.023 C 
HETATM   17  C27 UNL     1      45.768  12.935  -0.840  1.00  0.00     0.229 C 
HETATM   18  F2  UNL     1      46.332  13.863  -1.672  1.00  0.00    -0.242 F 
ENDROOT
BRANCH  12  19
HETATM   19  C14 UNL     1      50.136   6.852   2.997  1.00  0.00     0.057 C 
HETATM   20  C15 UNL     1      50.219   6.912   4.348  1.00  0.00     0.097 C 
BRANCH  19  21
HETATM   21  O3  UNL     1      50.685   5.748   2.378  1.00  0.00    -0.364 OA
ATOM     22  H3  UNL     1      51.442   5.285   2.716  1.00  0.00     0.217 HD
ENDBRANCH  19  21
BRANCH  20  23
HETATM   23  C16 UNL     1      50.838   5.903   5.070  1.00  0.00    -0.075 C 
HETATM   24  C17 UNL     1      51.374   5.026   5.696  1.00  0.00    -0.090 C 
BRANCH  24  25
HETATM   25  C18 UNL     1      52.017   3.990   6.441  1.00  0.00     0.043 C 
HETATM   26  C19 UNL     1      51.148   2.727   6.345  1.00  0.00     0.031 C 
BRANCH  25  27
HETATM   27  C20 UNL     1      53.381   3.652   5.857  1.00  0.00     0.186 C 
BRANCH  27  28
HETATM   28  O4  UNL     1      54.352   4.532   6.305  1.00  0.00    -0.399 OA
ATOM     29  H4  UNL     1      55.028   4.078   6.796  1.00  0.00     0.209 HD
ENDBRANCH  27  28
ENDBRANCH  25  27
BRANCH  25  30
HETATM   30  C21 UNL     1      52.104   4.435   7.892  1.00  0.00     0.050 C 
BRANCH  30  31
HETATM   31  C22 UNL     1      51.733   3.406   8.892  1.00  0.00     0.165 C 
BRANCH  31  32
HETATM   32  O5  UNL     1      51.760   3.776  10.206  1.00  0.00    -0.401 OA
ATOM     33  H5  UNL     1      52.587   4.093  10.550  1.00  0.00     0.209 HD
ENDBRANCH  31  32
ENDBRANCH  30  31
ENDBRANCH  25  30
ENDBRANCH  24  25
ENDBRANCH  20  23
ENDBRANCH  12  19
BRANCH   1  34
HETATM   34  O1  UNL     1      45.132  14.899   0.361  1.00  0.00    -0.349 OA
BRANCH  34  35
HETATM   35  C2  UNL     1      44.590  15.549   1.430  1.00  0.00     0.303 C 
HETATM   36  C1  UNL     1      45.550  16.133   2.416  1.00  0.00     0.076 C 
HETATM   37  F1  UNL     1      44.040  16.744   0.783  1.00  0.00    -0.220 F 
ENDBRANCH  34  35
ENDBRANCH   1  34
TORSDOF 11
ENDMDL
MODEL 4
REMARK VINA RESULT: -7.363310392      4.084     10.187
REMARK  11 active torsions:
REMARK  status: ('A' for Active; 'I' for Inactive)
REMARK    1  A    between atoms: C2_2  and  O1_4 
REMARK    2  A    between atoms: O1_4  and  C3_5 
REMARK    3  A    between atoms: C13_16  and  C14_17 
REMARK    4  A    between atoms: C14_17  and  O3_18 
REMARK    5  A    between atoms: C15_20  and  C16_21 
REMARK    6  A    between atoms: C17_22  and  C18_23 
REMARK    7  A    between atoms: C18_23  and  C20_25 
REMARK    8  A    between atoms: C18_23  and  C21_28 
REMARK    9  A    between atoms: C20_25  and  O4_26 
REMARK   10  A    between atoms: C21_28  and  C22_29 
REMARK   11  A    between atoms: C22_29  and  O5_30 
ROOT
HETATM    1  C3  UNL     1      45.019  13.078   0.327  1.00  0.00     0.163 C 
HETATM    2  C4  UNL     1      44.831  12.209   1.510  1.00  0.00     0.036 C 
HETATM    3  C5  UNL     1      45.404  10.793   1.330  1.00  0.00     0.017 C 
HETATM    4  C6  UNL     1      46.878  10.912   1.128  1.00  0.00    -0.004 C 
HETATM    5  C7  UNL     1      47.334  11.873   2.322  1.00  0.00     0.021 C 
HETATM    6  C8  UNL     1      47.085  11.696  -0.104  1.00  0.00    -0.035 C 
HETATM    7  C9  UNL     1      48.199  11.577  -0.797  1.00  0.00     0.009 C 
HETATM    8  C10 UNL     1      49.194  10.621  -0.366  1.00  0.00     0.033 C 
HETATM    9  C11 UNL     1      49.014   9.807   0.646  1.00  0.00     0.055 C 
HETATM   10  O2  UNL     1      50.176   9.042   0.862  1.00  0.00    -0.354 OA
HETATM   11  C12 UNL     1      50.565   8.538   2.165  1.00  0.00     0.186 C 
HETATM   12  C13 UNL     1      49.561   7.520   2.533  1.00  0.00     0.067 C 
HETATM   13  C23 UNL     1      48.280   8.011   3.134  1.00  0.00     0.014 C 
HETATM   14  C24 UNL     1      47.901   9.421   2.800  1.00  0.00     0.018 C 
HETATM   15  C25 UNL     1      47.719   9.736   1.367  1.00  0.00     0.016 C 
HETATM   16  C26 UNL     1      46.999   8.493   0.719  1.00  0.00     0.023 C 
HETATM   17  C27 UNL     1      46.047  12.577  -0.680  1.00  0.00     0.229 C 
HETATM   18  F2  UNL     1      46.667  13.580  -1.373  1.00  0.00    -0.242 F 
ENDROOT
BRANCH  12  19
HETATM   19  C14 UNL     1      50.172   6.400   3.275  1.00  0.00     0.057 C 
HETATM   20  C15 UNL     1      49.945   6.278   4.606  1.00  0.00     0.097 C 
BRANCH  19  21
HETATM   21  O3  UNL     1      50.978   5.451   2.681  1.00  0.00    -0.364 OA
ATOM     22  H3  UNL     1      51.512   4.840   3.175  1.00  0.00     0.217 HD
ENDBRANCH  19  21
BRANCH  20  23
HETATM   23  C16 UNL     1      50.510   5.242   5.332  1.00  0.00    -0.075 C 
HETATM   24  C17 UNL     1      50.999   4.342   5.964  1.00  0.00    -0.090 C 
BRANCH  24  25
HETATM   25  C18 UNL     1      51.581   3.269   6.708  1.00  0.00     0.043 C 
HETATM   26  C19 UNL     1      51.842   3.770   8.137  1.00  0.00     0.031 C 
BRANCH  25  27
HETATM   27  C20 UNL     1      50.632   2.084   6.804  1.00  0.00     0.186 C 
BRANCH  27  28
HETATM   28  O4  UNL     1      51.206   1.037   7.507  1.00  0.00    -0.399 OA
ATOM     29  H4  UNL     1      52.064   1.273   7.838  1.00  0.00     0.209 HD
ENDBRANCH  27  28
ENDBRANCH  25  27
BRANCH  25  30
HETATM   30  C21 UNL     1      52.902   2.901   6.052  1.00  0.00     0.050 C 
BRANCH  30  31
HETATM   31  C22 UNL     1      53.678   4.042   5.509  1.00  0.00     0.165 C 
BRANCH  31  32
HETATM   32  O5  UNL     1      54.573   4.641   6.348  1.00  0.00    -0.401 OA
ATOM     33  H5  UNL     1      55.097   4.073   6.900  1.00  0.00     0.209 HD
ENDBRANCH  31  32
ENDBRANCH  30  31
ENDBRANCH  25  30
ENDBRANCH  24  25
ENDBRANCH  20  23
ENDBRANCH  12  19
BRANCH   1  34
HETATM   34  O1  UNL     1      45.183  14.429   0.555  1.00  0.00    -0.349 OA
BRANCH  34  35
HETATM   35  C2  UNL     1      44.835  14.908   1.783  1.00  0.00     0.303 C 
HETATM   36  C1  UNL     1      45.944  15.439   2.635  1.00  0.00     0.076 C 
HETATM   37  F1  UNL     1      44.113  16.129   1.414  1.00  0.00    -0.220 F 
ENDBRANCH  34  35
ENDBRANCH   1  34
TORSDOF 11
ENDMDL
MODEL 5
REMARK VINA RESULT: -7.231049895      4.061     10.227
REMARK  11 active torsions:
REMARK  status: ('A' for Active; 'I' for Inactive)
REMARK    1  A    between atoms: C2_2  and  O1_4 
REMARK    2  A    between atoms: O1_4  and  C3_5 
REMARK    3  A    between atoms: C13_16  and  C14_17 
REMARK    4  A    between atoms: C14_17  and  O3_18 
REMARK    5  A    between atoms: C15_20  and  C16_21 
REMARK    6  A    between atoms: C17_22  and  C18_23 
REMARK    7  A    between atoms: C18_23  and  C20_25 
REMARK    8  A    between atoms: C18_23  and  C21_28 
REMARK    9  A    between atoms: C20_25  and  O4_26 
REMARK   10  A    between atoms: C21_28  and  C22_29 
REMARK   11  A    between atoms: C22_29  and  O5_30 
ROOT
HETATM    1  C3  UNL     1      44.824  13.562   0.465  1.00  0.00     0.163 C 
HETATM    2  C4  UNL     1      44.805  12.715   1.679  1.00  0.00     0.036 C 
HETATM    3  C5  UNL     1      45.321  11.287   1.440  1.00  0.00     0.017 C 
HETATM    4  C6  UNL     1      46.748  11.374   1.013  1.00  0.00    -0.004 C 
HETATM    5  C7  UNL     1      47.397  12.345   2.105  1.00  0.00     0.021 C 
HETATM    6  C8  UNL     1      46.777  12.134  -0.250  1.00  0.00    -0.035 C 
HETATM    7  C9  UNL     1      47.770  11.982  -1.103  1.00  0.00     0.009 C 
HETATM    8  C10 UNL     1      48.804  11.015  -0.811  1.00  0.00     0.033 C 
HETATM    9  C11 UNL     1      48.768  10.221   0.232  1.00  0.00     0.055 C 
HETATM   10  O2  UNL     1      49.936   9.438   0.282  1.00  0.00    -0.354 OA
HETATM   11  C12 UNL     1      50.512   8.947   1.520  1.00  0.00     0.186 C 
HETATM   12  C13 UNL     1      49.559   7.954   2.056  1.00  0.00     0.067 C 
HETATM   13  C23 UNL     1      48.393   8.479   2.836  1.00  0.00     0.014 C 
HETATM   14  C24 UNL     1      47.990   9.891   2.537  1.00  0.00     0.018 C 
HETATM   15  C25 UNL     1      47.597  10.186   1.143  1.00  0.00     0.016 C 
HETATM   16  C26 UNL     1      46.766   8.946   0.636  1.00  0.00     0.023 C 
HETATM   17  C27 UNL     1      45.677  13.025  -0.678  1.00  0.00     0.229 C 
HETATM   18  F2  UNL     1      46.201  14.005  -1.476  1.00  0.00    -0.242 F 
ENDROOT
BRANCH  12  19
HETATM   19  C14 UNL     1      50.258   6.835   2.717  1.00  0.00     0.057 C 
HETATM   20  C15 UNL     1      50.415   6.848   4.063  1.00  0.00     0.097 C 
BRANCH  19  21
HETATM   21  O3  UNL     1      50.773   5.755   2.030  1.00  0.00    -0.364 OA
ATOM     22  H3  UNL     1      50.482   4.862   2.172  1.00  0.00     0.217 HD
ENDBRANCH  19  21
BRANCH  20  23
HETATM   23  C16 UNL     1      51.072   5.815   4.713  1.00  0.00    -0.075 C 
HETATM   24  C17 UNL     1      51.643   4.919   5.279  1.00  0.00    -0.090 C 
BRANCH  24  25
HETATM   25  C18 UNL     1      52.317   3.850   5.945  1.00  0.00     0.043 C 
HETATM   26  C19 UNL     1      53.811   4.202   6.014  1.00  0.00     0.031 C 
BRANCH  25  27
HETATM   27  C20 UNL     1      51.820   3.686   7.373  1.00  0.00     0.186 C 
BRANCH  27  28
HETATM   28  O4  UNL     1      52.073   4.820   8.127  1.00  0.00    -0.399 OA
ATOM     29  H4  UNL     1      51.420   4.934   8.808  1.00  0.00     0.209 HD
ENDBRANCH  27  28
ENDBRANCH  25  27
BRANCH  25  30
HETATM   30  C21 UNL     1      52.133   2.587   5.119  1.00  0.00     0.050 C 
BRANCH  30  31
HETATM   31  C22 UNL     1      52.731   2.626   3.763  1.00  0.00     0.165 C 
BRANCH  31  32
HETATM   32  O5  UNL     1      51.889   2.880   2.718  1.00  0.00    -0.401 OA
ATOM     33  H5  UNL     1      51.633   2.141   2.179  1.00  0.00     0.209 HD
ENDBRANCH  31  32
ENDBRANCH  30  31
ENDBRANCH  25  30
ENDBRANCH  24  25
ENDBRANCH  20  23
ENDBRANCH  12  19
BRANCH   1  34
HETATM   34  O1  UNL     1      45.043  14.913   0.640  1.00  0.00    -0.349 OA
BRANCH  34  35
HETATM   35  C2  UNL     1      44.662  15.465   1.827  1.00  0.00     0.303 C 
HETATM   36  C1  UNL     1      45.743  16.078   2.658  1.00  0.00     0.076 C 
HETATM   37  F1  UNL     1      43.918  16.640   1.365  1.00  0.00    -0.220 F 
ENDBRANCH  34  35
ENDBRANCH   1  34
TORSDOF 11
ENDMDL
