MODEL 1
REMARK VINA RESULT: -8.311825671      0.000      0.000
REMARK  7 active torsions:
REMARK  status: ('A' for Active; 'I' for Inactive)
REMARK    1  A    between atoms: C2_2  and  N1_3 
REMARK    2  A    between atoms: N1_3  and  C3_4 
REMARK    3  A    between atoms: N1_3  and  C5_6 
REMARK    4  A    between atoms: C10_13  and  C11_14 
REMARK    5  A    between atoms: C17_21  and  C18_22 
REMARK    6  A    between atoms: C18_22  and  N3_23 
REMARK    7  A    between atoms: N3_23  and  C19_26 
ROOT
HETATM    1  C11 UNL     1      46.473  12.239   1.646  1.00  0.00     0.077 A 
HETATM    2  C12 UNL     1      45.715  12.706   0.571  1.00  0.00     0.036 A 
HETATM    3  C13 UNL     1      45.150  13.969   0.649  1.00  0.00     0.014 A 
HETATM    4  C14 UNL     1      44.404  14.425  -0.422  1.00  0.00     0.046 A 
HETATM    5 CL1  UNL     1      44.180  13.412  -1.851  1.00  0.00    -0.083 Cl
HETATM    6  C15 UNL     1      43.853  15.681  -0.331  1.00  0.00     0.025 A 
HETATM    7  C16 UNL     1      44.064  16.425   0.814  1.00  0.00     0.013 A 
HETATM    8  C17 UNL     1      44.805  15.987   1.889  1.00  0.00    -0.005 A 
HETATM    9  C22 UNL     1      45.355  14.726   1.789  1.00  0.00     0.055 A 
HETATM   10  N4  UNL     1      46.074  14.282   2.809  1.00  0.00    -0.321 N 
ATOM     11  H4  UNL     1      46.207  14.864   3.637  1.00  0.00     0.169 HD
HETATM   12  C23 UNL     1      46.637  13.038   2.745  1.00  0.00     0.260 A 
HETATM   13  O1  UNL     1      47.302  12.699   3.756  1.00  0.00    -0.267 OA
ENDROOT
BRANCH   1  14
HETATM   14  C10 UNL     1      47.079  10.916   1.604  1.00  0.00     0.122 A 
HETATM   15  N2  UNL     1      47.165  10.015   0.637  1.00  0.00    -0.339 N 
HETATM   16  C9  UNL     1      47.837   8.949   1.112  1.00  0.00     0.067 A 
ATOM     17  H2  UNL     1      46.786  10.112  -0.305  1.00  0.00     0.167 HD
HETATM   18  C7  UNL     1      48.186   7.764   0.511  1.00  0.00    -0.031 A 
HETATM   19  C24 UNL     1      48.176   9.205   2.409  1.00  0.00     0.063 A 
HETATM   20  C6  UNL     1      48.882   6.840   1.244  1.00  0.00     0.038 A 
HETATM   21  C8  UNL     1      47.811   7.494  -0.907  1.00  0.00     0.050 C 
HETATM   22  C5  UNL     1      49.227   7.090   2.554  1.00  0.00     0.033 A 
HETATM   23  C25 UNL     1      48.888   8.258   3.154  1.00  0.00     0.061 A 
HETATM   24  N5  UNL     1      47.711  10.410   2.713  1.00  0.00    -0.340 N 
ATOM     25  H5  UNL     1      47.807  10.879   3.614  1.00  0.00     0.167 HD
BRANCH  22  26
HETATM   26  N1  UNL     1      49.947   6.101   3.277  1.00  0.00    -0.382 N 
BRANCH  26  27
HETATM   27  C2  UNL     1      51.099   5.499   2.667  1.00  0.00     0.118 C 
HETATM   28  C1  UNL     1      52.367   6.297   2.980  1.00  0.00     0.026 C 
ENDBRANCH  26  27
BRANCH  26  29
HETATM   29  C3  UNL     1      49.485   5.754   4.599  1.00  0.00     0.118 C 
HETATM   30  C4  UNL     1      49.784   4.331   4.995  1.00  0.00     0.026 C 
ENDBRANCH  26  29
ENDBRANCH  22  26
ENDBRANCH   1  14
BRANCH   8  31
HETATM   31  C18 UNL     1      44.935  16.870   3.029  1.00  0.00     0.273 C 
BRANCH  31  32
HETATM   32  N3  UNL     1      46.152  17.657   2.970  1.00  0.00    -0.068 N 
ATOM     33  H32 UNL     1      46.683  17.444   2.126  1.00  0.00     0.277 HD
ATOM     34  H31 UNL     1      45.942  18.639   2.792  1.00  0.00     0.277 HD
BRANCH  32  35
HETATM   35  C19 UNL     1      46.973  17.510   4.145  1.00  0.00     0.178 C 
HETATM   36  C20 UNL     1      46.263  16.904   5.322  1.00  0.00     0.039 C 
HETATM   37  C21 UNL     1      48.211  16.689   3.901  1.00  0.00     0.039 C 
ENDBRANCH  32  35
ENDBRANCH  31  32
ENDBRANCH   8  31
TORSDOF 7
ENDMDL
MODEL 2
REMARK VINA RESULT: -8.292811194      0.033      1.149
REMARK  7 active torsions:
REMARK  status: ('A' for Active; 'I' for Inactive)
REMARK    1  A    between atoms: C2_2  and  N1_3 
REMARK    2  A    between atoms: N1_3  and  C3_4 
REMARK    3  A    between atoms: N1_3  and  C5_6 
REMARK    4  A    between atoms: C10_13  and  C11_14 
REMARK    5  A    between atoms: C17_21  and  C18_22 
REMARK    6  A    between atoms: C18_22  and  N3_23 
REMARK    7  A    between atoms: N3_23  and  C19_26 
ROOT
HETATM    1  C11 UNL     1      46.467  12.237   1.645  1.00  0.00     0.077 A 
HETATM    2  C12 UNL     1      45.711  12.702   0.567  1.00  0.00     0.036 A 
HETATM    3  C13 UNL     1      45.148  13.966   0.640  1.00  0.00     0.014 A 
HETATM    4  C14 UNL     1      44.405  14.418  -0.434  1.00  0.00     0.046 A 
HETATM    5 CL1  UNL     1      44.181  13.401  -1.860  1.00  0.00    -0.083 Cl
HETATM    6  C15 UNL     1      43.855  15.675  -0.347  1.00  0.00     0.025 A 
HETATM    7  C16 UNL     1      44.065  16.424   0.795  1.00  0.00     0.013 A 
HETATM    8  C17 UNL     1      44.803  15.988   1.873  1.00  0.00    -0.005 A 
HETATM    9  C22 UNL     1      45.352  14.726   1.778  1.00  0.00     0.055 A 
HETATM   10  N4  UNL     1      46.069  14.284   2.801  1.00  0.00    -0.321 N 
ATOM     11  H4  UNL     1      46.202  14.869   3.627  1.00  0.00     0.169 HD
HETATM   12  C23 UNL     1      46.630  13.040   2.742  1.00  0.00     0.260 A 
HETATM   13  O1  UNL     1      47.293  12.703   3.754  1.00  0.00    -0.267 OA
ENDROOT
BRANCH   1  14
HETATM   14  C10 UNL     1      47.072  10.913   1.609  1.00  0.00     0.122 A 
HETATM   15  N2  UNL     1      47.165  10.012   0.642  1.00  0.00    -0.339 N 
HETATM   16  C9  UNL     1      47.832   8.945   1.123  1.00  0.00     0.067 A 
ATOM     17  H2  UNL     1      46.796  10.110  -0.303  1.00  0.00     0.167 HD
HETATM   18  C7  UNL     1      48.184   7.760   0.525  1.00  0.00    -0.031 A 
HETATM   19  C24 UNL     1      48.159   9.201   2.423  1.00  0.00     0.063 A 
HETATM   20  C6  UNL     1      48.872   6.834   1.265  1.00  0.00     0.038 A 
HETATM   21  C8  UNL     1      47.821   7.491  -0.896  1.00  0.00     0.050 C 
HETATM   22  C5  UNL     1      49.205   7.084   2.578  1.00  0.00     0.033 A 
HETATM   23  C25 UNL     1      48.862   8.252   3.175  1.00  0.00     0.061 A 
HETATM   24  N5  UNL     1      47.693  10.406   2.724  1.00  0.00    -0.340 N 
ATOM     25  H5  UNL     1      47.781  10.875   3.625  1.00  0.00     0.167 HD
BRANCH  22  26
HETATM   26  N1  UNL     1      49.917   6.094   3.307  1.00  0.00    -0.382 N 
BRANCH  26  27
HETATM   27  C2  UNL     1      49.444   5.717   4.609  1.00  0.00     0.118 C 
HETATM   28  C1  UNL     1      49.746   4.245   4.899  1.00  0.00     0.026 C 
ENDBRANCH  26  27
BRANCH  26  29
HETATM   29  C3  UNL     1      51.086   5.508   2.695  1.00  0.00     0.118 C 
HETATM   30  C4  UNL     1      52.354   6.289   2.934  1.00  0.00     0.026 C 
ENDBRANCH  26  29
ENDBRANCH  22  26
ENDBRANCH   1  14
BRANCH   8  31
HETATM   31  C18 UNL     1      44.933  16.875   3.010  1.00  0.00     0.273 C 
BRANCH  31  32
HETATM   32  N3  UNL     1      46.152  17.658   2.951  1.00  0.00    -0.068 N 
ATOM     33  H32 UNL     1      46.685  17.441   2.109  1.00  0.00     0.277 HD
ATOM     34  H31 UNL     1      45.946  18.640   2.769  1.00  0.00     0.277 HD
BRANCH  32  35
HETATM   35  C19 UNL     1      46.970  17.513   4.129  1.00  0.00     0.178 C 
HETATM   36  C20 UNL     1      46.256  16.911   5.306  1.00  0.00     0.039 C 
HETATM   37  C21 UNL     1      48.208  16.690   3.890  1.00  0.00     0.039 C 
ENDBRANCH  32  35
ENDBRANCH  31  32
ENDBRANCH   8  31
TORSDOF 7
ENDMDL
MODEL 3
REMARK VINA RESULT: -8.181781674      1.370      2.340
REMARK  7 active torsions:
REMARK  status: ('A' for Active; 'I' for Inactive)
REMARK    1  A    between atoms: C2_2  and  N1_3 
REMARK    2  A    between atoms: N1_3  and  C3_4 
REMARK    3  A    between atoms: N1_3  and  C5_6 
REMARK    4  A    between atoms: C10_13  and  C11_14 
REMARK    5  A    between atoms: C17_21  and  C18_22 
REMARK    6  A    between atoms: C18_22  and  N3_23 
REMARK    7  A    between atoms: N3_23  and  C19_26 
ROOT
HETATM    1  C11 UNL     1      46.494  12.278   1.688  1.00  0.00     0.077 A 
HETATM    2  C12 UNL     1      45.729  12.732   0.612  1.00  0.00     0.036 A 
HETATM    3  C13 UNL     1      45.157  13.992   0.681  1.00  0.00     0.014 A 
HETATM    4  C14 UNL     1      44.405  14.433  -0.391  1.00  0.00     0.046 A 
HETATM    5 CL1  UNL     1      44.182  13.407  -1.811  1.00  0.00    -0.083 Cl
HETATM    6  C15 UNL     1      43.846  15.686  -0.308  1.00  0.00     0.025 A 
HETATM    7  C16 UNL     1      44.056  16.442   0.829  1.00  0.00     0.013 A 
HETATM    8  C17 UNL     1      44.803  16.017   1.906  1.00  0.00    -0.005 A 
HETATM    9  C22 UNL     1      45.361  14.759   1.814  1.00  0.00     0.055 A 
HETATM   10  N4  UNL     1      46.086  14.328   2.836  1.00  0.00    -0.321 N 
ATOM     11  H4  UNL     1      46.218  14.918   3.658  1.00  0.00     0.169 HD
HETATM   12  C23 UNL     1      46.656  13.088   2.780  1.00  0.00     0.260 A 
HETATM   13  O1  UNL     1      47.327  12.761   3.791  1.00  0.00    -0.267 OA
ENDROOT
BRANCH   1  14
HETATM   14  C10 UNL     1      47.109  10.959   1.655  1.00  0.00     0.122 A 
HETATM   15  N2  UNL     1      47.922  10.343   2.500  1.00  0.00    -0.339 N 
HETATM   16  C9  UNL     1      48.199   9.121   2.005  1.00  0.00     0.067 A 
ATOM     17  H2  UNL     1      48.277  10.728   3.375  1.00  0.00     0.167 HD
HETATM   18  C7  UNL     1      48.985   8.108   2.496  1.00  0.00    -0.031 A 
HETATM   19  C24 UNL     1      47.533   8.984   0.821  1.00  0.00     0.063 A 
HETATM   20  C6  UNL     1      49.089   6.951   1.770  1.00  0.00     0.038 A 
HETATM   21  C8  UNL     1      49.708   8.270   3.791  1.00  0.00     0.050 C 
HETATM   22  C5  UNL     1      48.422   6.805   0.574  1.00  0.00     0.033 A 
HETATM   23  C25 UNL     1      47.643   7.799   0.082  1.00  0.00     0.061 A 
HETATM   24  N5  UNL     1      46.865  10.109   0.604  1.00  0.00    -0.340 N 
ATOM     25  H5  UNL     1      46.274  10.308  -0.202  1.00  0.00     0.167 HD
BRANCH  22  26
HETATM   26  N1  UNL     1      48.561   5.587  -0.147  1.00  0.00    -0.382 N 
BRANCH  26  27
HETATM   27  C2  UNL     1      48.897   5.643  -1.541  1.00  0.00     0.118 C 
HETATM   28  C1  UNL     1      50.383   5.953  -1.736  1.00  0.00     0.026 C 
ENDBRANCH  26  27
BRANCH  26  29
HETATM   29  C3  UNL     1      48.362   4.348   0.566  1.00  0.00     0.118 C 
HETATM   30  C4  UNL     1      48.136   3.159  -0.331  1.00  0.00     0.026 C 
ENDBRANCH  26  29
ENDBRANCH  22  26
ENDBRANCH   1  14
BRANCH   8  31
HETATM   31  C18 UNL     1      44.932  16.911   3.038  1.00  0.00     0.273 C 
BRANCH  31  32
HETATM   32  N3  UNL     1      46.156  17.686   2.982  1.00  0.00    -0.068 N 
ATOM     33  H32 UNL     1      46.692  17.461   2.143  1.00  0.00     0.277 HD
ATOM     34  H31 UNL     1      45.956  18.669   2.793  1.00  0.00     0.277 HD
BRANCH  32  35
HETATM   35  C19 UNL     1      46.966  17.542   4.165  1.00  0.00     0.178 C 
HETATM   36  C20 UNL     1      46.252  16.921   5.331  1.00  0.00     0.039 C 
HETATM   37  C21 UNL     1      48.217  16.738   3.929  1.00  0.00     0.039 C 
ENDBRANCH  32  35
ENDBRANCH  31  32
ENDBRANCH   8  31
TORSDOF 7
ENDMDL
MODEL 4
REMARK VINA RESULT: -8.176533839      1.382      2.609
REMARK  7 active torsions:
REMARK  status: ('A' for Active; 'I' for Inactive)
REMARK    1  A    between atoms: C2_2  and  N1_3 
REMARK    2  A    between atoms: N1_3  and  C3_4 
REMARK    3  A    between atoms: N1_3  and  C5_6 
REMARK    4  A    between atoms: C10_13  and  C11_14 
REMARK    5  A    between atoms: C17_21  and  C18_22 
REMARK    6  A    between atoms: C18_22  and  N3_23 
REMARK    7  A    between atoms: N3_23  and  C19_26 
ROOT
HETATM    1  C11 UNL     1      46.486  12.284   1.644  1.00  0.00     0.077 A 
HETATM    2  C12 UNL     1      45.725  12.744   0.567  1.00  0.00     0.036 A 
HETATM    3  C13 UNL     1      45.146  14.001   0.644  1.00  0.00     0.014 A 
HETATM    4  C14 UNL     1      44.399  14.448  -0.428  1.00  0.00     0.046 A 
HETATM    5 CL1  UNL     1      44.189  13.433  -1.858  1.00  0.00    -0.083 Cl
HETATM    6  C15 UNL     1      43.833  15.698  -0.338  1.00  0.00     0.025 A 
HETATM    7  C16 UNL     1      44.033  16.445   0.807  1.00  0.00     0.013 A 
HETATM    8  C17 UNL     1      44.776  16.014   1.885  1.00  0.00    -0.005 A 
HETATM    9  C22 UNL     1      45.340  14.759   1.785  1.00  0.00     0.055 A 
HETATM   10  N4  UNL     1      46.062  14.322   2.808  1.00  0.00    -0.321 N 
ATOM     11  H4  UNL     1      46.186  14.905   3.636  1.00  0.00     0.169 HD
HETATM   12  C23 UNL     1      46.638  13.085   2.744  1.00  0.00     0.260 A 
HETATM   13  O1  UNL     1      47.304  12.752   3.756  1.00  0.00    -0.267 OA
ENDROOT
BRANCH   1  14
HETATM   14  C10 UNL     1      47.107  10.968   1.604  1.00  0.00     0.122 A 
HETATM   15  N2  UNL     1      47.922  10.351   2.445  1.00  0.00    -0.339 N 
HETATM   16  C9  UNL     1      48.205   9.134   1.942  1.00  0.00     0.067 A 
ATOM     17  H2  UNL     1      48.274  10.732   3.323  1.00  0.00     0.167 HD
HETATM   18  C7  UNL     1      48.996   8.121   2.428  1.00  0.00    -0.031 A 
HETATM   19  C24 UNL     1      47.542   9.001   0.757  1.00  0.00     0.063 A 
HETATM   20  C6  UNL     1      49.106   6.969   1.694  1.00  0.00     0.038 A 
HETATM   21  C8  UNL     1      49.716   8.277   3.725  1.00  0.00     0.050 C 
HETATM   22  C5  UNL     1      48.441   6.828   0.497  1.00  0.00     0.033 A 
HETATM   23  C25 UNL     1      47.658   7.822   0.010  1.00  0.00     0.061 A 
HETATM   24  N5  UNL     1      46.868  10.124   0.546  1.00  0.00    -0.340 N 
ATOM     25  H5  UNL     1      46.277  10.326  -0.260  1.00  0.00     0.167 HD
BRANCH  22  26
HETATM   26  N1  UNL     1      48.587   5.616  -0.232  1.00  0.00    -0.382 N 
BRANCH  26  27
HETATM   27  C2  UNL     1      48.407   4.368   0.455  1.00  0.00     0.118 C 
HETATM   28  C1  UNL     1      48.181   3.224  -0.536  1.00  0.00     0.026 C 
ENDBRANCH  26  27
BRANCH  26  29
HETATM   29  C3  UNL     1      48.905   5.702  -1.637  1.00  0.00     0.118 C 
HETATM   30  C4  UNL     1      50.354   6.015  -1.915  1.00  0.00     0.026 C 
ENDBRANCH  26  29
ENDBRANCH  22  26
ENDBRANCH   1  14
BRANCH   8  31
HETATM   31  C18 UNL     1      44.894  16.898   3.025  1.00  0.00     0.273 C 
BRANCH  31  32
HETATM   32  N3  UNL     1      46.107  17.690   2.975  1.00  0.00    -0.068 N 
ATOM     33  H32 UNL     1      46.634  17.498   2.123  1.00  0.00     0.277 HD
ATOM     34  H31 UNL     1      45.893  18.675   2.819  1.00  0.00     0.277 HD
BRANCH  32  35
HETATM   35  C19 UNL     1      46.937  17.522   4.141  1.00  0.00     0.178 C 
HETATM   36  C20 UNL     1      46.238  16.886   5.309  1.00  0.00     0.039 C 
HETATM   37  C21 UNL     1      48.178  16.714   3.871  1.00  0.00     0.039 C 
ENDBRANCH  32  35
ENDBRANCH  31  32
ENDBRANCH   8  31
TORSDOF 7
ENDMDL
MODEL 5
REMARK VINA RESULT: -8.065360600      2.783      9.865
REMARK  7 active torsions:
REMARK  status: ('A' for Active; 'I' for Inactive)
REMARK    1  A    between atoms: C2_2  and  N1_3 
REMARK    2  A    between atoms: N1_3  and  C3_4 
REMARK    3  A    between atoms: N1_3  and  C5_6 
REMARK    4  A    between atoms: C10_13  and  C11_14 
REMARK    5  A    between atoms: C17_21  and  C18_22 
REMARK    6  A    between atoms: C18_22  and  N3_23 
REMARK    7  A    between atoms: N3_23  and  C19_26 
ROOT
HETATM    1  C11 UNL     1      47.773   9.058   2.138  1.00  0.00     0.077 A 
HETATM    2  C12 UNL     1      48.960   8.800   2.825  1.00  0.00     0.036 A 
HETATM    3  C13 UNL     1      49.431   7.498   2.883  1.00  0.00     0.014 A 
HETATM    4  C14 UNL     1      50.609   7.253   3.563  1.00  0.00     0.046 A 
HETATM    5 CL1  UNL     1      51.485   8.574   4.339  1.00  0.00    -0.083 Cl
HETATM    6  C15 UNL     1      51.063   5.956   3.609  1.00  0.00     0.025 A 
HETATM    7  C16 UNL     1      50.333   4.965   2.982  1.00  0.00     0.013 A 
HETATM    8  C17 UNL     1      49.158   5.193   2.300  1.00  0.00    -0.005 A 
HETATM    9  C22 UNL     1      48.709   6.496   2.258  1.00  0.00     0.055 A 
HETATM   10  N4  UNL     1      47.582   6.742   1.606  1.00  0.00    -0.321 N 
ATOM     11  H4  UNL     1      47.072   5.981   1.156  1.00  0.00     0.169 HD
HETATM   12  C23 UNL     1      47.107   8.021   1.542  1.00  0.00     0.260 A 
HETATM   13  O1  UNL     1      46.034   8.163   0.904  1.00  0.00    -0.267 OA
ENDROOT
BRANCH   1  14
HETATM   14  C10 UNL     1      47.244  10.413   2.058  1.00  0.00     0.122 A 
HETATM   15  N2  UNL     1      46.371  10.971   1.234  1.00  0.00    -0.339 N 
HETATM   16  C9  UNL     1      46.218  12.261   1.592  1.00  0.00     0.067 A 
ATOM     17  H2  UNL     1      45.896  10.505   0.461  1.00  0.00     0.167 HD
HETATM   18  C7  UNL     1      45.435  13.256   1.059  1.00  0.00    -0.031 A 
HETATM   19  C24 UNL     1      47.020  12.499   2.670  1.00  0.00     0.063 A 
HETATM   20  C6  UNL     1      45.477  14.499   1.634  1.00  0.00     0.038 A 
HETATM   21  C8  UNL     1      44.562  12.984  -0.119  1.00  0.00     0.050 C 
HETATM   22  C5  UNL     1      46.285  14.747   2.721  1.00  0.00     0.033 A 
HETATM   23  C25 UNL     1      47.060  13.770   3.254  1.00  0.00     0.061 A 
HETATM   24  N5  UNL     1      47.651  11.367   2.957  1.00  0.00    -0.340 N 
ATOM     25  H5  UNL     1      48.322  11.231   3.713  1.00  0.00     0.167 HD
BRANCH  22  26
HETATM   26  N1  UNL     1      46.299  16.053   3.284  1.00  0.00    -0.382 N 
BRANCH  26  27
HETATM   27  C2  UNL     1      47.562  16.695   3.513  1.00  0.00     0.118 C 
HETATM   28  C1  UNL     1      47.557  17.458   4.840  1.00  0.00     0.026 C 
ENDBRANCH  26  27
BRANCH  26  29
HETATM   29  C3  UNL     1      45.033  16.673   3.593  1.00  0.00     0.118 C 
HETATM   30  C4  UNL     1      44.506  17.560   2.494  1.00  0.00     0.026 C 
ENDBRANCH  26  29
ENDBRANCH  22  26
ENDBRANCH   1  14
BRANCH   8  31
HETATM   31  C18 UNL     1      48.491   4.057   1.699  1.00  0.00     0.273 C 
BRANCH  31  32
HETATM   32  N3  UNL     1      47.432   3.539   2.543  1.00  0.00    -0.068 N 
ATOM     33  H32 UNL     1      47.303   4.125   3.368  1.00  0.00     0.277 HD
ATOM     34  H31 UNL     1      46.520   3.666   2.105  1.00  0.00     0.277 HD
BRANCH  32  35
HETATM   35  C19 UNL     1      47.637   2.162   2.918  1.00  0.00     0.178 C 
HETATM   36  C20 UNL     1      48.442   1.976   4.173  1.00  0.00     0.039 C 
HETATM   37  C21 UNL     1      46.349   1.402   3.098  1.00  0.00     0.039 C 
ENDBRANCH  32  35
ENDBRANCH  31  32
ENDBRANCH   8  31
TORSDOF 7
ENDMDL
