MODEL 1
REMARK VINA RESULT: -8.177918770      0.000      0.000
REMARK  8 active torsions:
REMARK  status: ('A' for Active; 'I' for Inactive)
REMARK    1  A    between atoms: C6_8  and  N2_9 
REMARK    2  A    between atoms: C7_10  and  N3_11 
REMARK    3  A    between atoms: N3_11  and  C8_13 
REMARK    4  A    between atoms: C8_13  and  C9_14 
REMARK    5  A    between atoms: C9_14  and  N4_15 
REMARK    6  A    between atoms: N4_15  and  C10_17 
REMARK    7  A    between atoms: C13_20  and  C14_21 
REMARK    8  A    between atoms: C14_21  and  C15_22 
ROOT
HETATM    1  N2  UNL     1      46.524   9.845   0.117  1.00  0.00    -0.144 N 
HETATM    2  C7  UNL     1      46.938  11.091   0.259  1.00  0.00     0.686 A 
HETATM    3  N5  UNL     1      47.896  11.131   1.247  1.00  0.00    -0.189 N 
ATOM      4  H5  UNL     1      48.400  11.953   1.581  1.00  0.00     0.184 HD
HETATM    5  C21 UNL     1      48.033   9.873   1.682  1.00  0.00     0.077 A 
HETATM    6  C22 UNL     1      48.853   9.317   2.664  1.00  0.00     0.032 A 
HETATM    7  C23 UNL     1      48.823   7.969   2.944  1.00  0.00     0.002 A 
HETATM    8  C24 UNL     1      47.968   7.150   2.245  1.00  0.00     0.002 A 
HETATM    9  C25 UNL     1      47.150   7.682   1.269  1.00  0.00     0.033 A 
HETATM   10  C26 UNL     1      47.185   9.036   0.992  1.00  0.00     0.084 A 
ENDROOT
BRANCH   2  11
HETATM   11  N3  UNL     1      46.575  12.126  -0.358  1.00  0.00    -0.224 N 
ATOM     12  H3  UNL     1      46.163  12.835   0.248  1.00  0.00     0.177 HD
BRANCH  11  13
HETATM   13  C8  UNL     1      46.620  12.506  -1.716  1.00  0.00     0.157 C 
BRANCH  13  14
HETATM   14  C9  UNL     1      45.179  12.485  -2.232  1.00  0.00     0.142 C 
BRANCH  14  15
HETATM   15  N4  UNL     1      44.693  13.837  -2.422  1.00  0.00    -0.369 N 
ATOM     16  H4  UNL     1      44.554  14.197  -3.367  1.00  0.00     0.161 HD
BRANCH  15  17
HETATM   17  C10 UNL     1      44.410  14.659  -1.306  1.00  0.00     0.143 A 
HETATM   18  C11 UNL     1      43.937  15.954  -1.377  1.00  0.00     0.058 A 
HETATM   19  C12 UNL     1      43.787  16.421  -0.091  1.00  0.00     0.037 A 
HETATM   20  C13 UNL     1      44.179  15.380   0.720  1.00  0.00     0.059 A 
HETATM   21  O1  UNL     1      44.530  14.385  -0.025  1.00  0.00    -0.298 OA
BRANCH  20  22
HETATM   22  C14 UNL     1      44.164  15.484   2.218  1.00  0.00     0.103 C 
BRANCH  22  23
HETATM   23  C15 UNL     1      45.492  15.829   2.746  1.00  0.00    -0.052 A 
HETATM   24  C16 UNL     1      45.889  17.133   2.914  1.00  0.00     0.007 A 
HETATM   25  C17 UNL     1      47.144  17.427   3.411  1.00  0.00     0.001 A 
HETATM   26  C18 UNL     1      48.045  16.450   3.760  1.00  0.00     0.000 A 
HETATM   27  C19 UNL     1      47.649  15.134   3.593  1.00  0.00     0.001 A 
HETATM   28  C20 UNL     1      46.397  14.845   3.096  1.00  0.00     0.007 A 
ENDBRANCH  22  23
ENDBRANCH  20  22
ENDBRANCH  15  17
ENDBRANCH  14  15
ENDBRANCH  13  14
ENDBRANCH  11  13
ENDBRANCH   2  11
BRANCH   1  29
HETATM   29  C6  UNL     1      45.548   9.269  -0.768  1.00  0.00     0.081 A 
HETATM   30  C1  UNL     1      45.946   8.854  -2.020  1.00  0.00     0.075 A 
HETATM   31  N1  UNL     1      47.316   9.018  -2.417  1.00  0.00    -0.100 NA
HETATM   32  C2  UNL     1      45.068   8.280  -2.919  1.00  0.00     0.052 A 
HETATM   33  C3  UNL     1      43.756   8.139  -2.497  1.00  0.00     0.035 A 
HETATM   34 CL1  UNL     1      42.628   7.410  -3.631  1.00  0.00    -0.084 Cl
HETATM   35  C4  UNL     1      43.335   8.546  -1.251  1.00  0.00     0.026 A 
HETATM   36  C5  UNL     1      44.240   9.109  -0.397  1.00  0.00     0.034 A 
ENDBRANCH   1  29
TORSDOF 8
ENDMDL
MODEL 2
REMARK VINA RESULT: -8.072156768      2.484      5.167
REMARK  8 active torsions:
REMARK  status: ('A' for Active; 'I' for Inactive)
REMARK    1  A    between atoms: C6_8  and  N2_9 
REMARK    2  A    between atoms: C7_10  and  N3_11 
REMARK    3  A    between atoms: N3_11  and  C8_13 
REMARK    4  A    between atoms: C8_13  and  C9_14 
REMARK    5  A    between atoms: C9_14  and  N4_15 
REMARK    6  A    between atoms: N4_15  and  C10_17 
REMARK    7  A    between atoms: C13_20  and  C14_21 
REMARK    8  A    between atoms: C14_21  and  C15_22 
ROOT
HETATM    1  N2  UNL     1      44.616  10.160  -2.244  1.00  0.00    -0.144 N 
HETATM    2  C7  UNL     1      45.658   9.372  -2.433  1.00  0.00     0.686 A 
HETATM    3  N5  UNL     1      45.216   8.149  -2.885  1.00  0.00    -0.189 N 
ATOM      4  H5  UNL     1      45.789   7.337  -3.118  1.00  0.00     0.184 HD
HETATM    5  C21 UNL     1      43.883   8.240  -2.957  1.00  0.00     0.077 A 
HETATM    6  C22 UNL     1      42.912   7.319  -3.348  1.00  0.00     0.032 A 
HETATM    7  C23 UNL     1      41.574   7.642  -3.342  1.00  0.00     0.002 A 
HETATM    8  C24 UNL     1      41.181   8.897  -2.943  1.00  0.00     0.002 A 
HETATM    9  C25 UNL     1      42.128   9.823  -2.553  1.00  0.00     0.033 A 
HETATM   10  C26 UNL     1      43.470   9.492  -2.562  1.00  0.00     0.084 A 
ENDROOT
BRANCH   2  11
HETATM   11  N3  UNL     1      46.881   9.613  -2.254  1.00  0.00    -0.224 N 
ATOM     12  H3  UNL     1      47.327   8.979  -1.592  1.00  0.00     0.177 HD
BRANCH  11  13
HETATM   13  C8  UNL     1      47.761  10.582  -2.783  1.00  0.00     0.157 C 
BRANCH  13  14
HETATM   14  C9  UNL     1      48.796  10.883  -1.697  1.00  0.00     0.142 C 
BRANCH  14  15
HETATM   15  N4  UNL     1      48.402  12.053  -0.938  1.00  0.00    -0.369 N 
ATOM     16  H4  UNL     1      48.470  12.979  -1.362  1.00  0.00     0.161 HD
BRANCH  15  17
HETATM   17  C10 UNL     1      47.924  11.920   0.387  1.00  0.00     0.143 A 
HETATM   18  C11 UNL     1      47.719  10.721   1.038  1.00  0.00     0.058 A 
HETATM   19  C12 UNL     1      47.252  10.998   2.302  1.00  0.00     0.037 A 
HETATM   20  C13 UNL     1      47.191  12.372   2.371  1.00  0.00     0.059 A 
HETATM   21  O1  UNL     1      47.589  12.860   1.244  1.00  0.00    -0.298 OA
BRANCH  20  22
HETATM   22  C14 UNL     1      46.724  13.090   3.605  1.00  0.00     0.103 C 
BRANCH  22  23
HETATM   23  C15 UNL     1      46.673  14.544   3.394  1.00  0.00    -0.052 A 
HETATM   24  C16 UNL     1      47.726  15.361   3.723  1.00  0.00     0.007 A 
HETATM   25  C17 UNL     1      47.650  16.725   3.513  1.00  0.00     0.001 A 
HETATM   26  C18 UNL     1      46.537  17.325   2.974  1.00  0.00     0.000 A 
HETATM   27  C19 UNL     1      45.473  16.506   2.641  1.00  0.00     0.001 A 
HETATM   28  C20 UNL     1      45.554  15.146   2.852  1.00  0.00     0.007 A 
ENDBRANCH  22  23
ENDBRANCH  20  22
ENDBRANCH  15  17
ENDBRANCH  14  15
ENDBRANCH  13  14
ENDBRANCH  11  13
ENDBRANCH   2  11
BRANCH   1  29
HETATM   29  C6  UNL     1      44.529  11.520  -1.787  1.00  0.00     0.081 A 
HETATM   30  C1  UNL     1      44.390  12.527  -2.718  1.00  0.00     0.075 A 
HETATM   31  N1  UNL     1      44.348  12.201  -4.114  1.00  0.00    -0.100 NA
HETATM   32  C2  UNL     1      44.287  13.857  -2.353  1.00  0.00     0.052 A 
HETATM   33  C3  UNL     1      44.331  14.130  -0.995  1.00  0.00     0.035 A 
HETATM   34 CL1  UNL     1      44.201  15.817  -0.518  1.00  0.00    -0.084 Cl
HETATM   35  C4  UNL     1      44.469  13.141  -0.049  1.00  0.00     0.026 A 
HETATM   36  C5  UNL     1      44.567  11.841  -0.457  1.00  0.00     0.034 A 
ENDBRANCH   1  29
TORSDOF 8
ENDMDL
MODEL 3
REMARK VINA RESULT: -8.034920059      3.610      8.543
REMARK  8 active torsions:
REMARK  status: ('A' for Active; 'I' for Inactive)
REMARK    1  A    between atoms: C6_8  and  N2_9 
REMARK    2  A    between atoms: C7_10  and  N3_11 
REMARK    3  A    between atoms: N3_11  and  C8_13 
REMARK    4  A    between atoms: C8_13  and  C9_14 
REMARK    5  A    between atoms: C9_14  and  N4_15 
REMARK    6  A    between atoms: N4_15  and  C10_17 
REMARK    7  A    between atoms: C13_20  and  C14_21 
REMARK    8  A    between atoms: C14_21  and  C15_22 
ROOT
HETATM    1  N2  UNL     1      46.266  11.901   1.387  1.00  0.00    -0.144 N 
HETATM    2  C7  UNL     1      47.191  11.658   2.298  1.00  0.00     0.686 A 
HETATM    3  N5  UNL     1      47.307  12.758   3.119  1.00  0.00    -0.189 N 
ATOM      4  H5  UNL     1      47.938  12.867   3.913  1.00  0.00     0.184 HD
HETATM    5  C21 UNL     1      46.424  13.654   2.665  1.00  0.00     0.077 A 
HETATM    6  C22 UNL     1      46.102  14.939   3.100  1.00  0.00     0.032 A 
HETATM    7  C23 UNL     1      45.139  15.691   2.465  1.00  0.00     0.002 A 
HETATM    8  C24 UNL     1      44.478  15.169   1.378  1.00  0.00     0.002 A 
HETATM    9  C25 UNL     1      44.782  13.898   0.933  1.00  0.00     0.033 A 
HETATM   10  C26 UNL     1      45.750  13.149   1.575  1.00  0.00     0.084 A 
ENDROOT
BRANCH   2  11
HETATM   11  N3  UNL     1      47.896  10.628   2.462  1.00  0.00    -0.224 N 
ATOM     12  H3  UNL     1      48.808  10.822   2.874  1.00  0.00     0.177 HD
BRANCH  11  13
HETATM   13  C8  UNL     1      47.683   9.260   2.191  1.00  0.00     0.157 C 
BRANCH  13  14
HETATM   14  C9  UNL     1      48.753   8.834   1.183  1.00  0.00     0.142 C 
BRANCH  14  15
HETATM   15  N4  UNL     1      50.073   9.164   1.681  1.00  0.00    -0.369 N 
ATOM     16  H4  UNL     1      50.435  10.112   1.569  1.00  0.00     0.161 HD
BRANCH  15  17
HETATM   17  C10 UNL     1      50.863   8.181   2.323  1.00  0.00     0.143 A 
HETATM   18  C11 UNL     1      51.332   7.028   1.726  1.00  0.00     0.058 A 
HETATM   19  C12 UNL     1      52.056   6.329   2.664  1.00  0.00     0.037 A 
HETATM   20  C13 UNL     1      51.999   7.093   3.807  1.00  0.00     0.059 A 
HETATM   21  O1  UNL     1      51.301   8.151   3.563  1.00  0.00    -0.298 OA
BRANCH  20  22
HETATM   22  C14 UNL     1      52.675   6.674   5.082  1.00  0.00     0.103 C 
BRANCH  22  23
HETATM   23  C15 UNL     1      52.362   5.278   5.423  1.00  0.00    -0.052 A 
HETATM   24  C16 UNL     1      51.087   4.879   5.738  1.00  0.00     0.007 A 
HETATM   25  C17 UNL     1      50.822   3.560   6.055  1.00  0.00     0.001 A 
HETATM   26  C18 UNL     1      51.802   2.596   6.072  1.00  0.00     0.000 A 
HETATM   27  C19 UNL     1      53.088   2.995   5.755  1.00  0.00     0.001 A 
HETATM   28  C20 UNL     1      53.348   4.311   5.439  1.00  0.00     0.007 A 
ENDBRANCH  22  23
ENDBRANCH  20  22
ENDBRANCH  15  17
ENDBRANCH  14  15
ENDBRANCH  13  14
ENDBRANCH  11  13
ENDBRANCH   2  11
BRANCH   1  29
HETATM   29  C6  UNL     1      45.767  11.093   0.309  1.00  0.00     0.081 A 
HETATM   30  C1  UNL     1      46.448  11.086  -0.889  1.00  0.00     0.075 A 
HETATM   31  N1  UNL     1      47.627  11.891  -1.037  1.00  0.00    -0.100 NA
HETATM   32  C2  UNL     1      46.036  10.324  -1.966  1.00  0.00     0.052 A 
HETATM   33  C3  UNL     1      44.894   9.561  -1.782  1.00  0.00     0.035 A 
HETATM   34 CL1  UNL     1      44.358   8.588  -3.144  1.00  0.00    -0.084 Cl
HETATM   35  C4  UNL     1      44.197   9.553  -0.595  1.00  0.00     0.026 A 
HETATM   36  C5  UNL     1      44.643  10.323   0.442  1.00  0.00     0.034 A 
ENDBRANCH   1  29
TORSDOF 8
ENDMDL
MODEL 4
REMARK VINA RESULT: -7.970845107      1.348      1.617
REMARK  8 active torsions:
REMARK  status: ('A' for Active; 'I' for Inactive)
REMARK    1  A    between atoms: C6_8  and  N2_9 
REMARK    2  A    between atoms: C7_10  and  N3_11 
REMARK    3  A    between atoms: N3_11  and  C8_13 
REMARK    4  A    between atoms: C8_13  and  C9_14 
REMARK    5  A    between atoms: C9_14  and  N4_15 
REMARK    6  A    between atoms: N4_15  and  C10_17 
REMARK    7  A    between atoms: C13_20  and  C14_21 
REMARK    8  A    between atoms: C14_21  and  C15_22 
ROOT
HETATM    1  N2  UNL     1      47.833   9.326   0.082  1.00  0.00    -0.144 N 
HETATM    2  C7  UNL     1      48.844  10.053  -0.356  1.00  0.00     0.686 A 
HETATM    3  N5  UNL     1      49.940   9.820   0.446  1.00  0.00    -0.189 N 
ATOM      4  H5  UNL     1      50.866  10.238   0.356  1.00  0.00     0.184 HD
HETATM    5  C21 UNL     1      49.543   8.935   1.367  1.00  0.00     0.077 A 
HETATM    6  C22 UNL     1      50.221   8.337   2.429  1.00  0.00     0.032 A 
HETATM    7  C23 UNL     1      49.596   7.436   3.262  1.00  0.00     0.002 A 
HETATM    8  C24 UNL     1      48.276   7.116   3.048  1.00  0.00     0.002 A 
HETATM    9  C25 UNL     1      47.589   7.697   2.001  1.00  0.00     0.033 A 
HETATM   10  C26 UNL     1      48.222   8.601   1.169  1.00  0.00     0.084 A 
ENDROOT
BRANCH   2  11
HETATM   11  N3  UNL     1      48.890  10.850  -1.329  1.00  0.00    -0.224 N 
ATOM     12  H3  UNL     1      49.072  10.392  -2.221  1.00  0.00     0.177 HD
BRANCH  11  13
HETATM   13  C8  UNL     1      48.740  12.249  -1.437  1.00  0.00     0.157 C 
BRANCH  13  14
HETATM   14  C9  UNL     1      47.766  12.505  -2.589  1.00  0.00     0.142 C 
BRANCH  14  15
HETATM   15  N4  UNL     1      46.418  12.143  -2.198  1.00  0.00    -0.369 N 
ATOM     16  H4  UNL     1      46.010  11.270  -2.534  1.00  0.00     0.161 HD
BRANCH  15  17
HETATM   17  C10 UNL     1      45.666  12.991  -1.351  1.00  0.00     0.143 A 
HETATM   18  C11 UNL     1      44.815  13.988  -1.783  1.00  0.00     0.058 A 
HETATM   19  C12 UNL     1      44.270  14.591  -0.673  1.00  0.00     0.037 A 
HETATM   20  C13 UNL     1      44.817  13.929   0.403  1.00  0.00     0.059 A 
HETATM   21  O1  UNL     1      45.616  13.015  -0.037  1.00  0.00    -0.298 OA
BRANCH  20  22
HETATM   22  C14 UNL     1      44.475  14.289   1.821  1.00  0.00     0.103 C 
BRANCH  22  23
HETATM   23  C15 UNL     1      45.505  15.150   2.421  1.00  0.00    -0.052 A 
HETATM   24  C16 UNL     1      45.375  16.516   2.455  1.00  0.00     0.007 A 
HETATM   25  C17 UNL     1      46.360  17.302   3.025  1.00  0.00     0.001 A 
HETATM   26  C18 UNL     1      47.499  16.767   3.577  1.00  0.00     0.000 A 
HETATM   27  C19 UNL     1      47.634  15.390   3.544  1.00  0.00     0.001 A 
HETATM   28  C20 UNL     1      46.649  14.611   2.975  1.00  0.00     0.007 A 
ENDBRANCH  22  23
ENDBRANCH  20  22
ENDBRANCH  15  17
ENDBRANCH  14  15
ENDBRANCH  13  14
ENDBRANCH  11  13
ENDBRANCH   2  11
BRANCH   1  29
HETATM   29  C6  UNL     1      46.482   9.202  -0.395  1.00  0.00     0.081 A 
HETATM   30  C1  UNL     1      46.258   8.589  -1.609  1.00  0.00     0.075 A 
HETATM   31  N1  UNL     1      47.371   8.103  -2.373  1.00  0.00    -0.100 NA
HETATM   32  C2  UNL     1      44.987   8.422  -2.125  1.00  0.00     0.052 A 
HETATM   33  C3  UNL     1      43.939   8.905  -1.357  1.00  0.00     0.035 A 
HETATM   34 CL1  UNL     1      42.317   8.699  -2.002  1.00  0.00    -0.084 Cl
HETATM   35  C4  UNL     1      44.140   9.520  -0.142  1.00  0.00     0.026 A 
HETATM   36  C5  UNL     1      45.415   9.663   0.327  1.00  0.00     0.034 A 
ENDBRANCH   1  29
TORSDOF 8
ENDMDL
MODEL 5
REMARK VINA RESULT: -7.933645013      3.679      8.656
REMARK  8 active torsions:
REMARK  status: ('A' for Active; 'I' for Inactive)
REMARK    1  A    between atoms: C6_8  and  N2_9 
REMARK    2  A    between atoms: C7_10  and  N3_11 
REMARK    3  A    between atoms: N3_11  and  C8_13 
REMARK    4  A    between atoms: C8_13  and  C9_14 
REMARK    5  A    between atoms: C9_14  and  N4_15 
REMARK    6  A    between atoms: N4_15  and  C10_17 
REMARK    7  A    between atoms: C13_20  and  C14_21 
REMARK    8  A    between atoms: C14_21  and  C15_22 
ROOT
HETATM    1  N2  UNL     1      46.298  11.818   1.304  1.00  0.00    -0.144 N 
HETATM    2  C7  UNL     1      47.250  11.577   2.186  1.00  0.00     0.686 A 
HETATM    3  N5  UNL     1      47.379  12.671   3.012  1.00  0.00    -0.189 N 
ATOM      4  H5  UNL     1      48.032  12.781   3.788  1.00  0.00     0.184 HD
HETATM    5  C21 UNL     1      46.476  13.563   2.589  1.00  0.00     0.077 A 
HETATM    6  C22 UNL     1      46.155  14.842   3.043  1.00  0.00     0.032 A 
HETATM    7  C23 UNL     1      45.168  15.590   2.441  1.00  0.00     0.002 A 
HETATM    8  C24 UNL     1      44.481  15.070   1.370  1.00  0.00     0.002 A 
HETATM    9  C25 UNL     1      44.784  13.805   0.907  1.00  0.00     0.033 A 
HETATM   10  C26 UNL     1      45.776  13.060   1.516  1.00  0.00     0.084 A 
ENDROOT
BRANCH   2  11
HETATM   11  N3  UNL     1      47.968  10.552   2.322  1.00  0.00    -0.224 N 
ATOM     12  H3  UNL     1      48.952  10.765   2.486  1.00  0.00     0.177 HD
BRANCH  11  13
HETATM   13  C8  UNL     1      47.691   9.169   2.295  1.00  0.00     0.157 C 
BRANCH  13  14
HETATM   14  C9  UNL     1      48.826   8.503   1.512  1.00  0.00     0.142 C 
BRANCH  14  15
HETATM   15  N4  UNL     1      50.109   9.005   1.961  1.00  0.00    -0.369 N 
ATOM     16  H4  UNL     1      50.427   9.926   1.657  1.00  0.00     0.161 HD
BRANCH  15  17
HETATM   17  C10 UNL     1      50.922   8.227   2.818  1.00  0.00     0.143 A 
HETATM   18  C11 UNL     1      51.274   8.574   4.106  1.00  0.00     0.058 A 
HETATM   19  C12 UNL     1      52.068   7.571   4.614  1.00  0.00     0.037 A 
HETATM   20  C13 UNL     1      52.168   6.643   3.603  1.00  0.00     0.059 A 
HETATM   21  O1  UNL     1      51.491   7.063   2.587  1.00  0.00    -0.298 OA
BRANCH  20  22
HETATM   22  C14 UNL     1      52.960   5.376   3.756  1.00  0.00     0.103 C 
BRANCH  22  23
HETATM   23  C15 UNL     1      52.340   4.469   4.734  1.00  0.00    -0.052 A 
HETATM   24  C16 UNL     1      53.030   3.996   5.822  1.00  0.00     0.007 A 
HETATM   25  C17 UNL     1      52.422   3.144   6.725  1.00  0.00     0.001 A 
HETATM   26  C18 UNL     1      51.119   2.733   6.584  1.00  0.00     0.000 A 
HETATM   27  C19 UNL     1      50.419   3.207   5.488  1.00  0.00     0.001 A 
HETATM   28  C20 UNL     1      51.030   4.056   4.591  1.00  0.00     0.007 A 
ENDBRANCH  22  23
ENDBRANCH  20  22
ENDBRANCH  15  17
ENDBRANCH  14  15
ENDBRANCH  13  14
ENDBRANCH  11  13
ENDBRANCH   2  11
BRANCH   1  29
HETATM   29  C6  UNL     1      45.774  11.013   0.234  1.00  0.00     0.081 A 
HETATM   30  C1  UNL     1      46.414  11.031  -0.986  1.00  0.00     0.075 A 
HETATM   31  N1  UNL     1      47.574  11.857  -1.166  1.00  0.00    -0.100 NA
HETATM   32  C2  UNL     1      45.977  10.274  -2.058  1.00  0.00     0.052 A 
HETATM   33  C3  UNL     1      44.856   9.489  -1.843  1.00  0.00     0.035 A 
HETATM   34 CL1  UNL     1      44.289   8.522  -3.197  1.00  0.00    -0.084 Cl
HETATM   35  C4  UNL     1      44.200   9.456  -0.633  1.00  0.00     0.026 A 
HETATM   36  C5  UNL     1      44.669  10.222   0.397  1.00  0.00     0.034 A 
ENDBRANCH   1  29
TORSDOF 8
ENDMDL
