MODEL 1
REMARK VINA RESULT: -8.881472502      0.000      0.000
REMARK  9 active torsions:
REMARK  status: ('A' for Active; 'I' for Inactive)
REMARK    1  A    between atoms: O1_2  and  C2_3 
REMARK    2  A    between atoms: C7_8  and  N1_9 
REMARK    3  A    between atoms: N1_9  and  C8_11 
REMARK    4  A    between atoms: C10_13  and  C11_14 
REMARK    5  A    between atoms: C11_14  and  N2_15 
REMARK    6  A    between atoms: C11_14  and  C12_19 
REMARK    7  A    between atoms: C12_19  and  C13_20 
REMARK    8  A    between atoms: C16_23  and  O2_24 
REMARK    9  A    between atoms: O2_24  and  C17_25 
ROOT
HETATM    1  C11 UNL     1      48.179   8.905   2.186  1.00  0.00     0.220 C 
ENDROOT
BRANCH   1   2
HETATM    2  C10 UNL     1      47.751  10.201   1.573  1.00  0.00    -0.023 A 
HETATM    3  C9  UNL     1      47.061  11.128   2.357  1.00  0.00     0.058 A 
HETATM    4  C8  UNL     1      46.652  12.327   1.820  1.00  0.00     0.105 A 
HETATM    5  N5  UNL     1      46.908  12.614   0.553  1.00  0.00    -0.352 N 
HETATM    6  C27 UNL     1      47.567  11.748  -0.225  1.00  0.00     0.090 A 
ATOM      7  H5  UNL     1      46.601  13.506   0.165  1.00  0.00     0.166 HD
HETATM    8  C26 UNL     1      48.000  10.529   0.268  1.00  0.00     0.026 A 
BRANCH   4   9
HETATM    9  N1  UNL     1      46.019  13.122   2.623  1.00  0.00    -0.340 N 
ATOM     10  H1  UNL     1      45.195  12.756   3.099  1.00  0.00     0.167 HD
BRANCH   9  11
HETATM   11  C7  UNL     1      46.386  14.450   2.884  1.00  0.00     0.067 A 
HETATM   12  C2  UNL     1      45.559  15.465   2.450  1.00  0.00     0.094 A 
HETATM   13  C3  UNL     1      45.846  16.797   2.666  1.00  0.00     0.039 A 
HETATM   14  C4  UNL     1      47.009  17.145   3.345  1.00  0.00     0.003 A 
HETATM   15  C5  UNL     1      47.850  16.147   3.788  1.00  0.00     0.002 A 
HETATM   16  C6  UNL     1      47.532  14.827   3.554  1.00  0.00     0.032 A 
BRANCH  12  17
HETATM   17  O1  UNL     1      44.397  15.151   1.773  1.00  0.00    -0.354 OA
HETATM   18  C1  UNL     1      44.187  15.442   0.413  1.00  0.00     0.210 C 
ENDBRANCH  12  17
ENDBRANCH   9  11
ENDBRANCH   4   9
ENDBRANCH   1   2
BRANCH   1  19
HETATM   19  N2  UNL     1      47.134   7.947   1.947  1.00  0.00    -0.071 N 
ATOM     20  H23 UNL     1      46.621   7.699   2.793  1.00  0.00     0.275 HD
ATOM     21  H22 UNL     1      46.349   8.336   1.425  1.00  0.00     0.275 HD
ATOM     22  H21 UNL     1      47.556   7.140   1.488  1.00  0.00     0.275 HD
ENDBRANCH   1  19
BRANCH   1  23
HETATM   23  C12 UNL     1      49.505   8.522   1.606  1.00  0.00     0.076 C 
BRANCH  23  24
HETATM   24  C13 UNL     1      50.351   7.780   2.580  1.00  0.00    -0.053 A 
HETATM   25  C14 UNL     1      50.363   6.402   2.547  1.00  0.00     0.010 A 
HETATM   26  C15 UNL     1      51.148   5.723   3.452  1.00  0.00     0.041 A 
HETATM   27  C16 UNL     1      51.939   6.324   4.407  1.00  0.00     0.114 A 
HETATM   28  C24 UNL     1      51.896   7.727   4.404  1.00  0.00     0.150 A 
HETATM   29  F1  UNL     1      52.656   8.359   5.324  1.00  0.00    -0.203 F 
HETATM   30  C25 UNL     1      51.122   8.438   3.514  1.00  0.00     0.052 A 
BRANCH  27  31
HETATM   31  O2  UNL     1      52.720   5.643   5.307  1.00  0.00    -0.307 OA
BRANCH  31  32
HETATM   32  C17 UNL     1      52.515   4.439   5.899  1.00  0.00     0.091 A 
HETATM   33  C18 UNL     1      51.685   4.355   7.028  1.00  0.00     0.055 A 
HETATM   34  C19 UNL     1      51.497   3.132   7.603  1.00  0.00     0.092 A 
HETATM   35  N3  UNL     1      52.070   2.010   7.139  1.00  0.00    -0.351 N 
HETATM   36  C20 UNL     1      52.876   2.056   6.052  1.00  0.00     0.118 A 
ATOM     37  H3  UNL     1      51.897   1.120   7.607  1.00  0.00     0.166 HD
HETATM   38  N4  UNL     1      53.555   1.064   5.405  1.00  0.00    -0.352 N 
HETATM   39  C23 UNL     1      53.084   3.275   5.451  1.00  0.00     0.043 A 
HETATM   40  C21 UNL     1      54.207   1.612   4.386  1.00  0.00     0.090 A 
ATOM     41  H4  UNL     1      53.561   0.076   5.659  1.00  0.00     0.166 HD
HETATM   42  C22 UNL     1      53.941   2.975   4.382  1.00  0.00     0.035 A 
ENDBRANCH  31  32
ENDBRANCH  27  31
ENDBRANCH  23  24
ENDBRANCH   1  23
TORSDOF 9
ENDMDL
MODEL 2
REMARK VINA RESULT: -8.861677097      0.482      1.586
REMARK  9 active torsions:
REMARK  status: ('A' for Active; 'I' for Inactive)
REMARK    1  A    between atoms: O1_2  and  C2_3 
REMARK    2  A    between atoms: C7_8  and  N1_9 
REMARK    3  A    between atoms: N1_9  and  C8_11 
REMARK    4  A    between atoms: C10_13  and  C11_14 
REMARK    5  A    between atoms: C11_14  and  N2_15 
REMARK    6  A    between atoms: C11_14  and  C12_19 
REMARK    7  A    between atoms: C12_19  and  C13_20 
REMARK    8  A    between atoms: C16_23  and  O2_24 
REMARK    9  A    between atoms: O2_24  and  C17_25 
ROOT
HETATM    1  C11 UNL     1      48.202   9.031   2.092  1.00  0.00     0.220 C 
ENDROOT
BRANCH   1   2
HETATM    2  C10 UNL     1      47.647  10.288   1.500  1.00  0.00    -0.023 A 
HETATM    3  C9  UNL     1      47.020  11.213   2.337  1.00  0.00     0.058 A 
HETATM    4  C8  UNL     1      46.497  12.377   1.820  1.00  0.00     0.105 A 
HETATM    5  N5  UNL     1      46.584  12.632   0.523  1.00  0.00    -0.352 N 
HETATM    6  C27 UNL     1      47.180  11.765  -0.304  1.00  0.00     0.090 A 
ATOM      7  H5  UNL     1      46.194  13.497   0.152  1.00  0.00     0.166 HD
HETATM    8  C26 UNL     1      47.721  10.581   0.166  1.00  0.00     0.026 A 
BRANCH   4   9
HETATM    9  N1  UNL     1      45.934  13.173   2.672  1.00  0.00    -0.340 N 
ATOM     10  H1  UNL     1      45.130  12.820   3.191  1.00  0.00     0.167 HD
BRANCH   9  11
HETATM   11  C7  UNL     1      46.352  14.487   2.933  1.00  0.00     0.067 A 
HETATM   12  C2  UNL     1      45.557  15.532   2.511  1.00  0.00     0.094 A 
HETATM   13  C3  UNL     1      45.894  16.852   2.727  1.00  0.00     0.039 A 
HETATM   14  C4  UNL     1      47.075  17.156   3.395  1.00  0.00     0.003 A 
HETATM   15  C5  UNL     1      47.884  16.128   3.827  1.00  0.00     0.002 A 
HETATM   16  C6  UNL     1      47.516  14.820   3.593  1.00  0.00     0.032 A 
BRANCH  12  17
HETATM   17  O1  UNL     1      44.378  15.263   1.844  1.00  0.00    -0.354 OA
HETATM   18  C1  UNL     1      44.149  15.605   0.499  1.00  0.00     0.210 C 
ENDBRANCH  12  17
ENDBRANCH   9  11
ENDBRANCH   4   9
ENDBRANCH   1   2
BRANCH   1  19
HETATM   19  N2  UNL     1      47.169   8.032   2.034  1.00  0.00    -0.071 N 
ATOM     20  H23 UNL     1      46.690   7.903   2.925  1.00  0.00     0.275 HD
ATOM     21  H22 UNL     1      46.359   8.329   1.488  1.00  0.00     0.275 HD
ATOM     22  H21 UNL     1      47.591   7.173   1.682  1.00  0.00     0.275 HD
ENDBRANCH   1  19
BRANCH   1  23
HETATM   23  C12 UNL     1      49.448   8.667   1.348  1.00  0.00     0.076 C 
BRANCH  23  24
HETATM   24  C13 UNL     1      50.421   7.935   2.205  1.00  0.00    -0.053 A 
HETATM   25  C14 UNL     1      50.812   6.663   1.843  1.00  0.00     0.010 A 
HETATM   26  C15 UNL     1      51.711   5.993   2.642  1.00  0.00     0.041 A 
HETATM   27  C16 UNL     1      52.263   6.503   3.797  1.00  0.00     0.114 A 
HETATM   28  C24 UNL     1      51.837   7.800   4.127  1.00  0.00     0.150 A 
HETATM   29  F1  UNL     1      52.353   8.340   5.251  1.00  0.00    -0.203 F 
HETATM   30  C25 UNL     1      50.939   8.499   3.351  1.00  0.00     0.052 A 
BRANCH  27  31
HETATM   31  O2  UNL     1      53.160   5.832   4.590  1.00  0.00    -0.307 OA
BRANCH  31  32
HETATM   32  C17 UNL     1      53.249   4.507   4.871  1.00  0.00     0.091 A 
HETATM   33  C18 UNL     1      54.040   3.678   4.061  1.00  0.00     0.055 A 
HETATM   34  C19 UNL     1      54.110   2.350   4.367  1.00  0.00     0.092 A 
HETATM   35  N3  UNL     1      53.459   1.804   5.406  1.00  0.00    -0.351 N 
HETATM   36  C20 UNL     1      52.688   2.577   6.209  1.00  0.00     0.118 A 
ATOM     37  H3  UNL     1      53.544   0.805   5.592  1.00  0.00     0.166 HD
HETATM   38  N4  UNL     1      51.947   2.253   7.310  1.00  0.00    -0.352 N 
HETATM   39  C23 UNL     1      52.598   3.918   5.925  1.00  0.00     0.043 A 
HETATM   40  C21 UNL     1      51.370   3.364   7.754  1.00  0.00     0.090 A 
ATOM     41  H4  UNL     1      51.853   1.324   7.718  1.00  0.00     0.166 HD
HETATM   42  C22 UNL     1      51.749   4.412   6.925  1.00  0.00     0.035 A 
ENDBRANCH  31  32
ENDBRANCH  27  31
ENDBRANCH  23  24
ENDBRANCH   1  23
TORSDOF 9
ENDMDL
MODEL 3
REMARK VINA RESULT: -8.822285838      1.665      2.068
REMARK  9 active torsions:
REMARK  status: ('A' for Active; 'I' for Inactive)
REMARK    1  A    between atoms: O1_2  and  C2_3 
REMARK    2  A    between atoms: C7_8  and  N1_9 
REMARK    3  A    between atoms: N1_9  and  C8_11 
REMARK    4  A    between atoms: C10_13  and  C11_14 
REMARK    5  A    between atoms: C11_14  and  N2_15 
REMARK    6  A    between atoms: C11_14  and  C12_19 
REMARK    7  A    between atoms: C12_19  and  C13_20 
REMARK    8  A    between atoms: C16_23  and  O2_24 
REMARK    9  A    between atoms: O2_24  and  C17_25 
ROOT
HETATM    1  C11 UNL     1      48.304   9.484   1.281  1.00  0.00     0.220 C 
ENDROOT
BRANCH   1   2
HETATM    2  C10 UNL     1      47.499  10.694   0.928  1.00  0.00    -0.023 A 
HETATM    3  C9  UNL     1      47.042  11.527   1.951  1.00  0.00     0.058 A 
HETATM    4  C8  UNL     1      46.296  12.647   1.656  1.00  0.00     0.105 A 
HETATM    5  N5  UNL     1      46.004  12.944   0.399  1.00  0.00    -0.352 N 
HETATM    6  C27 UNL     1      46.427  12.166  -0.603  1.00  0.00     0.090 A 
ATOM      7  H5  UNL     1      45.451  13.776   0.193  1.00  0.00     0.166 HD
HETATM    8  C26 UNL     1      47.180  11.030  -0.360  1.00  0.00     0.026 A 
BRANCH   4   9
HETATM    9  N1  UNL     1      45.917  13.358   2.670  1.00  0.00    -0.340 N 
ATOM     10  H1  UNL     1      45.254  12.938   3.322  1.00  0.00     0.167 HD
BRANCH   9  11
HETATM   11  C7  UNL     1      46.354  14.665   2.935  1.00  0.00     0.067 A 
HETATM   12  C2  UNL     1      45.569  15.722   2.526  1.00  0.00     0.094 A 
HETATM   13  C3  UNL     1      45.923  17.037   2.748  1.00  0.00     0.039 A 
HETATM   14  C4  UNL     1      47.114  17.321   3.408  1.00  0.00     0.003 A 
HETATM   15  C5  UNL     1      47.914  16.280   3.826  1.00  0.00     0.002 A 
HETATM   16  C6  UNL     1      47.528  14.979   3.587  1.00  0.00     0.032 A 
BRANCH  12  17
HETATM   17  O1  UNL     1      44.380  15.472   1.869  1.00  0.00    -0.354 OA
HETATM   18  C1  UNL     1      44.050  16.029   0.620  1.00  0.00     0.210 C 
ENDBRANCH  12  17
ENDBRANCH   9  11
ENDBRANCH   4   9
ENDBRANCH   1   2
BRANCH   1  19
HETATM   19  N2  UNL     1      49.628   9.675   0.753  1.00  0.00    -0.071 N 
ATOM     20  H23 UNL     1      49.727   9.336  -0.204  1.00  0.00     0.275 HD
ATOM     21  H22 UNL     1      49.846  10.654   0.571  1.00  0.00     0.275 HD
ATOM     22  H21 UNL     1      50.283   9.235   1.400  1.00  0.00     0.275 HD
ENDBRANCH   1  19
BRANCH   1  23
HETATM   23  C12 UNL     1      48.258   9.300   2.766  1.00  0.00     0.076 C 
BRANCH  23  24
HETATM   24  C13 UNL     1      48.977   8.072   3.202  1.00  0.00    -0.053 A 
HETATM   25  C14 UNL     1      48.378   6.843   3.025  1.00  0.00     0.010 A 
HETATM   26  C15 UNL     1      49.050   5.713   3.432  1.00  0.00     0.041 A 
HETATM   27  C16 UNL     1      50.300   5.712   4.014  1.00  0.00     0.114 A 
HETATM   28  C24 UNL     1      50.871   6.984   4.174  1.00  0.00     0.150 A 
HETATM   29  F1  UNL     1      52.096   7.031   4.740  1.00  0.00    -0.203 F 
HETATM   30  C25 UNL     1      50.227   8.135   3.779  1.00  0.00     0.052 A 
BRANCH  27  31
HETATM   31  O2  UNL     1      50.966   4.582   4.417  1.00  0.00    -0.307 OA
BRANCH  31  32
HETATM   32  C17 UNL     1      50.877   3.889   5.581  1.00  0.00     0.091 A 
HETATM   33  C18 UNL     1      51.647   4.286   6.685  1.00  0.00     0.055 A 
HETATM   34  C19 UNL     1      51.537   3.571   7.842  1.00  0.00     0.092 A 
HETATM   35  N3  UNL     1      50.727   2.508   7.970  1.00  0.00    -0.351 N 
HETATM   36  C20 UNL     1      49.969   2.099   6.924  1.00  0.00     0.118 A 
ATOM     37  H3  UNL     1      50.683   2.007   8.857  1.00  0.00     0.166 HD
HETATM   38  N4  UNL     1      49.083   1.066   6.818  1.00  0.00    -0.352 N 
HETATM   39  C23 UNL     1      50.060   2.800   5.745  1.00  0.00     0.043 A 
HETATM   40  C21 UNL     1      48.588   1.078   5.586  1.00  0.00     0.090 A 
ATOM     41  H4  UNL     1      48.843   0.402   7.555  1.00  0.00     0.166 HD
HETATM   42  C22 UNL     1      49.166   2.133   4.895  1.00  0.00     0.035 A 
ENDBRANCH  31  32
ENDBRANCH  27  31
ENDBRANCH  23  24
ENDBRANCH   1  23
TORSDOF 9
ENDMDL
MODEL 4
REMARK VINA RESULT: -8.751233755      1.412      2.541
REMARK  9 active torsions:
REMARK  status: ('A' for Active; 'I' for Inactive)
REMARK    1  A    between atoms: O1_2  and  C2_3 
REMARK    2  A    between atoms: C7_8  and  N1_9 
REMARK    3  A    between atoms: N1_9  and  C8_11 
REMARK    4  A    between atoms: C10_13  and  C11_14 
REMARK    5  A    between atoms: C11_14  and  N2_15 
REMARK    6  A    between atoms: C11_14  and  C12_19 
REMARK    7  A    between atoms: C12_19  and  C13_20 
REMARK    8  A    between atoms: C16_23  and  O2_24 
REMARK    9  A    between atoms: O2_24  and  C17_25 
ROOT
HETATM    1  C11 UNL     1      47.953   9.291   1.386  1.00  0.00     0.220 C 
ENDROOT
BRANCH   1   2
HETATM    2  C10 UNL     1      46.881  10.334   1.389  1.00  0.00    -0.023 A 
HETATM    3  C9  UNL     1      47.072  11.501   2.131  1.00  0.00     0.058 A 
HETATM    4  C8  UNL     1      46.101  12.477   2.156  1.00  0.00     0.105 A 
HETATM    5  N5  UNL     1      44.976  12.319   1.476  1.00  0.00    -0.352 N 
HETATM    6  C27 UNL     1      44.763  11.212   0.755  1.00  0.00     0.090 A 
ATOM      7  H5  UNL     1      44.264  13.049   1.501  1.00  0.00     0.166 HD
HETATM    8  C26 UNL     1      45.707  10.202   0.698  1.00  0.00     0.026 A 
BRANCH   4   9
HETATM    9  N1  UNL     1      46.367  13.524   2.871  1.00  0.00    -0.340 N 
ATOM     10  H1  UNL     1      47.004  13.409   3.660  1.00  0.00     0.167 HD
BRANCH   9  11
HETATM   11  C7  UNL     1      45.843  14.804   2.638  1.00  0.00     0.067 A 
HETATM   12  C2  UNL     1      46.551  15.901   3.079  1.00  0.00     0.094 A 
HETATM   13  C3  UNL     1      46.107  17.194   2.891  1.00  0.00     0.039 A 
HETATM   14  C4  UNL     1      44.902  17.413   2.232  1.00  0.00     0.003 A 
HETATM   15  C5  UNL     1      44.178  16.332   1.781  1.00  0.00     0.002 A 
HETATM   16  C6  UNL     1      44.652  15.054   1.987  1.00  0.00     0.032 A 
BRANCH  12  17
HETATM   17  O1  UNL     1      47.751  15.716   3.737  1.00  0.00    -0.354 OA
HETATM   18  C1  UNL     1      48.506  16.767   4.289  1.00  0.00     0.210 C 
ENDBRANCH  12  17
ENDBRANCH   9  11
ENDBRANCH   4   9
ENDBRANCH   1   2
BRANCH   1  19
HETATM   19  N2  UNL     1      49.167   9.918   0.937  1.00  0.00    -0.071 N 
ATOM     20  H23 UNL     1      49.004  10.648   0.244  1.00  0.00     0.275 HD
ATOM     21  H22 UNL     1      49.599  10.505   1.651  1.00  0.00     0.275 HD
ATOM     22  H21 UNL     1      49.787   9.182   0.600  1.00  0.00     0.275 HD
ENDBRANCH   1  19
BRANCH   1  23
HETATM   23  C12 UNL     1      48.041   8.698   2.757  1.00  0.00     0.076 C 
BRANCH  23  24
HETATM   24  C13 UNL     1      49.359   8.052   3.006  1.00  0.00    -0.053 A 
HETATM   25  C14 UNL     1      49.676   6.890   2.335  1.00  0.00     0.010 A 
HETATM   26  C15 UNL     1      50.897   6.299   2.572  1.00  0.00     0.041 A 
HETATM   27  C16 UNL     1      51.847   6.787   3.443  1.00  0.00     0.114 A 
HETATM   28  C24 UNL     1      51.482   7.971   4.103  1.00  0.00     0.150 A 
HETATM   29  F1  UNL     1      52.383   8.486   4.967  1.00  0.00    -0.203 F 
HETATM   30  C25 UNL     1      50.270   8.589   3.891  1.00  0.00     0.052 A 
BRANCH  27  31
HETATM   31  O2  UNL     1      53.063   6.195   3.674  1.00  0.00    -0.307 OA
BRANCH  31  32
HETATM   32  C17 UNL     1      53.351   4.934   4.085  1.00  0.00     0.091 A 
HETATM   33  C18 UNL     1      54.234   4.145   3.332  1.00  0.00     0.055 A 
HETATM   34  C19 UNL     1      54.506   2.880   3.768  1.00  0.00     0.092 A 
HETATM   35  N3  UNL     1      53.967   2.360   4.882  1.00  0.00    -0.351 N 
HETATM   36  C20 UNL     1      53.111   3.096   5.633  1.00  0.00     0.118 A 
ATOM     37  H3  UNL     1      54.202   1.409   5.164  1.00  0.00     0.166 HD
HETATM   38  N4  UNL     1      52.453   2.788   6.788  1.00  0.00    -0.352 N 
HETATM   39  C23 UNL     1      52.819   4.373   5.218  1.00  0.00     0.043 A 
HETATM   40  C21 UNL     1      51.731   3.847   7.140  1.00  0.00     0.090 A 
ATOM     41  H4  UNL     1      52.505   1.903   7.292  1.00  0.00     0.166 HD
HETATM   42  C22 UNL     1      51.932   4.844   6.196  1.00  0.00     0.035 A 
ENDBRANCH  31  32
ENDBRANCH  27  31
ENDBRANCH  23  24
ENDBRANCH   1  23
TORSDOF 9
ENDMDL
MODEL 5
REMARK VINA RESULT: -8.669981803      1.912      2.664
REMARK  9 active torsions:
REMARK  status: ('A' for Active; 'I' for Inactive)
REMARK    1  A    between atoms: O1_2  and  C2_3 
REMARK    2  A    between atoms: C7_8  and  N1_9 
REMARK    3  A    between atoms: N1_9  and  C8_11 
REMARK    4  A    between atoms: C10_13  and  C11_14 
REMARK    5  A    between atoms: C11_14  and  N2_15 
REMARK    6  A    between atoms: C11_14  and  C12_19 
REMARK    7  A    between atoms: C12_19  and  C13_20 
REMARK    8  A    between atoms: C16_23  and  O2_24 
REMARK    9  A    between atoms: O2_24  and  C17_25 
ROOT
HETATM    1  C11 UNL     1      47.482   9.146   1.518  1.00  0.00     0.220 C 
ENDROOT
BRANCH   1   2
HETATM    2  C10 UNL     1      46.570  10.323   1.370  1.00  0.00    -0.023 A 
HETATM    3  C9  UNL     1      46.813  11.469   2.130  1.00  0.00     0.058 A 
HETATM    4  C8  UNL     1      45.989  12.566   2.018  1.00  0.00     0.105 A 
HETATM    5  N5  UNL     1      44.958  12.546   1.188  1.00  0.00    -0.352 N 
HETATM    6  C27 UNL     1      44.699  11.464   0.446  1.00  0.00     0.090 A 
ATOM      7  H5  UNL     1      44.355  13.365   1.113  1.00  0.00     0.166 HD
HETATM    8  C26 UNL     1      45.496  10.335   0.522  1.00  0.00     0.026 A 
BRANCH   4   9
HETATM    9  N1  UNL     1      46.293  13.581   2.763  1.00  0.00    -0.340 N 
ATOM     10  H1  UNL     1      46.949  13.428   3.529  1.00  0.00     0.167 HD
BRANCH   9  11
HETATM   11  C7  UNL     1      45.784  14.877   2.591  1.00  0.00     0.067 A 
HETATM   12  C2  UNL     1      46.527  15.947   3.043  1.00  0.00     0.094 A 
HETATM   13  C3  UNL     1      46.101  17.253   2.913  1.00  0.00     0.039 A 
HETATM   14  C4  UNL     1      44.878  17.515   2.304  1.00  0.00     0.003 A 
HETATM   15  C5  UNL     1      44.119  16.461   1.844  1.00  0.00     0.002 A 
HETATM   16  C6  UNL     1      44.577  15.169   1.991  1.00  0.00     0.032 A 
BRANCH  12  17
HETATM   17  O1  UNL     1      47.746  15.719   3.652  1.00  0.00    -0.354 OA
HETATM   18  C1  UNL     1      48.526  16.734   4.236  1.00  0.00     0.210 C 
ENDBRANCH  12  17
ENDBRANCH   9  11
ENDBRANCH   4   9
ENDBRANCH   1   2
BRANCH   1  19
HETATM   19  N2  UNL     1      48.192   8.990   0.277  1.00  0.00    -0.071 N 
ATOM     20  H23 UNL     1      47.630   8.547  -0.450  1.00  0.00     0.275 HD
ATOM     21  H22 UNL     1      48.357   9.875  -0.201  1.00  0.00     0.275 HD
ATOM     22  H21 UNL     1      49.053   8.481   0.478  1.00  0.00     0.275 HD
ENDBRANCH   1  19
BRANCH   1  23
HETATM   23  C12 UNL     1      48.365   9.376   2.704  1.00  0.00     0.076 C 
BRANCH  23  24
HETATM   24  C13 UNL     1      49.059   8.132   3.137  1.00  0.00    -0.053 A 
HETATM   25  C14 UNL     1      48.320   6.986   3.341  1.00  0.00     0.010 A 
HETATM   26  C15 UNL     1      48.970   5.840   3.741  1.00  0.00     0.041 A 
HETATM   27  C16 UNL     1      50.328   5.745   3.959  1.00  0.00     0.114 A 
HETATM   28  C24 UNL     1      51.039   6.935   3.739  1.00  0.00     0.150 A 
HETATM   29  F1  UNL     1      52.374   6.890   3.940  1.00  0.00    -0.203 F 
HETATM   30  C25 UNL     1      50.422   8.099   3.338  1.00  0.00     0.052 A 
BRANCH  27  31
HETATM   31  O2  UNL     1      50.971   4.601   4.357  1.00  0.00    -0.307 OA
BRANCH  31  32
HETATM   32  C17 UNL     1      50.891   3.923   5.530  1.00  0.00     0.091 A 
HETATM   33  C18 UNL     1      51.669   4.335   6.623  1.00  0.00     0.055 A 
HETATM   34  C19 UNL     1      51.568   3.635   7.791  1.00  0.00     0.092 A 
HETATM   35  N3  UNL     1      50.761   2.572   7.938  1.00  0.00    -0.351 N 
HETATM   36  C20 UNL     1      49.997   2.148   6.903  1.00  0.00     0.118 A 
ATOM     37  H3  UNL     1      50.724   2.082   8.832  1.00  0.00     0.166 HD
HETATM   38  N4  UNL     1      49.111   1.112   6.817  1.00  0.00    -0.352 N 
HETATM   39  C23 UNL     1      50.077   2.834   5.714  1.00  0.00     0.043 A 
HETATM   40  C21 UNL     1      48.607   1.108   5.588  1.00  0.00     0.090 A 
ATOM     41  H4  UNL     1      48.878   0.458   7.563  1.00  0.00     0.166 HD
HETATM   42  C22 UNL     1      49.179   2.155   4.879  1.00  0.00     0.035 A 
ENDBRANCH  31  32
ENDBRANCH  27  31
ENDBRANCH  23  24
ENDBRANCH   1  23
TORSDOF 9
ENDMDL
