MODEL 1
REMARK VINA RESULT: -8.882563535      0.000      0.000
REMARK  14 active torsions:
REMARK  status: ('A' for Active; 'I' for Inactive)
REMARK    1  A    between atoms: C2_2  and  C3_3 
REMARK    2  A    between atoms: C3_3  and  C4_4 
REMARK    3  A    between atoms: C4_4  and  C5_5 
REMARK    4  A    between atoms: C5_5  and  N1_6 
REMARK    5  A    between atoms: C5_5  and  C11_15 
REMARK       I    between atoms: N1_6  and  C6_8 
REMARK    6  A    between atoms: C6_8  and  O2_10 
REMARK    7  A    between atoms: O2_10  and  C7_11 
REMARK    8  A    between atoms: C11_15  and  C12_17 
REMARK    9  A    between atoms: C12_17  and  N2_18 
REMARK       I    between atoms: N2_18  and  C13_19 
REMARK   10  A    between atoms: N2_18  and  C25_40 
REMARK   11  A    between atoms: C13_19  and  C14_21 
REMARK   12  A    between atoms: C14_21  and  N3_23 
REMARK   13  A    between atoms: C19_29  and  N4_30 
REMARK   14  A    between atoms: N5_33  and  C20_34 
ROOT
HETATM    1  N2  UNL     1      17.553  23.293  17.851  1.00  0.00    -0.335 N 
HETATM    2  C13 UNL     1      18.854  23.896  17.662  1.00  0.00     0.243 C 
HETATM    3  O4  UNL     1      19.800  23.353  18.280  1.00  0.00    -0.271 OA
ENDROOT
BRANCH   1   4
HETATM    4  C12 UNL     1      16.338  23.806  17.305  1.00  0.00     0.207 C 
BRANCH   4   5
HETATM    5  C11 UNL     1      15.933  23.183  16.023  1.00  0.00     0.167 C 
HETATM    6  O3  UNL     1      16.651  23.229  15.013  1.00  0.00    -0.294 OA
BRANCH   5   7
HETATM    7  C5  UNL     1      14.653  22.472  15.839  1.00  0.00     0.158 C 
BRANCH   7   8
HETATM    8  C4  UNL     1      13.704  23.468  15.169  1.00  0.00     0.033 C 
BRANCH   8   9
HETATM    9  C3  UNL     1      12.953  22.792  14.039  1.00  0.00     0.002 C 
BRANCH   9  10
HETATM   10  C2  UNL     1      13.888  22.040  13.124  1.00  0.00    -0.004 C 
HETATM   11  C1  UNL     1      13.245  20.713  12.779  1.00  0.00     0.005 C 
ENDBRANCH   9  10
ENDBRANCH   8   9
ENDBRANCH   7   8
BRANCH   7  12
HETATM   12  N1  UNL     1      14.076  21.981  17.067  1.00  0.00    -0.325 N 
HETATM   13  C6  UNL     1      13.528  20.673  17.091  1.00  0.00     0.361 C 
HETATM   14  O1  UNL     1      13.563  19.994  16.026  1.00  0.00    -0.238 OA
ATOM     15  H1  UNL     1      14.062  22.564  17.903  1.00  0.00     0.165 HD
BRANCH  13  16
HETATM   16  O2  UNL     1      12.955  20.077  18.198  1.00  0.00    -0.294 OA
BRANCH  16  17
HETATM   17  C7  UNL     1      13.395  18.864  18.782  1.00  0.00     0.061 C 
HETATM   18  C8  UNL     1      13.310  19.026  20.281  1.00  0.00     0.046 C 
HETATM   19  C9  UNL     1      12.495  17.709  18.388  1.00  0.00     0.046 C 
HETATM   20  C10 UNL     1      14.806  18.497  18.421  1.00  0.00     0.046 C 
ENDBRANCH  16  17
ENDBRANCH  13  16
ENDBRANCH   7  12
ENDBRANCH   5   7
ENDBRANCH   4   5
ENDBRANCH   1   4
BRANCH   1  21
HETATM   21  C25 UNL     1      17.544  22.070  18.675  1.00  0.00     0.025 C 
HETATM   22  C26 UNL     1      18.663  22.103  19.679  1.00  0.00     0.037 C 
HETATM   23  C27 UNL     1      17.650  20.847  17.745  1.00  0.00     0.037 C 
HETATM   24  C28 UNL     1      16.233  21.929  19.405  1.00  0.00     0.037 C 
ENDBRANCH   1  21
BRANCH   2  25
HETATM   25  C14 UNL     1      19.066  25.073  16.795  1.00  0.00     0.170 C 
HETATM   26  C15 UNL     1      20.002  24.598  15.685  1.00  0.00     0.042 C 
BRANCH  25  27
HETATM   27  N3  UNL     1      19.357  26.236  17.406  1.00  0.00    -0.369 N 
HETATM   28  C16 UNL     1      20.438  27.060  17.495  1.00  0.00     0.148 C 
HETATM   29  C17 UNL     1      20.973  27.675  16.247  1.00  0.00     0.207 C 
HETATM   30  C24 UNL     1      21.514  26.833  18.481  1.00  0.00     0.280 C 
HETATM   31  O5  UNL     1      20.202  28.311  15.513  1.00  0.00    -0.286 OA
HETATM   32  C18 UNL     1      22.357  27.503  15.958  1.00  0.00     0.112 C 
HETATM   33  C19 UNL     1      23.289  27.123  16.889  1.00  0.00     0.183 C 
HETATM   34  N5  UNL     1      22.913  26.777  18.198  1.00  0.00    -0.284 N 
HETATM   35  O8  UNL     1      21.146  26.677  19.669  1.00  0.00    -0.265 OA
ATOM     36  H3  UNL     1      18.564  26.593  17.940  1.00  0.00     0.160 HD
BRANCH  33  37
HETATM   37  N4  UNL     1      24.575  27.045  16.310  1.00  0.00    -0.098 N 
HETATM   38  O6  UNL     1      25.081  25.966  16.025  1.00  0.00    -0.531 OA
HETATM   39  O7  UNL     1      25.281  28.199  16.109  1.00  0.00    -0.531 OA
ENDBRANCH  33  37
BRANCH  34  40
HETATM   40  C20 UNL     1      23.781  26.440  19.233  1.00  0.00     0.031 C 
HETATM   41  C21 UNL     1      25.182  27.031  19.172  1.00  0.00     0.038 C 
HETATM   42  C22 UNL     1      24.018  24.900  19.102  1.00  0.00     0.038 C 
HETATM   43  C23 UNL     1      23.358  26.664  20.669  1.00  0.00     0.038 C 
ENDBRANCH  34  40
ENDBRANCH  25  27
ENDBRANCH   2  25
TORSDOF 14
ENDMDL
MODEL 2
REMARK VINA RESULT: -8.784373031      2.134     10.197
REMARK  14 active torsions:
REMARK  status: ('A' for Active; 'I' for Inactive)
REMARK    1  A    between atoms: C2_2  and  C3_3 
REMARK    2  A    between atoms: C3_3  and  C4_4 
REMARK    3  A    between atoms: C4_4  and  C5_5 
REMARK    4  A    between atoms: C5_5  and  N1_6 
REMARK    5  A    between atoms: C5_5  and  C11_15 
REMARK       I    between atoms: N1_6  and  C6_8 
REMARK    6  A    between atoms: C6_8  and  O2_10 
REMARK    7  A    between atoms: O2_10  and  C7_11 
REMARK    8  A    between atoms: C11_15  and  C12_17 
REMARK    9  A    between atoms: C12_17  and  N2_18 
REMARK       I    between atoms: N2_18  and  C13_19 
REMARK   10  A    between atoms: N2_18  and  C25_40 
REMARK   11  A    between atoms: C13_19  and  C14_21 
REMARK   12  A    between atoms: C14_21  and  N3_23 
REMARK   13  A    between atoms: C19_29  and  N4_30 
REMARK   14  A    between atoms: N5_33  and  C20_34 
ROOT
HETATM    1  N2  UNL     1      18.304  23.232  18.881  1.00  0.00    -0.335 N 
HETATM    2  C13 UNL     1      16.977  22.655  18.917  1.00  0.00     0.243 C 
HETATM    3  O4  UNL     1      16.564  22.314  20.051  1.00  0.00    -0.271 OA
ENDROOT
BRANCH   1   4
HETATM    4  C12 UNL     1      18.989  23.607  17.687  1.00  0.00     0.207 C 
BRANCH   4   5
HETATM    5  C11 UNL     1      18.786  25.019  17.284  1.00  0.00     0.167 C 
HETATM    6  O3  UNL     1      17.711  25.608  17.467  1.00  0.00    -0.294 OA
BRANCH   5   7
HETATM    7  C5  UNL     1      19.831  25.830  16.631  1.00  0.00     0.158 C 
BRANCH   7   8
HETATM    8  C4  UNL     1      19.702  25.563  15.130  1.00  0.00     0.033 C 
BRANCH   8   9
HETATM    9  C3  UNL     1      19.181  26.800  14.424  1.00  0.00     0.002 C 
BRANCH   9  10
HETATM   10  C2  UNL     1      19.942  28.036  14.837  1.00  0.00    -0.004 C 
HETATM   11  C1  UNL     1      21.231  28.083  14.043  1.00  0.00     0.005 C 
ENDBRANCH   9  10
ENDBRANCH   8   9
ENDBRANCH   7   8
BRANCH   7  12
HETATM   12  N1  UNL     1      21.169  25.529  17.078  1.00  0.00    -0.325 N 
HETATM   13  C6  UNL     1      21.936  26.556  17.687  1.00  0.00     0.361 C 
HETATM   14  O1  UNL     1      21.411  27.699  17.804  1.00  0.00    -0.238 OA
ATOM     15  H1  UNL     1      21.558  24.594  16.959  1.00  0.00     0.165 HD
BRANCH  13  16
HETATM   16  O2  UNL     1      23.222  26.402  18.167  1.00  0.00    -0.294 OA
BRANCH  16  17
HETATM   17  C7  UNL     1      24.399  26.607  17.407  1.00  0.00     0.061 C 
HETATM   18  C8  UNL     1      25.006  27.916  17.855  1.00  0.00     0.046 C 
HETATM   19  C9  UNL     1      25.415  25.512  17.665  1.00  0.00     0.046 C 
HETATM   20  C10 UNL     1      24.157  26.676  15.926  1.00  0.00     0.046 C 
ENDBRANCH  16  17
ENDBRANCH  13  16
ENDBRANCH   7  12
ENDBRANCH   5   7
ENDBRANCH   4   5
ENDBRANCH   1   4
BRANCH   1  21
HETATM   21  C25 UNL     1      18.942  23.415  20.197  1.00  0.00     0.025 C 
HETATM   22  C26 UNL     1      18.974  22.116  20.954  1.00  0.00     0.037 C 
HETATM   23  C27 UNL     1      18.175  24.505  20.970  1.00  0.00     0.037 C 
HETATM   24  C28 UNL     1      20.351  23.927  20.040  1.00  0.00     0.037 C 
ENDBRANCH   1  21
BRANCH   2  25
HETATM   25  C14 UNL     1      16.153  22.480  17.704  1.00  0.00     0.170 C 
HETATM   26  C15 UNL     1      14.797  23.099  18.040  1.00  0.00     0.042 C 
BRANCH  25  27
HETATM   27  N3  UNL     1      16.163  21.263  17.131  1.00  0.00    -0.369 N 
HETATM   28  C16 UNL     1      15.232  20.349  16.740  1.00  0.00     0.148 C 
HETATM   29  C17 UNL     1      14.236  20.742  15.702  1.00  0.00     0.207 C 
HETATM   30  C24 UNL     1      14.660  19.365  17.682  1.00  0.00     0.280 C 
HETATM   31  O5  UNL     1      14.642  21.198  14.624  1.00  0.00    -0.286 OA
HETATM   32  C18 UNL     1      12.855  20.568  16.002  1.00  0.00     0.112 C 
HETATM   33  C19 UNL     1      12.388  19.762  17.009  1.00  0.00     0.183 C 
HETATM   34  N5  UNL     1      13.269  19.116  17.893  1.00  0.00    -0.284 N 
HETATM   35  O8  UNL     1      15.487  18.699  18.348  1.00  0.00    -0.265 OA
ATOM     36  H3  UNL     1      17.112  20.942  16.939  1.00  0.00     0.160 HD
BRANCH  33  37
HETATM   37  N4  UNL     1      10.977  19.786  17.059  1.00  0.00    -0.098 N 
HETATM   38  O6  UNL     1      10.374  20.707  17.594  1.00  0.00    -0.531 OA
HETATM   39  O7  UNL     1      10.279  18.731  16.537  1.00  0.00    -0.531 OA
ENDBRANCH  33  37
BRANCH  34  40
HETATM   40  C20 UNL     1      12.906  18.231  18.905  1.00  0.00     0.031 C 
HETATM   41  C21 UNL     1      14.010  17.787  19.855  1.00  0.00     0.038 C 
HETATM   42  C22 UNL     1      12.482  16.912  18.180  1.00  0.00     0.038 C 
HETATM   43  C23 UNL     1      11.755  18.576  19.825  1.00  0.00     0.038 C 
ENDBRANCH  34  40
ENDBRANCH  25  27
ENDBRANCH   2  25
TORSDOF 14
ENDMDL
MODEL 3
REMARK VINA RESULT: -8.707039544      2.189      9.522
REMARK  14 active torsions:
REMARK  status: ('A' for Active; 'I' for Inactive)
REMARK    1  A    between atoms: C2_2  and  C3_3 
REMARK    2  A    between atoms: C3_3  and  C4_4 
REMARK    3  A    between atoms: C4_4  and  C5_5 
REMARK    4  A    between atoms: C5_5  and  N1_6 
REMARK    5  A    between atoms: C5_5  and  C11_15 
REMARK       I    between atoms: N1_6  and  C6_8 
REMARK    6  A    between atoms: C6_8  and  O2_10 
REMARK    7  A    between atoms: O2_10  and  C7_11 
REMARK    8  A    between atoms: C11_15  and  C12_17 
REMARK    9  A    between atoms: C12_17  and  N2_18 
REMARK       I    between atoms: N2_18  and  C13_19 
REMARK   10  A    between atoms: N2_18  and  C25_40 
REMARK   11  A    between atoms: C13_19  and  C14_21 
REMARK   12  A    between atoms: C14_21  and  N3_23 
REMARK   13  A    between atoms: C19_29  and  N4_30 
REMARK   14  A    between atoms: N5_33  and  C20_34 
ROOT
HETATM    1  N2  UNL     1      21.230  25.311  19.535  1.00  0.00    -0.335 N 
HETATM    2  C13 UNL     1      19.953  24.870  20.054  1.00  0.00     0.243 C 
HETATM    3  O4  UNL     1      19.816  24.949  21.298  1.00  0.00    -0.271 OA
ENDROOT
BRANCH   1   4
HETATM    4  C12 UNL     1      21.616  25.226  18.164  1.00  0.00     0.207 C 
BRANCH   4   5
HETATM    5  C11 UNL     1      21.536  26.508  17.425  1.00  0.00     0.167 C 
HETATM    6  O3  UNL     1      20.736  27.402  17.742  1.00  0.00    -0.294 OA
BRANCH   5   7
HETATM    7  C5  UNL     1      22.384  26.824  16.260  1.00  0.00     0.158 C 
BRANCH   7   8
HETATM    8  C4  UNL     1      21.571  26.435  15.023  1.00  0.00     0.033 C 
BRANCH   8   9
HETATM    9  C3  UNL     1      21.155  27.679  14.262  1.00  0.00     0.002 C 
BRANCH   9  10
HETATM   10  C2  UNL     1      19.698  28.002  14.483  1.00  0.00    -0.004 C 
HETATM   11  C1  UNL     1      18.912  26.709  14.415  1.00  0.00     0.005 C 
ENDBRANCH   9  10
ENDBRANCH   8   9
ENDBRANCH   7   8
BRANCH   7  12
HETATM   12  N1  UNL     1      23.653  26.138  16.258  1.00  0.00    -0.325 N 
HETATM   13  C6  UNL     1      24.815  26.847  15.857  1.00  0.00     0.361 C 
HETATM   14  O1  UNL     1      24.683  28.054  15.509  1.00  0.00    -0.238 OA
ATOM     15  H1  UNL     1      23.715  25.160  16.540  1.00  0.00     0.165 HD
BRANCH  13  16
HETATM   16  O2  UNL     1      26.090  26.317  15.818  1.00  0.00    -0.294 OA
BRANCH  16  17
HETATM   17  C7  UNL     1      26.912  26.104  16.952  1.00  0.00     0.061 C 
HETATM   18  C8  UNL     1      26.586  24.733  17.496  1.00  0.00     0.046 C 
HETATM   19  C9  UNL     1      28.380  26.117  16.574  1.00  0.00     0.046 C 
HETATM   20  C10 UNL     1      26.705  27.113  18.045  1.00  0.00     0.046 C 
ENDBRANCH  16  17
ENDBRANCH  13  16
ENDBRANCH   7  12
ENDBRANCH   5   7
ENDBRANCH   4   5
ENDBRANCH   1   4
BRANCH   1  21
HETATM   21  C25 UNL     1      22.153  25.872  20.538  1.00  0.00     0.025 C 
HETATM   22  C26 UNL     1      21.581  27.128  21.136  1.00  0.00     0.037 C 
HETATM   23  C27 UNL     1      23.514  26.131  19.866  1.00  0.00     0.037 C 
HETATM   24  C28 UNL     1      22.412  24.877  21.640  1.00  0.00     0.037 C 
ENDBRANCH   1  21
BRANCH   2  25
HETATM   25  C14 UNL     1      18.873  24.363  19.183  1.00  0.00     0.170 C 
HETATM   26  C15 UNL     1      17.587  24.526  19.993  1.00  0.00     0.042 C 
BRANCH  25  27
HETATM   27  N3  UNL     1      19.085  23.184  18.572  1.00  0.00    -0.369 N 
HETATM   28  C16 UNL     1      18.499  22.474  17.569  1.00  0.00     0.148 C 
HETATM   29  C17 UNL     1      18.440  23.078  16.207  1.00  0.00     0.207 C 
HETATM   30  C24 UNL     1      17.342  21.588  17.810  1.00  0.00     0.280 C 
HETATM   31  O5  UNL     1      19.489  23.481  15.683  1.00  0.00    -0.286 OA
HETATM   32  C18 UNL     1      17.170  23.159  15.567  1.00  0.00     0.112 C 
HETATM   33  C19 UNL     1      16.075  22.427  15.948  1.00  0.00     0.183 C 
HETATM   34  N5  UNL     1      16.111  21.600  17.084  1.00  0.00    -0.284 N 
HETATM   35  O8  UNL     1      17.471  20.759  18.741  1.00  0.00    -0.265 OA
ATOM     36  H3  UNL     1      19.892  22.695  18.961  1.00  0.00     0.160 HD
BRANCH  33  37
HETATM   37  N4  UNL     1      14.966  22.714  15.124  1.00  0.00    -0.098 N 
HETATM   38  O6  UNL     1      14.871  22.244  13.997  1.00  0.00    -0.531 OA
HETATM   39  O7  UNL     1      14.006  23.574  15.582  1.00  0.00    -0.531 OA
ENDBRANCH  33  37
BRANCH  34  40
HETATM   40  C20 UNL     1      15.082  20.770  17.522  1.00  0.00     0.031 C 
HETATM   41  C21 UNL     1      14.045  20.362  16.485  1.00  0.00     0.038 C 
HETATM   42  C22 UNL     1      14.268  21.616  18.555  1.00  0.00     0.038 C 
HETATM   43  C23 UNL     1      15.414  19.474  18.230  1.00  0.00     0.038 C 
ENDBRANCH  34  40
ENDBRANCH  25  27
ENDBRANCH   2  25
TORSDOF 14
ENDMDL
MODEL 4
REMARK VINA RESULT: -8.530016550      1.965      9.941
REMARK  14 active torsions:
REMARK  status: ('A' for Active; 'I' for Inactive)
REMARK    1  A    between atoms: C2_2  and  C3_3 
REMARK    2  A    between atoms: C3_3  and  C4_4 
REMARK    3  A    between atoms: C4_4  and  C5_5 
REMARK    4  A    between atoms: C5_5  and  N1_6 
REMARK    5  A    between atoms: C5_5  and  C11_15 
REMARK       I    between atoms: N1_6  and  C6_8 
REMARK    6  A    between atoms: C6_8  and  O2_10 
REMARK    7  A    between atoms: O2_10  and  C7_11 
REMARK    8  A    between atoms: C11_15  and  C12_17 
REMARK    9  A    between atoms: C12_17  and  N2_18 
REMARK       I    between atoms: N2_18  and  C13_19 
REMARK   10  A    between atoms: N2_18  and  C25_40 
REMARK   11  A    between atoms: C13_19  and  C14_21 
REMARK   12  A    between atoms: C14_21  and  N3_23 
REMARK   13  A    between atoms: C19_29  and  N4_30 
REMARK   14  A    between atoms: N5_33  and  C20_34 
ROOT
HETATM    1  N2  UNL     1      18.410  23.303  18.942  1.00  0.00    -0.335 N 
HETATM    2  C13 UNL     1      17.039  22.847  18.878  1.00  0.00     0.243 C 
HETATM    3  O4  UNL     1      16.526  22.511  19.972  1.00  0.00    -0.271 OA
ENDROOT
BRANCH   1   4
HETATM    4  C12 UNL     1      19.200  23.651  17.805  1.00  0.00     0.207 C 
BRANCH   4   5
HETATM    5  C11 UNL     1      19.093  25.072  17.399  1.00  0.00     0.167 C 
HETATM    6  O3  UNL     1      18.044  25.720  17.535  1.00  0.00    -0.294 OA
BRANCH   5   7
HETATM    7  C5  UNL     1      20.209  25.826  16.796  1.00  0.00     0.158 C 
BRANCH   7   8
HETATM    8  C4  UNL     1      20.161  25.532  15.296  1.00  0.00     0.033 C 
BRANCH   8   9
HETATM    9  C3  UNL     1      19.431  26.645  14.570  1.00  0.00     0.002 C 
BRANCH   9  10
HETATM   10  C2  UNL     1      20.060  27.990  14.841  1.00  0.00    -0.004 C 
HETATM   11  C1  UNL     1      21.409  28.026  14.153  1.00  0.00     0.005 C 
ENDBRANCH   9  10
ENDBRANCH   8   9
ENDBRANCH   7   8
BRANCH   7  12
HETATM   12  N1  UNL     1      21.503  25.481  17.332  1.00  0.00    -0.325 N 
HETATM   13  C6  UNL     1      22.375  26.522  17.742  1.00  0.00     0.361 C 
HETATM   14  O1  UNL     1      21.979  27.714  17.612  1.00  0.00    -0.238 OA
ATOM     15  H1  UNL     1      21.787  24.505  17.414  1.00  0.00     0.165 HD
BRANCH  13  16
HETATM   16  O2  UNL     1      23.634  26.333  18.279  1.00  0.00    -0.294 OA
BRANCH  16  17
HETATM   17  C7  UNL     1      23.894  25.976  19.624  1.00  0.00     0.061 C 
HETATM   18  C8  UNL     1      25.258  26.519  19.982  1.00  0.00     0.046 C 
HETATM   19  C9  UNL     1      22.883  26.606  20.563  1.00  0.00     0.046 C 
HETATM   20  C10 UNL     1      23.891  24.494  19.867  1.00  0.00     0.046 C 
ENDBRANCH  16  17
ENDBRANCH  13  16
ENDBRANCH   7  12
ENDBRANCH   5   7
ENDBRANCH   4   5
ENDBRANCH   1   4
BRANCH   1  21
HETATM   21  C25 UNL     1      18.978  23.391  20.300  1.00  0.00     0.025 C 
HETATM   22  C26 UNL     1      18.878  22.063  20.999  1.00  0.00     0.037 C 
HETATM   23  C27 UNL     1      18.239  24.498  21.074  1.00  0.00     0.037 C 
HETATM   24  C28 UNL     1      20.425  23.810  20.248  1.00  0.00     0.037 C 
ENDBRANCH   1  21
BRANCH   2  25
HETATM   25  C14 UNL     1      16.281  22.782  17.612  1.00  0.00     0.170 C 
HETATM   26  C15 UNL     1      14.896  23.339  17.937  1.00  0.00     0.042 C 
BRANCH  25  27
HETATM   27  N3  UNL     1      16.347  21.630  16.920  1.00  0.00    -0.369 N 
HETATM   28  C16 UNL     1      15.468  20.677  16.505  1.00  0.00     0.148 C 
HETATM   29  C17 UNL     1      14.366  21.074  15.582  1.00  0.00     0.207 C 
HETATM   30  C24 UNL     1      15.053  19.561  17.380  1.00  0.00     0.280 C 
HETATM   31  O5  UNL     1      14.649  21.665  14.529  1.00  0.00    -0.286 OA
HETATM   32  C18 UNL     1      13.031  20.750  15.957  1.00  0.00     0.112 C 
HETATM   33  C19 UNL     1      12.711  19.814  16.908  1.00  0.00     0.183 C 
HETATM   34  N5  UNL     1      13.708  19.169  17.660  1.00  0.00    -0.284 N 
HETATM   35  O8  UNL     1      15.981  18.912  17.918  1.00  0.00    -0.265 OA
ATOM     36  H3  UNL     1      17.302  21.415  16.632  1.00  0.00     0.160 HD
BRANCH  33  37
HETATM   37  N4  UNL     1      11.311  19.706  17.056  1.00  0.00    -0.098 N 
HETATM   38  O6  UNL     1      10.730  20.213  18.008  1.00  0.00    -0.531 OA
HETATM   39  O7  UNL     1      10.603  18.980  16.138  1.00  0.00    -0.531 OA
ENDBRANCH  33  37
BRANCH  34  40
HETATM   40  C20 UNL     1      13.498  18.165  18.600  1.00  0.00     0.031 C 
HETATM   41  C21 UNL     1      13.423  18.596  20.058  1.00  0.00     0.038 C 
HETATM   42  C22 UNL     1      14.772  17.259  18.543  1.00  0.00     0.038 C 
HETATM   43  C23 UNL     1      12.324  17.223  18.442  1.00  0.00     0.038 C 
ENDBRANCH  34  40
ENDBRANCH  25  27
ENDBRANCH   2  25
TORSDOF 14
ENDMDL
MODEL 5
REMARK VINA RESULT: -8.451705520      2.283      3.678
REMARK  14 active torsions:
REMARK  status: ('A' for Active; 'I' for Inactive)
REMARK    1  A    between atoms: C2_2  and  C3_3 
REMARK    2  A    between atoms: C3_3  and  C4_4 
REMARK    3  A    between atoms: C4_4  and  C5_5 
REMARK    4  A    between atoms: C5_5  and  N1_6 
REMARK    5  A    between atoms: C5_5  and  C11_15 
REMARK       I    between atoms: N1_6  and  C6_8 
REMARK    6  A    between atoms: C6_8  and  O2_10 
REMARK    7  A    between atoms: O2_10  and  C7_11 
REMARK    8  A    between atoms: C11_15  and  C12_17 
REMARK    9  A    between atoms: C12_17  and  N2_18 
REMARK       I    between atoms: N2_18  and  C13_19 
REMARK   10  A    between atoms: N2_18  and  C25_40 
REMARK   11  A    between atoms: C13_19  and  C14_21 
REMARK   12  A    between atoms: C14_21  and  N3_23 
REMARK   13  A    between atoms: C19_29  and  N4_30 
REMARK   14  A    between atoms: N5_33  and  C20_34 
ROOT
HETATM    1  N2  UNL     1      18.330  23.950  19.082  1.00  0.00    -0.335 N 
HETATM    2  C13 UNL     1      19.658  24.357  18.677  1.00  0.00     0.243 C 
HETATM    3  O4  UNL     1      20.596  23.632  19.088  1.00  0.00    -0.271 OA
ENDROOT
BRANCH   1   4
HETATM    4  C12 UNL     1      17.139  24.681  18.792  1.00  0.00     0.207 C 
BRANCH   4   5
HETATM    5  C11 UNL     1      16.373  24.167  17.632  1.00  0.00     0.167 C 
HETATM    6  O3  UNL     1      15.210  23.751  17.742  1.00  0.00    -0.294 OA
BRANCH   5   7
HETATM    7  C5  UNL     1      16.926  24.100  16.266  1.00  0.00     0.158 C 
BRANCH   7   8
HETATM    8  C4  UNL     1      17.206  25.545  15.847  1.00  0.00     0.033 C 
BRANCH   8   9
HETATM    9  C3  UNL     1      18.101  25.569  14.623  1.00  0.00     0.002 C 
BRANCH   9  10
HETATM   10  C2  UNL     1      18.240  26.964  14.067  1.00  0.00    -0.004 C 
HETATM   11  C1  UNL     1      19.615  27.483  14.435  1.00  0.00     0.005 C 
ENDBRANCH   9  10
ENDBRANCH   8   9
ENDBRANCH   7   8
BRANCH   7  12
HETATM   12  N1  UNL     1      16.050  23.465  15.311  1.00  0.00    -0.325 N 
HETATM   13  C6  UNL     1      16.213  22.081  15.045  1.00  0.00     0.361 C 
HETATM   14  O1  UNL     1      17.131  21.464  15.655  1.00  0.00    -0.238 OA
ATOM     15  H1  UNL     1      15.325  24.002  14.836  1.00  0.00     0.165 HD
BRANCH  13  16
HETATM   16  O2  UNL     1      15.440  21.350  14.166  1.00  0.00    -0.294 OA
BRANCH  16  17
HETATM   17  C7  UNL     1      14.053  21.103  14.320  1.00  0.00     0.061 C 
HETATM   18  C8  UNL     1      13.318  22.324  13.820  1.00  0.00     0.046 C 
HETATM   19  C9  UNL     1      13.611  19.920  13.481  1.00  0.00     0.046 C 
HETATM   20  C10 UNL     1      13.641  20.846  15.741  1.00  0.00     0.046 C 
ENDBRANCH  16  17
ENDBRANCH  13  16
ENDBRANCH   7  12
ENDBRANCH   5   7
ENDBRANCH   4   5
ENDBRANCH   1   4
BRANCH   1  21
HETATM   21  C25 UNL     1      18.266  22.691  19.845  1.00  0.00     0.025 C 
HETATM   22  C26 UNL     1      19.218  22.730  21.008  1.00  0.00     0.037 C 
HETATM   23  C27 UNL     1      18.578  21.521  18.894  1.00  0.00     0.037 C 
HETATM   24  C28 UNL     1      16.871  22.450  20.362  1.00  0.00     0.037 C 
ENDBRANCH   1  21
BRANCH   2  25
HETATM   25  C14 UNL     1      19.904  25.543  17.833  1.00  0.00     0.170 C 
HETATM   26  C15 UNL     1      20.772  25.047  16.678  1.00  0.00     0.042 C 
BRANCH  25  27
HETATM   27  N3  UNL     1      20.280  26.672  18.461  1.00  0.00    -0.369 N 
HETATM   28  C16 UNL     1      21.435  27.176  18.976  1.00  0.00     0.148 C 
HETATM   29  C17 UNL     1      22.590  27.396  18.060  1.00  0.00     0.207 C 
HETATM   30  C24 UNL     1      21.893  26.841  20.340  1.00  0.00     0.280 C 
HETATM   31  O5  UNL     1      22.424  28.079  17.039  1.00  0.00    -0.286 OA
HETATM   32  C18 UNL     1      23.840  26.809  18.408  1.00  0.00     0.112 C 
HETATM   33  C19 UNL     1      24.148  26.359  19.666  1.00  0.00     0.183 C 
HETATM   34  N5  UNL     1      23.192  26.361  20.695  1.00  0.00    -0.284 N 
HETATM   35  O8  UNL     1      21.052  26.999  21.256  1.00  0.00    -0.265 OA
ATOM     36  H3  UNL     1      19.498  27.316  18.582  1.00  0.00     0.160 HD
BRANCH  33  37
HETATM   37  N4  UNL     1      25.460  25.838  19.706  1.00  0.00    -0.098 N 
HETATM   38  O6  UNL     1      26.437  26.574  19.757  1.00  0.00    -0.531 OA
HETATM   39  O7  UNL     1      25.635  24.482  19.639  1.00  0.00    -0.531 OA
ENDBRANCH  33  37
BRANCH  34  40
HETATM   40  C20 UNL     1      23.415  25.987  22.017  1.00  0.00     0.031 C 
HETATM   41  C21 UNL     1      24.837  26.140  22.540  1.00  0.00     0.038 C 
HETATM   42  C22 UNL     1      23.160  24.445  22.070  1.00  0.00     0.038 C 
HETATM   43  C23 UNL     1      22.561  26.578  23.119  1.00  0.00     0.038 C 
ENDBRANCH  34  40
ENDBRANCH  25  27
ENDBRANCH   2  25
TORSDOF 14
ENDMDL
