MODEL 1
REMARK VINA RESULT: -4.492995910      0.000      0.000
REMARK  6 active torsions:
REMARK  status: ('A' for Active; 'I' for Inactive)
REMARK    1  A    between atoms: N1_1  and  C1_4 
REMARK    2  A    between atoms: C5_10  and  O1_11 
REMARK    3  A    between atoms: O1_11  and  C6_12 
REMARK    4  A    between atoms: C6_12  and  C7_13 
REMARK    5  A    between atoms: C7_13  and  C8_14 
REMARK    6  A    between atoms: C8_14  and  N3_15 
ROOT
HETATM    1  C1  UNL     1      11.726  30.550  34.593  1.00  0.00     0.132 A 
HETATM    2  N2  UNL     1      11.122  29.883  35.582  1.00  0.00    -0.350 N 
ATOM      3  H2  UNL     1      10.731  30.425  36.352  1.00  0.00     0.166 HD
HETATM    4  C2  UNL     1      10.995  28.548  35.630  1.00  0.00     0.090 A 
HETATM    5  C3  UNL     1      11.515  27.797  34.604  1.00  0.00     0.020 A 
HETATM    6  C4  UNL     1      12.151  28.458  33.557  1.00  0.00     0.042 A 
HETATM    7  C5  UNL     1      12.272  29.823  33.523  1.00  0.00     0.112 A 
ENDROOT
BRANCH   7   8
HETATM    8  O1  UNL     1      12.883  30.493  32.524  1.00  0.00    -0.347 OA
BRANCH   8   9
HETATM    9  C6  UNL     1      14.015  30.285  31.784  1.00  0.00     0.177 C 
BRANCH   9  10
HETATM   10  C7  UNL     1      13.889  30.341  30.295  1.00  0.00     0.054 C 
BRANCH  10  11
HETATM   11  C8  UNL     1      13.365  28.984  29.826  1.00  0.00     0.231 C 
BRANCH  11  12
HETATM   12  N3  UNL     1      11.924  29.004  29.970  1.00  0.00    -0.079 N 
ATOM     13  H33 UNL     1      11.622  29.026  30.944  1.00  0.00     0.274 HD
ATOM     14  H32 UNL     1      11.507  29.889  29.682  1.00  0.00     0.274 HD
ATOM     15  H31 UNL     1      11.556  28.204  29.456  1.00  0.00     0.274 HD
ENDBRANCH  11  12
ENDBRANCH  10  11
ENDBRANCH   9  10
ENDBRANCH   8   9
ENDBRANCH   7   8
BRANCH   1  16
HETATM   16  N1  UNL     1      11.815  31.854  34.609  1.00  0.00    -0.383 N 
ATOM     17  H12 UNL     1      12.498  32.311  35.214  1.00  0.00     0.157 HD
ATOM     18  H11 UNL     1      11.212  32.434  34.026  1.00  0.00     0.157 HD
ENDBRANCH   1  16
TORSDOF 6
ENDMDL
MODEL 2
REMARK VINA RESULT: -4.431444439      3.062      4.723
REMARK  6 active torsions:
REMARK  status: ('A' for Active; 'I' for Inactive)
REMARK    1  A    between atoms: N1_1  and  C1_4 
REMARK    2  A    between atoms: C5_10  and  O1_11 
REMARK    3  A    between atoms: O1_11  and  C6_12 
REMARK    4  A    between atoms: C6_12  and  C7_13 
REMARK    5  A    between atoms: C7_13  and  C8_14 
REMARK    6  A    between atoms: C8_14  and  N3_15 
ROOT
HETATM    1  C1  UNL     1      13.374  29.766  29.841  1.00  0.00     0.132 A 
HETATM    2  N2  UNL     1      13.264  30.785  30.700  1.00  0.00    -0.350 N 
ATOM      3  H2  UNL     1      13.412  31.728  30.341  1.00  0.00     0.166 HD
HETATM    4  C2  UNL     1      12.972  30.651  32.002  1.00  0.00     0.090 A 
HETATM    5  C3  UNL     1      12.769  29.390  32.508  1.00  0.00     0.020 A 
HETATM    6  C4  UNL     1      12.876  28.306  31.643  1.00  0.00     0.042 A 
HETATM    7  C5  UNL     1      13.175  28.460  30.314  1.00  0.00     0.112 A 
ENDROOT
BRANCH   7   8
HETATM    8  O1  UNL     1      13.287  27.429  29.450  1.00  0.00    -0.347 OA
BRANCH   8   9
HETATM    9  C6  UNL     1      12.876  26.124  29.459  1.00  0.00     0.177 C 
BRANCH   9  10
HETATM   10  C7  UNL     1      11.409  25.860  29.335  1.00  0.00     0.054 C 
BRANCH  10  11
HETATM   11  C8  UNL     1      11.236  24.632  28.441  1.00  0.00     0.231 C 
BRANCH  11  12
HETATM   12  N3  UNL     1       9.996  24.800  27.712  1.00  0.00    -0.079 N 
ATOM     13  H33 UNL     1       9.659  23.932  27.294  1.00  0.00     0.274 HD
ATOM     14  H32 UNL     1       9.197  24.973  28.321  1.00  0.00     0.274 HD
ATOM     15  H31 UNL     1      10.144  25.541  27.028  1.00  0.00     0.274 HD
ENDBRANCH  11  12
ENDBRANCH  10  11
ENDBRANCH   9  10
ENDBRANCH   8   9
ENDBRANCH   7   8
BRANCH   1  16
HETATM   16  N1  UNL     1      13.662  29.968  28.582  1.00  0.00    -0.383 N 
ATOM     17  H12 UNL     1      13.093  30.605  28.025  1.00  0.00     0.157 HD
ATOM     18  H11 UNL     1      14.450  29.497  28.137  1.00  0.00     0.157 HD
ENDBRANCH   1  16
TORSDOF 6
ENDMDL
MODEL 3
REMARK VINA RESULT: -4.345414064      1.059      1.085
REMARK  6 active torsions:
REMARK  status: ('A' for Active; 'I' for Inactive)
REMARK    1  A    between atoms: N1_1  and  C1_4 
REMARK    2  A    between atoms: C5_10  and  O1_11 
REMARK    3  A    between atoms: O1_11  and  C6_12 
REMARK    4  A    between atoms: C6_12  and  C7_13 
REMARK    5  A    between atoms: C7_13  and  C8_14 
REMARK    6  A    between atoms: C8_14  and  N3_15 
ROOT
HETATM    1  C1  UNL     1      11.778  29.993  34.486  1.00  0.00     0.132 A 
HETATM    2  N2  UNL     1      11.707  29.144  35.517  1.00  0.00    -0.350 N 
ATOM      3  H2  UNL     1      11.660  29.539  36.455  1.00  0.00     0.166 HD
HETATM    4  C2  UNL     1      11.695  27.808  35.400  1.00  0.00     0.090 A 
HETATM    5  C3  UNL     1      11.759  27.253  34.145  1.00  0.00     0.020 A 
HETATM    6  C4  UNL     1      11.834  28.106  33.048  1.00  0.00     0.042 A 
HETATM    7  C5  UNL     1      11.846  29.470  33.185  1.00  0.00     0.112 A 
ENDROOT
BRANCH   7   8
HETATM    8  O1  UNL     1      11.919  30.324  32.142  1.00  0.00    -0.347 OA
BRANCH   8   9
HETATM    9  C6  UNL     1      12.943  30.829  31.389  1.00  0.00     0.177 C 
BRANCH   9  10
HETATM   10  C7  UNL     1      14.099  29.925  31.097  1.00  0.00     0.054 C 
BRANCH  10  11
HETATM   11  C8  UNL     1      13.774  29.162  29.813  1.00  0.00     0.231 C 
BRANCH  11  12
HETATM   12  N3  UNL     1      13.789  30.119  28.726  1.00  0.00    -0.079 N 
ATOM     13  H33 UNL     1      14.723  30.278  28.349  1.00  0.00     0.274 HD
ATOM     14  H32 UNL     1      13.361  29.760  27.873  1.00  0.00     0.274 HD
ATOM     15  H31 UNL     1      13.345  30.972  29.067  1.00  0.00     0.274 HD
ENDBRANCH  11  12
ENDBRANCH  10  11
ENDBRANCH   9  10
ENDBRANCH   8   9
ENDBRANCH   7   8
BRANCH   1  16
HETATM   16  N1  UNL     1      11.787  31.287  34.671  1.00  0.00    -0.383 N 
ATOM     17  H12 UNL     1      12.663  31.805  34.604  1.00  0.00     0.157 HD
ATOM     18  H11 UNL     1      10.930  31.797  34.884  1.00  0.00     0.157 HD
ENDBRANCH   1  16
TORSDOF 6
ENDMDL
MODEL 4
REMARK VINA RESULT: -4.296425575      1.668      4.713
REMARK  6 active torsions:
REMARK  status: ('A' for Active; 'I' for Inactive)
REMARK    1  A    between atoms: N1_1  and  C1_4 
REMARK    2  A    between atoms: C5_10  and  O1_11 
REMARK    3  A    between atoms: O1_11  and  C6_12 
REMARK    4  A    between atoms: C6_12  and  C7_13 
REMARK    5  A    between atoms: C7_13  and  C8_14 
REMARK    6  A    between atoms: C8_14  and  N3_15 
ROOT
HETATM    1  C1  UNL     1      12.999  29.555  30.398  1.00  0.00     0.132 A 
HETATM    2  N2  UNL     1      13.389  28.557  29.597  1.00  0.00    -0.350 N 
ATOM      3  H2  UNL     1      13.992  28.789  28.808  1.00  0.00     0.166 HD
HETATM    4  C2  UNL     1      13.040  27.273  29.760  1.00  0.00     0.090 A 
HETATM    5  C3  UNL     1      12.227  26.937  30.815  1.00  0.00     0.020 A 
HETATM    6  C4  UNL     1      11.801  27.950  31.670  1.00  0.00     0.042 A 
HETATM    7  C5  UNL     1      12.167  29.258  31.489  1.00  0.00     0.112 A 
ENDROOT
BRANCH   7   8
HETATM    8  O1  UNL     1      11.771  30.262  32.299  1.00  0.00    -0.347 OA
BRANCH   8   9
HETATM    9  C6  UNL     1      12.084  30.643  33.575  1.00  0.00     0.177 C 
BRANCH   9  10
HETATM   10  C7  UNL     1      11.772  29.684  34.680  1.00  0.00     0.054 C 
BRANCH  10  11
HETATM   11  C8  UNL     1      10.638  30.290  35.508  1.00  0.00     0.231 C 
BRANCH  11  12
HETATM   12  N3  UNL     1      11.016  31.651  35.827  1.00  0.00    -0.079 N 
ATOM     13  H33 UNL     1      12.016  31.822  35.720  1.00  0.00     0.274 HD
ATOM     14  H32 UNL     1      10.691  32.326  35.136  1.00  0.00     0.274 HD
ATOM     15  H31 UNL     1      10.676  31.848  36.768  1.00  0.00     0.274 HD
ENDBRANCH  11  12
ENDBRANCH  10  11
ENDBRANCH   9  10
ENDBRANCH   8   9
ENDBRANCH   7   8
BRANCH   1  16
HETATM   16  N1  UNL     1      13.377  30.787  30.181  1.00  0.00    -0.383 N 
ATOM     17  H12 UNL     1      14.284  30.974  29.755  1.00  0.00     0.157 HD
ATOM     18  H11 UNL     1      12.781  31.576  30.431  1.00  0.00     0.157 HD
ENDBRANCH   1  16
TORSDOF 6
ENDMDL
MODEL 5
REMARK VINA RESULT: -4.268389360      1.788      4.529
REMARK  6 active torsions:
REMARK  status: ('A' for Active; 'I' for Inactive)
REMARK    1  A    between atoms: N1_1  and  C1_4 
REMARK    2  A    between atoms: C5_10  and  O1_11 
REMARK    3  A    between atoms: O1_11  and  C6_12 
REMARK    4  A    between atoms: C6_12  and  C7_13 
REMARK    5  A    between atoms: C7_13  and  C8_14 
REMARK    6  A    between atoms: C8_14  and  N3_15 
ROOT
HETATM    1  C1  UNL     1      12.948  29.534  30.480  1.00  0.00     0.132 A 
HETATM    2  N2  UNL     1      13.354  28.583  29.632  1.00  0.00    -0.350 N 
ATOM      3  H2  UNL     1      13.957  28.862  28.859  1.00  0.00     0.166 HD
HETATM    4  C2  UNL     1      13.021  27.287  29.730  1.00  0.00     0.090 A 
HETATM    5  C3  UNL     1      12.209  26.888  30.763  1.00  0.00     0.020 A 
HETATM    6  C4  UNL     1      11.766  27.851  31.665  1.00  0.00     0.042 A 
HETATM    7  C5  UNL     1      12.116  29.172  31.552  1.00  0.00     0.112 A 
ENDROOT
BRANCH   7   8
HETATM    8  O1  UNL     1      11.702  30.129  32.409  1.00  0.00    -0.347 OA
BRANCH   8   9
HETATM    9  C6  UNL     1      12.042  30.481  33.687  1.00  0.00     0.177 C 
BRANCH   9  10
HETATM   10  C7  UNL     1      11.757  29.496  34.775  1.00  0.00     0.054 C 
BRANCH  10  11
HETATM   11  C8  UNL     1      10.302  29.691  35.203  1.00  0.00     0.231 C 
BRANCH  11  12
HETATM   12  N3  UNL     1       9.479  28.912  34.302  1.00  0.00    -0.079 N 
ATOM     13  H33 UNL     1       8.739  28.399  34.782  1.00  0.00     0.274 HD
ATOM     14  H32 UNL     1       8.880  29.488  33.711  1.00  0.00     0.274 HD
ATOM     15  H31 UNL     1      10.102  28.307  33.768  1.00  0.00     0.274 HD
ENDBRANCH  11  12
ENDBRANCH  10  11
ENDBRANCH   9  10
ENDBRANCH   8   9
ENDBRANCH   7   8
BRANCH   1  16
HETATM   16  N1  UNL     1      13.309  30.780  30.327  1.00  0.00    -0.383 N 
ATOM     17  H12 UNL     1      13.910  31.044  29.546  1.00  0.00     0.157 HD
ATOM     18  H11 UNL     1      13.003  31.505  30.976  1.00  0.00     0.157 HD
ENDBRANCH   1  16
TORSDOF 6
ENDMDL
