MODEL 1
REMARK VINA RESULT: -7.336882770      0.000      0.000
REMARK  7 active torsions:
REMARK  status: ('A' for Active; 'I' for Inactive)
REMARK    1  A    between atoms: C2_2  and  N1_5 
REMARK       I    between atoms: N1_5  and  C5_7 
REMARK    2  A    between atoms: C5_7  and  O2_9 
REMARK    3  A    between atoms: O2_9  and  C6_10 
REMARK    4  A    between atoms: C6_10  and  O3_11 
REMARK    5  A    between atoms: O3_11  and  C7_12 
REMARK       I    between atoms: C7_12  and  N2_14 
REMARK    6  A    between atoms: N2_14  and  C8_16 
REMARK    7  A    between atoms: C11_19  and  C12_20 
ROOT
HETATM    1  C7  UNL     1      -4.804   6.448  23.761  1.00  0.00     0.367 C 
HETATM    2  O4  UNL     1      -4.515   5.618  24.659  1.00  0.00    -0.238 OA
HETATM    3  N2  UNL     1      -5.708   6.145  22.762  1.00  0.00    -0.303 N 
ATOM      4  H2  UNL     1      -5.929   6.861  22.070  1.00  0.00     0.171 HD
ENDROOT
BRANCH   1   5
HETATM    5  O3  UNL     1      -4.165   7.688  23.822  1.00  0.00    -0.277 OA
BRANCH   5   6
HETATM    6  C6  UNL     1      -4.978   8.874  23.818  1.00  0.00     0.361 C 
BRANCH   6   7
HETATM    7  O2  UNL     1      -5.311   9.354  25.045  1.00  0.00    -0.278 OA
BRANCH   7   8
HETATM    8  C5  UNL     1      -5.818   8.626  26.081  1.00  0.00     0.363 C 
HETATM    9  N1  UNL     1      -6.897   7.734  25.764  1.00  0.00    -0.329 N 
ATOM     10  H1  UNL     1      -7.223   7.692  24.799  1.00  0.00     0.165 HD
HETATM   11  O1  UNL     1      -5.344   8.760  27.216  1.00  0.00    -0.238 OA
BRANCH   9  12
HETATM   12  C2  UNL     1      -7.535   6.905  26.731  1.00  0.00     0.024 C 
HETATM   13  C1  UNL     1      -6.604   5.819  27.187  1.00  0.00     0.037 C 
HETATM   14  C3  UNL     1      -8.752   6.227  26.091  1.00  0.00     0.037 C 
HETATM   15  C4  UNL     1      -7.969   7.739  27.905  1.00  0.00     0.037 C 
ENDBRANCH   9  12
ENDBRANCH   7   8
ENDBRANCH   6   7
ENDBRANCH   5   6
ENDBRANCH   1   5
BRANCH   3  16
HETATM   16  C8  UNL     1      -6.340   4.889  22.657  1.00  0.00     0.036 A 
HETATM   17  C9  UNL     1      -7.523   4.651  23.312  1.00  0.00     0.030 A 
HETATM   18  C10 UNL     1      -8.178   3.416  23.206  1.00  0.00     0.010 A 
HETATM   19  C11 UNL     1      -7.669   2.395  22.448  1.00  0.00    -0.051 A 
HETATM   20  C16 UNL     1      -6.480   2.650  21.796  1.00  0.00     0.010 A 
HETATM   21  C17 UNL     1      -5.816   3.863  21.887  1.00  0.00     0.030 A 
BRANCH  19  22
HETATM   22  C12 UNL     1      -8.381   1.096  22.360  1.00  0.00    -0.024 C 
HETATM   23  C13 UNL     1      -9.826   1.332  21.987  1.00  0.00     0.019 C 
HETATM   24  C14 UNL     1      -7.739   0.134  21.396  1.00  0.00     0.019 C 
HETATM   25  C15 UNL     1      -8.403   0.533  23.775  1.00  0.00     0.019 C 
ENDBRANCH  19  22
ENDBRANCH   3  16
TORSDOF 7
ENDMDL
MODEL 2
REMARK VINA RESULT: -7.310416560      1.000      1.095
REMARK  7 active torsions:
REMARK  status: ('A' for Active; 'I' for Inactive)
REMARK    1  A    between atoms: C2_2  and  N1_5 
REMARK       I    between atoms: N1_5  and  C5_7 
REMARK    2  A    between atoms: C5_7  and  O2_9 
REMARK    3  A    between atoms: O2_9  and  C6_10 
REMARK    4  A    between atoms: C6_10  and  O3_11 
REMARK    5  A    between atoms: O3_11  and  C7_12 
REMARK       I    between atoms: C7_12  and  N2_14 
REMARK    6  A    between atoms: N2_14  and  C8_16 
REMARK    7  A    between atoms: C11_19  and  C12_20 
ROOT
HETATM    1  C7  UNL     1      -6.267   7.295  22.528  1.00  0.00     0.367 C 
HETATM    2  O4  UNL     1      -7.353   7.312  21.897  1.00  0.00    -0.238 OA
HETATM    3  N2  UNL     1      -5.720   6.113  22.991  1.00  0.00    -0.303 N 
ATOM      4  H2  UNL     1      -4.824   6.148  23.476  1.00  0.00     0.171 HD
ENDROOT
BRANCH   1   5
HETATM    5  O3  UNL     1      -5.643   8.526  22.740  1.00  0.00    -0.277 OA
BRANCH   5   6
HETATM    6  C6  UNL     1      -4.719   8.641  23.836  1.00  0.00     0.361 C 
BRANCH   6   7
HETATM    7  O2  UNL     1      -5.215   9.235  24.954  1.00  0.00    -0.278 OA
BRANCH   7   8
HETATM    8  C5  UNL     1      -5.775   8.596  26.021  1.00  0.00     0.363 C 
HETATM    9  N1  UNL     1      -6.870   7.714  25.731  1.00  0.00    -0.329 N 
ATOM     10  H1  UNL     1      -7.167   7.614  24.760  1.00  0.00     0.165 HD
HETATM   11  O1  UNL     1      -5.332   8.796  27.158  1.00  0.00    -0.238 OA
BRANCH   9  12
HETATM   12  C2  UNL     1      -7.562   6.973  26.731  1.00  0.00     0.024 C 
HETATM   13  C1  UNL     1      -6.744   5.794  27.171  1.00  0.00     0.037 C 
HETATM   14  C3  UNL     1      -8.871   6.431  26.143  1.00  0.00     0.037 C 
HETATM   15  C4  UNL     1      -7.857   7.864  27.907  1.00  0.00     0.037 C 
ENDBRANCH   9  12
ENDBRANCH   7   8
ENDBRANCH   6   7
ENDBRANCH   5   6
ENDBRANCH   1   5
BRANCH   3  16
HETATM   16  C8  UNL     1      -6.347   4.862  22.821  1.00  0.00     0.036 A 
HETATM   17  C9  UNL     1      -7.438   4.524  23.584  1.00  0.00     0.030 A 
HETATM   18  C10 UNL     1      -8.089   3.293  23.418  1.00  0.00     0.010 A 
HETATM   19  C11 UNL     1      -7.667   2.376  22.492  1.00  0.00    -0.051 A 
HETATM   20  C16 UNL     1      -6.570   2.731  21.734  1.00  0.00     0.010 A 
HETATM   21  C17 UNL     1      -5.912   3.942  21.882  1.00  0.00     0.030 A 
BRANCH  19  22
HETATM   22  C12 UNL     1      -8.371   1.078  22.344  1.00  0.00    -0.024 C 
HETATM   23  C13 UNL     1      -9.803   1.321  21.927  1.00  0.00     0.019 C 
HETATM   24  C14 UNL     1      -7.693   0.145  21.378  1.00  0.00     0.019 C 
HETATM   25  C15 UNL     1      -8.441   0.477  23.742  1.00  0.00     0.019 C 
ENDBRANCH  19  22
ENDBRANCH   3  16
TORSDOF 7
ENDMDL
MODEL 3
REMARK VINA RESULT: -7.127434768      1.019      1.956
REMARK  7 active torsions:
REMARK  status: ('A' for Active; 'I' for Inactive)
REMARK    1  A    between atoms: C2_2  and  N1_5 
REMARK       I    between atoms: N1_5  and  C5_7 
REMARK    2  A    between atoms: C5_7  and  O2_9 
REMARK    3  A    between atoms: O2_9  and  C6_10 
REMARK    4  A    between atoms: C6_10  and  O3_11 
REMARK    5  A    between atoms: O3_11  and  C7_12 
REMARK       I    between atoms: C7_12  and  N2_14 
REMARK    6  A    between atoms: N2_14  and  C8_16 
REMARK    7  A    between atoms: C11_19  and  C12_20 
ROOT
HETATM    1  C7  UNL     1      -6.321   7.306  22.548  1.00  0.00     0.367 C 
HETATM    2  O4  UNL     1      -7.437   7.351  21.972  1.00  0.00    -0.238 OA
HETATM    3  N2  UNL     1      -5.785   6.112  22.990  1.00  0.00    -0.303 N 
ATOM      4  H2  UNL     1      -4.865   6.124  23.429  1.00  0.00     0.171 HD
ENDROOT
BRANCH   1   5
HETATM    5  O3  UNL     1      -5.654   8.520  22.721  1.00  0.00    -0.277 OA
BRANCH   5   6
HETATM    6  C6  UNL     1      -4.716   8.633  23.806  1.00  0.00     0.361 C 
BRANCH   6   7
HETATM    7  O2  UNL     1      -5.194   9.241  24.925  1.00  0.00    -0.278 OA
BRANCH   7   8
HETATM    8  C5  UNL     1      -5.756   8.617  25.999  1.00  0.00     0.363 C 
HETATM    9  N1  UNL     1      -6.846   7.726  25.719  1.00  0.00    -0.329 N 
ATOM     10  H1  UNL     1      -7.138   7.608  24.749  1.00  0.00     0.165 HD
HETATM   11  O1  UNL     1      -5.319   8.837  27.135  1.00  0.00    -0.238 OA
BRANCH   9  12
HETATM   12  C2  UNL     1      -7.540   6.998  26.728  1.00  0.00     0.024 C 
HETATM   13  C1  UNL     1      -8.866   6.519  26.212  1.00  0.00     0.037 C 
HETATM   14  C3  UNL     1      -7.817   7.924  27.919  1.00  0.00     0.037 C 
HETATM   15  C4  UNL     1      -6.705   5.827  27.170  1.00  0.00     0.037 C 
ENDBRANCH   9  12
ENDBRANCH   7   8
ENDBRANCH   6   7
ENDBRANCH   5   6
ENDBRANCH   1   5
BRANCH   3  16
HETATM   16  C8  UNL     1      -6.454   4.878  22.860  1.00  0.00     0.036 A 
HETATM   17  C9  UNL     1      -6.036   3.957  21.932  1.00  0.00     0.030 A 
HETATM   18  C10 UNL     1      -6.675   2.716  21.799  1.00  0.00     0.010 A 
HETATM   19  C11 UNL     1      -7.742   2.369  22.585  1.00  0.00    -0.051 A 
HETATM   20  C16 UNL     1      -8.150   3.306  23.512  1.00  0.00     0.010 A 
HETATM   21  C17 UNL     1      -7.533   4.538  23.660  1.00  0.00     0.030 A 
BRANCH  19  22
HETATM   22  C12 UNL     1      -8.403   1.051  22.417  1.00  0.00    -0.024 C 
HETATM   23  C13 UNL     1      -7.644   0.226  21.403  1.00  0.00     0.019 C 
HETATM   24  C14 UNL     1      -8.547   0.293  23.709  1.00  0.00     0.019 C 
HETATM   25  C15 UNL     1      -9.759   1.340  21.787  1.00  0.00     0.019 C 
ENDBRANCH  19  22
ENDBRANCH   3  16
TORSDOF 7
ENDMDL
MODEL 4
REMARK VINA RESULT: -6.896370550      1.766      3.369
REMARK  7 active torsions:
REMARK  status: ('A' for Active; 'I' for Inactive)
REMARK    1  A    between atoms: C2_2  and  N1_5 
REMARK       I    between atoms: N1_5  and  C5_7 
REMARK    2  A    between atoms: C5_7  and  O2_9 
REMARK    3  A    between atoms: O2_9  and  C6_10 
REMARK    4  A    between atoms: C6_10  and  O3_11 
REMARK    5  A    between atoms: O3_11  and  C7_12 
REMARK       I    between atoms: C7_12  and  N2_14 
REMARK    6  A    between atoms: N2_14  and  C8_16 
REMARK    7  A    between atoms: C11_19  and  C12_20 
ROOT
HETATM    1  C7  UNL     1      -7.651   4.917  26.759  1.00  0.00     0.367 C 
HETATM    2  O4  UNL     1      -7.384   3.767  27.188  1.00  0.00    -0.238 OA
HETATM    3  N2  UNL     1      -8.003   5.132  25.441  1.00  0.00    -0.303 N 
ATOM      4  H2  UNL     1      -8.235   6.080  25.146  1.00  0.00     0.171 HD
ENDROOT
BRANCH   1   5
HETATM    5  O3  UNL     1      -7.571   5.965  27.678  1.00  0.00    -0.277 OA
BRANCH   5   6
HETATM    6  C6  UNL     1      -8.243   7.198  27.366  1.00  0.00     0.361 C 
BRANCH   6   7
HETATM    7  O2  UNL     1      -7.431   8.276  27.200  1.00  0.00    -0.278 OA
BRANCH   7   8
HETATM    8  C5  UNL     1      -6.236   8.287  26.542  1.00  0.00     0.363 C 
HETATM    9  N1  UNL     1      -6.238   7.747  25.212  1.00  0.00    -0.329 N 
ATOM     10  H1  UNL     1      -7.115   7.390  24.835  1.00  0.00     0.165 HD
HETATM   11  O1  UNL     1      -5.232   8.746  27.100  1.00  0.00    -0.238 OA
BRANCH   9  12
HETATM   12  C2  UNL     1      -5.074   7.687  24.392  1.00  0.00     0.024 C 
HETATM   13  C1  UNL     1      -4.324   8.986  24.448  1.00  0.00     0.037 C 
HETATM   14  C3  UNL     1      -5.494   7.462  22.934  1.00  0.00     0.037 C 
HETATM   15  C4  UNL     1      -4.190   6.560  24.852  1.00  0.00     0.037 C 
ENDBRANCH   9  12
ENDBRANCH   7   8
ENDBRANCH   6   7
ENDBRANCH   5   6
ENDBRANCH   1   5
BRANCH   3  16
HETATM   16  C8  UNL     1      -8.057   4.097  24.485  1.00  0.00     0.036 A 
HETATM   17  C9  UNL     1      -6.926   3.726  23.801  1.00  0.00     0.030 A 
HETATM   18  C10 UNL     1      -6.952   2.687  22.860  1.00  0.00     0.010 A 
HETATM   19  C11 UNL     1      -8.103   1.998  22.582  1.00  0.00    -0.051 A 
HETATM   20  C16 UNL     1      -9.230   2.382  23.278  1.00  0.00     0.010 A 
HETATM   21  C17 UNL     1      -9.226   3.407  24.211  1.00  0.00     0.030 A 
BRANCH  19  22
HETATM   22  C12 UNL     1      -8.102   0.906  21.576  1.00  0.00    -0.024 C 
HETATM   23  C13 UNL     1      -7.928  -0.425  22.270  1.00  0.00     0.019 C 
HETATM   24  C14 UNL     1      -9.337   0.893  20.717  1.00  0.00     0.019 C 
HETATM   25  C15 UNL     1      -6.845   1.108  20.740  1.00  0.00     0.019 C 
ENDBRANCH  19  22
ENDBRANCH   3  16
TORSDOF 7
ENDMDL
MODEL 5
REMARK VINA RESULT: -6.871350210      1.605      3.100
REMARK  7 active torsions:
REMARK  status: ('A' for Active; 'I' for Inactive)
REMARK    1  A    between atoms: C2_2  and  N1_5 
REMARK       I    between atoms: N1_5  and  C5_7 
REMARK    2  A    between atoms: C5_7  and  O2_9 
REMARK    3  A    between atoms: O2_9  and  C6_10 
REMARK    4  A    between atoms: C6_10  and  O3_11 
REMARK    5  A    between atoms: O3_11  and  C7_12 
REMARK       I    between atoms: C7_12  and  N2_14 
REMARK    6  A    between atoms: N2_14  and  C8_16 
REMARK    7  A    between atoms: C11_19  and  C12_20 
ROOT
HETATM    1  C7  UNL     1      -5.681   6.086  26.421  1.00  0.00     0.367 C 
HETATM    2  O4  UNL     1      -4.764   5.420  25.878  1.00  0.00    -0.238 OA
HETATM    3  N2  UNL     1      -7.010   5.744  26.266  1.00  0.00    -0.303 N 
ATOM      4  H2  UNL     1      -7.716   6.300  26.748  1.00  0.00     0.171 HD
ENDROOT
BRANCH   1   5
HETATM    5  O3  UNL     1      -5.289   7.187  27.185  1.00  0.00    -0.277 OA
BRANCH   5   6
HETATM    6  C6  UNL     1      -5.812   8.480  26.834  1.00  0.00     0.361 C 
BRANCH   6   7
HETATM    7  O2  UNL     1      -5.249   9.057  25.738  1.00  0.00    -0.278 OA
BRANCH   7   8
HETATM    8  C5  UNL     1      -5.107   8.479  24.511  1.00  0.00     0.363 C 
HETATM    9  N1  UNL     1      -6.318   8.091  23.846  1.00  0.00    -0.329 N 
ATOM     10  H1  UNL     1      -7.206   8.264  24.318  1.00  0.00     0.165 HD
HETATM   11  O1  UNL     1      -3.976   8.317  24.037  1.00  0.00    -0.238 OA
BRANCH   9  12
HETATM   12  C2  UNL     1      -6.341   7.476  22.562  1.00  0.00     0.024 C 
HETATM   13  C1  UNL     1      -5.808   8.417  21.520  1.00  0.00     0.037 C 
HETATM   14  C3  UNL     1      -7.792   7.148  22.184  1.00  0.00     0.037 C 
HETATM   15  C4  UNL     1      -5.520   6.217  22.589  1.00  0.00     0.037 C 
ENDBRANCH   9  12
ENDBRANCH   7   8
ENDBRANCH   6   7
ENDBRANCH   5   6
ENDBRANCH   1   5
BRANCH   3  16
HETATM   16  C8  UNL     1      -7.433   4.659  25.472  1.00  0.00     0.036 A 
HETATM   17  C9  UNL     1      -8.408   4.834  24.522  1.00  0.00     0.030 A 
HETATM   18  C10 UNL     1      -8.831   3.774  23.707  1.00  0.00     0.010 A 
HETATM   19  C11 UNL     1      -8.292   2.520  23.824  1.00  0.00    -0.051 A 
HETATM   20  C16 UNL     1      -7.313   2.360  24.784  1.00  0.00     0.010 A 
HETATM   21  C17 UNL     1      -6.882   3.395  25.599  1.00  0.00     0.030 A 
BRANCH  19  22
HETATM   22  C12 UNL     1      -8.763   1.414  22.953  1.00  0.00    -0.024 C 
HETATM   23  C13 UNL     1     -10.235   1.589  22.661  1.00  0.00     0.019 C 
HETATM   24  C14 UNL     1      -7.983   1.297  21.672  1.00  0.00     0.019 C 
HETATM   25  C15 UNL     1      -8.652   0.146  23.790  1.00  0.00     0.019 C 
ENDBRANCH  19  22
ENDBRANCH   3  16
TORSDOF 7
ENDMDL
