MODEL 1
REMARK VINA RESULT: -4.713762214      0.000      0.000
REMARK  2 active torsions:
REMARK  status: ('A' for Active; 'I' for Inactive)
REMARK    1  A    between atoms: C4_4  and  C5_5 
REMARK    2  A    between atoms: C5_5  and  C6_9 
ROOT
HETATM    1  C1  UNL     1      18.911  -9.822  -3.564  1.00  0.00     0.012 C 
HETATM    2  C2  UNL     1      18.642 -10.285  -4.957  1.00  0.00     0.014 C 
HETATM    3  C3  UNL     1      19.976 -10.622  -5.638  1.00  0.00     0.045 C 
HETATM    4  C4  UNL     1      19.964 -12.108  -5.835  1.00  0.00     0.236 C 
HETATM    5  N2  UNL     1      19.068 -12.524  -4.743  1.00  0.00    -0.061 N 
ATOM      6  H21 UNL     1      19.460 -12.491  -3.801  1.00  0.00     0.278 HD
ATOM      7  H22 UNL     1      18.846 -13.518  -4.698  1.00  0.00     0.278 HD
HETATM    8  C7  UNL     1      17.948 -11.628  -5.002  1.00  0.00     0.186 C 
HETATM    9  C8  UNL     1      16.855 -11.758  -3.988  1.00  0.00     0.040 C 
ENDROOT
BRANCH   4  10
HETATM   10  C5  UNL     1      21.270 -12.761  -5.690  1.00  0.00     0.044 C 
HETATM   11  N1  UNL     1      21.416 -13.707  -4.832  1.00  0.00    -0.400 N 
ATOM     12  H12 UNL     1      20.614 -13.984  -4.266  1.00  0.00     0.156 HD
ATOM     13  H11 UNL     1      22.323 -14.161  -4.732  1.00  0.00     0.156 HD
BRANCH  10  14
HETATM   14  C6  UNL     1      22.404 -12.369  -6.492  1.00  0.00     0.107 C 
HETATM   15  S1  UNL     1      23.154 -13.484  -7.440  1.00  0.00    -0.091 SA
ENDBRANCH  10  14
ENDBRANCH   4  10
TORSDOF 2
ENDMDL
MODEL 2
REMARK VINA RESULT: -4.321014428      8.533     10.008
REMARK  2 active torsions:
REMARK  status: ('A' for Active; 'I' for Inactive)
REMARK    1  A    between atoms: C4_4  and  C5_5 
REMARK    2  A    between atoms: C5_5  and  C6_9 
ROOT
HETATM    1  C1  UNL     1      25.653 -11.689  -9.594  1.00  0.00     0.012 C 
HETATM    2  C2  UNL     1      26.374 -10.874 -10.615  1.00  0.00     0.014 C 
HETATM    3  C3  UNL     1      26.867  -9.575  -9.962  1.00  0.00     0.045 C 
HETATM    4  C4  UNL     1      28.362  -9.680  -9.934  1.00  0.00     0.236 C 
HETATM    5  N2  UNL     1      28.536 -11.142  -9.912  1.00  0.00    -0.061 N 
ATOM      6  H21 UNL     1      28.328 -11.607  -9.028  1.00  0.00     0.278 HD
ATOM      7  H22 UNL     1      29.498 -11.480  -9.951  1.00  0.00     0.278 HD
HETATM    8  C7  UNL     1      27.685 -11.498 -11.040  1.00  0.00     0.186 C 
HETATM    9  C8  UNL     1      27.591 -12.976 -11.251  1.00  0.00     0.040 C 
ENDROOT
BRANCH   4  10
HETATM   10  C5  UNL     1      29.002  -9.079  -8.758  1.00  0.00     0.044 C 
HETATM   11  N1  UNL     1      29.116  -9.765  -7.677  1.00  0.00    -0.400 N 
ATOM     12  H12 UNL     1      28.756 -10.719  -7.661  1.00  0.00     0.156 HD
ATOM     13  H11 UNL     1      29.561  -9.348  -6.860  1.00  0.00     0.156 HD
BRANCH  10  14
HETATM   14  C6  UNL     1      29.512  -7.729  -8.781  1.00  0.00     0.107 C 
HETATM   15  S1  UNL     1      30.902  -7.398  -9.595  1.00  0.00    -0.091 SA
ENDBRANCH  10  14
ENDBRANCH   4  10
TORSDOF 2
ENDMDL
MODEL 3
REMARK VINA RESULT: -4.273751570      9.196     10.497
REMARK  2 active torsions:
REMARK  status: ('A' for Active; 'I' for Inactive)
REMARK    1  A    between atoms: C4_4  and  C5_5 
REMARK    2  A    between atoms: C5_5  and  C6_9 
ROOT
HETATM    1  C1  UNL     1      26.303 -12.495 -10.313  1.00  0.00     0.012 C 
HETATM    2  C2  UNL     1      27.125 -11.705 -11.275  1.00  0.00     0.014 C 
HETATM    3  C3  UNL     1      27.193 -10.248 -10.794  1.00  0.00     0.045 C 
HETATM    4  C4  UNL     1      28.619 -10.022 -10.392  1.00  0.00     0.236 C 
HETATM    5  N2  UNL     1      29.027 -11.393 -10.040  1.00  0.00    -0.061 N 
ATOM      6  H21 UNL     1      28.668 -11.756  -9.157  1.00  0.00     0.278 HD
ATOM      7  H22 UNL     1      30.006 -11.517  -9.782  1.00  0.00     0.278 HD
HETATM    8  C7  UNL     1      28.588 -12.087 -11.244  1.00  0.00     0.186 C 
HETATM    9  C8  UNL     1      28.808 -13.565 -11.173  1.00  0.00     0.040 C 
ENDROOT
BRANCH   4  10
HETATM   10  C5  UNL     1      28.804  -9.131  -9.241  1.00  0.00     0.044 C 
HETATM   11  N1  UNL     1      29.043  -9.632  -8.082  1.00  0.00    -0.400 N 
ATOM     12  H12 UNL     1      29.100 -10.646  -7.988  1.00  0.00     0.156 HD
ATOM     13  H11 UNL     1      29.172  -9.013  -7.282  1.00  0.00     0.156 HD
BRANCH  10  14
HETATM   14  C6  UNL     1      28.724  -7.696  -9.375  1.00  0.00     0.107 C 
HETATM   15  S1  UNL     1      30.055  -6.777  -9.081  1.00  0.00    -0.091 SA
ENDBRANCH  10  14
ENDBRANCH   4  10
TORSDOF 2
ENDMDL
MODEL 4
REMARK VINA RESULT: -4.220813302      8.149      9.461
REMARK  2 active torsions:
REMARK  status: ('A' for Active; 'I' for Inactive)
REMARK    1  A    between atoms: C4_4  and  C5_5 
REMARK    2  A    between atoms: C5_5  and  C6_9 
ROOT
HETATM    1  C1  UNL     1      24.822  -9.567 -11.120  1.00  0.00     0.012 C 
HETATM    2  C2  UNL     1      26.054 -10.336 -11.461  1.00  0.00     0.014 C 
HETATM    3  C3  UNL     1      27.283  -9.449 -11.209  1.00  0.00     0.045 C 
HETATM    4  C4  UNL     1      27.998 -10.072 -10.049  1.00  0.00     0.236 C 
HETATM    5  N2  UNL     1      26.882 -10.749  -9.367  1.00  0.00    -0.061 N 
ATOM      6  H21 UNL     1      26.238 -10.147  -8.853  1.00  0.00     0.278 HD
ATOM      7  H22 UNL     1      27.128 -11.310  -8.552  1.00  0.00     0.278 HD
HETATM    8  C7  UNL     1      26.318 -11.473 -10.499  1.00  0.00     0.186 C 
HETATM    9  C8  UNL     1      25.083 -12.237 -10.140  1.00  0.00     0.040 C 
ENDROOT
BRANCH   4  10
HETATM   10  C5  UNL     1      28.642  -9.120  -9.136  1.00  0.00     0.044 C 
HETATM   11  N1  UNL     1      29.162  -9.543  -8.040  1.00  0.00    -0.400 N 
ATOM     12  H12 UNL     1      29.116 -10.539  -7.827  1.00  0.00     0.156 HD
ATOM     13  H11 UNL     1      29.610  -8.881  -7.406  1.00  0.00     0.156 HD
BRANCH  10  14
HETATM   14  C6  UNL     1      28.708  -7.710  -9.438  1.00  0.00     0.107 C 
HETATM   15  S1  UNL     1      30.045  -6.850  -9.018  1.00  0.00    -0.091 SA
ENDBRANCH  10  14
ENDBRANCH   4  10
TORSDOF 2
ENDMDL
MODEL 5
REMARK VINA RESULT: -4.078612683      7.591      8.820
REMARK  2 active torsions:
REMARK  status: ('A' for Active; 'I' for Inactive)
REMARK    1  A    between atoms: C4_4  and  C5_5 
REMARK    2  A    between atoms: C5_5  and  C6_9 
ROOT
HETATM    1  C1  UNL     1      27.432  -8.715 -11.687  1.00  0.00     0.012 C 
HETATM    2  C2  UNL     1      26.538  -8.773 -10.494  1.00  0.00     0.014 C 
HETATM    3  C3  UNL     1      25.382  -9.742 -10.782  1.00  0.00     0.045 C 
HETATM    4  C4  UNL     1      25.597 -10.909  -9.868  1.00  0.00     0.236 C 
HETATM    5  N2  UNL     1      27.057 -10.849  -9.682  1.00  0.00    -0.061 N 
ATOM      6  H21 UNL     1      27.624 -11.158 -10.472  1.00  0.00     0.278 HD
ATOM      7  H22 UNL     1      27.455 -11.527  -9.033  1.00  0.00     0.278 HD
HETATM    8  C7  UNL     1      27.190  -9.447  -9.307  1.00  0.00     0.186 C 
HETATM    9  C8  UNL     1      28.614  -9.033  -9.106  1.00  0.00     0.040 C 
ENDROOT
BRANCH   4  10
HETATM   10  C5  UNL     1      25.215 -12.211 -10.427  1.00  0.00     0.044 C 
HETATM   11  N1  UNL     1      24.484 -13.009  -9.735  1.00  0.00    -0.400 N 
ATOM     12  H12 UNL     1      24.184 -12.718  -8.805  1.00  0.00     0.156 HD
ATOM     13  H11 UNL     1      24.218 -13.914 -10.123  1.00  0.00     0.156 HD
BRANCH  10  14
HETATM   14  C6  UNL     1      25.639 -12.623 -11.744  1.00  0.00     0.107 C 
HETATM   15  S1  UNL     1      26.719 -13.853 -11.904  1.00  0.00    -0.091 SA
ENDBRANCH  10  14
ENDBRANCH   4  10
TORSDOF 2
ENDMDL
