MODEL 1
REMARK VINA RESULT: -8.015897867      0.000      0.000
REMARK  15 active torsions:
REMARK  status: ('A' for Active; 'I' for Inactive)
REMARK    1  A    between atoms: O1_2  and  C2_3 
REMARK    2  A    between atoms: C2_3  and  C3_4 
REMARK    3  A    between atoms: C3_4  and  C4_5 
REMARK    4  A    between atoms: C4_5  and  N1_6 
REMARK    5  A    between atoms: C7_9  and  C8_10 
REMARK    6  A    between atoms: C8_10  and  O2_11 
REMARK    7  A    between atoms: N2_17  and  C13_18 
REMARK    8  A    between atoms: C13_18  and  C14_19 
REMARK    9  A    between atoms: C14_19  and  C15_20 
REMARK   10  A    between atoms: C15_20  and  N3_21 
REMARK   11  A    between atoms: N3_21  and  C16_22 
REMARK   12  A    between atoms: N3_21  and  C20_26 
REMARK   13  A    between atoms: C16_22  and  C17_23 
REMARK   14  A    between atoms: C20_26  and  C21_27 
REMARK   15  A    between atoms: C30_37  and  O3_38 
ROOT
HETATM    1  N1  UNL     1      21.961  31.640  14.513  1.00  0.00    -0.406 N 
HETATM    2  C5  UNL     1      22.585  30.350  14.586  1.00  0.00     0.118 C 
HETATM    3  C6  UNL     1      22.798  29.646  13.317  1.00  0.00     0.034 C 
HETATM    4  C7  UNL     1      21.635  29.550  12.373  1.00  0.00     0.020 C 
HETATM    5  C9  UNL     1      21.508  30.795  11.566  1.00  0.00     0.017 C 
HETATM    6  C10 UNL     1      20.901  31.957  12.279  1.00  0.00     0.028 C 
HETATM    7  C11 UNL     1      20.762  31.720  13.755  1.00  0.00     0.105 C 
HETATM    8  C12 UNL     1      19.950  30.475  13.926  1.00  0.00     0.147 C 
HETATM    9  N2  UNL     1      18.547  30.798  13.522  1.00  0.00    -0.370 N 
HETATM   10  C24 UNL     1      18.218  29.866  12.531  1.00  0.00     0.040 A 
HETATM   11  C25 UNL     1      17.033  29.712  11.791  1.00  0.00     0.031 A 
HETATM   12  C26 UNL     1      16.828  28.628  10.940  1.00  0.00     0.021 A 
HETATM   13  C27 UNL     1      17.791  27.679  10.806  1.00  0.00     0.011 A 
HETATM   14 BR1  UNL     1      17.570  26.158   9.649  1.00  0.00    -0.051 Br
HETATM   15  C28 UNL     1      18.946  27.829  11.525  1.00  0.00     0.031 A 
HETATM   16  C29 UNL     1      19.206  28.898  12.389  1.00  0.00     0.007 A 
HETATM   17  C30 UNL     1      20.366  29.292  13.153  1.00  0.00     0.119 C 
ENDROOT
BRANCH   9  18
HETATM   18  C13 UNL     1      17.832  31.832  14.183  1.00  0.00     0.125 C 
BRANCH  18  19
HETATM   19  C14 UNL     1      17.566  31.631  15.602  1.00  0.00     0.040 C 
BRANCH  19  20
HETATM   20  C15 UNL     1      18.527  32.516  16.481  1.00  0.00     0.128 C 
BRANCH  20  21
HETATM   21  N3  UNL     1      17.785  33.688  16.789  1.00  0.00    -0.373 N 
BRANCH  21  22
HETATM   22  C16 UNL     1      16.424  33.617  17.047  1.00  0.00     0.067 C 
BRANCH  22  23
HETATM   23  C17 UNL     1      15.507  34.569  16.317  1.00  0.00     0.016 C 
HETATM   24  C18 UNL     1      16.297  35.142  15.142  1.00  0.00     0.015 C 
HETATM   25  C19 UNL     1      14.916  35.686  17.068  1.00  0.00     0.015 C 
ENDBRANCH  22  23
ENDBRANCH  21  22
BRANCH  21  26
HETATM   26  C20 UNL     1      18.559  34.815  17.110  1.00  0.00     0.067 C 
BRANCH  26  27
HETATM   27  C21 UNL     1      18.431  35.431  18.454  1.00  0.00     0.016 C 
HETATM   28  C22 UNL     1      18.066  36.921  18.356  1.00  0.00     0.015 C 
HETATM   29  C23 UNL     1      19.782  35.463  19.186  1.00  0.00     0.015 C 
ENDBRANCH  26  27
ENDBRANCH  21  26
ENDBRANCH  20  21
ENDBRANCH  19  20
ENDBRANCH  18  19
ENDBRANCH   9  18
BRANCH  17  30
HETATM   30  O3  UNL     1      20.699  28.254  14.062  1.00  0.00    -0.382 OA
ATOM     31  H3  UNL     1      20.184  28.434  14.840  1.00  0.00     0.211 HD
ENDBRANCH  17  30
BRANCH   1  32
HETATM   32  C4  UNL     1      22.923  32.661  14.374  1.00  0.00     0.119 C 
BRANCH  32  33
HETATM   33  C3  UNL     1      23.434  33.288  15.642  1.00  0.00     0.045 C 
BRANCH  33  34
HETATM   34  C2  UNL     1      22.276  33.953  16.392  1.00  0.00     0.168 C 
BRANCH  34  35
HETATM   35  O1  UNL     1      21.708  34.949  15.578  1.00  0.00    -0.396 OA
HETATM   36  C1  UNL     1      21.898  36.174  16.175  1.00  0.00     0.201 C 
ENDBRANCH  34  35
ENDBRANCH  33  34
ENDBRANCH  32  33
ENDBRANCH   1  32
BRANCH   4  37
HETATM   37  C8  UNL     1      21.970  28.384  11.467  1.00  0.00     0.177 C 
BRANCH  37  38
HETATM   38  O2  UNL     1      22.767  27.440  12.185  1.00  0.00    -0.400 OA
ATOM     39  H2  UNL     1      23.645  27.430  11.825  1.00  0.00     0.209 HD
ENDBRANCH  37  38
ENDBRANCH   4  37
TORSDOF 15
ENDMDL
MODEL 2
REMARK VINA RESULT: -7.955908246      2.642      5.611
REMARK  15 active torsions:
REMARK  status: ('A' for Active; 'I' for Inactive)
REMARK    1  A    between atoms: O1_2  and  C2_3 
REMARK    2  A    between atoms: C2_3  and  C3_4 
REMARK    3  A    between atoms: C3_4  and  C4_5 
REMARK    4  A    between atoms: C4_5  and  N1_6 
REMARK    5  A    between atoms: C7_9  and  C8_10 
REMARK    6  A    between atoms: C8_10  and  O2_11 
REMARK    7  A    between atoms: N2_17  and  C13_18 
REMARK    8  A    between atoms: C13_18  and  C14_19 
REMARK    9  A    between atoms: C14_19  and  C15_20 
REMARK   10  A    between atoms: C15_20  and  N3_21 
REMARK   11  A    between atoms: N3_21  and  C16_22 
REMARK   12  A    between atoms: N3_21  and  C20_26 
REMARK   13  A    between atoms: C16_22  and  C17_23 
REMARK   14  A    between atoms: C20_26  and  C21_27 
REMARK   15  A    between atoms: C30_37  and  O3_38 
ROOT
HETATM    1  N1  UNL     1      22.624  29.761  13.386  1.00  0.00    -0.406 N 
HETATM    2  C5  UNL     1      21.933  28.715  14.086  1.00  0.00     0.118 C 
HETATM    3  C6  UNL     1      20.516  28.524  13.757  1.00  0.00     0.034 C 
HETATM    4  C7  UNL     1      19.637  29.741  13.745  1.00  0.00     0.020 C 
HETATM    5  C9  UNL     1      19.755  30.464  12.449  1.00  0.00     0.017 C 
HETATM    6  C10 UNL     1      20.989  31.289  12.290  1.00  0.00     0.028 C 
HETATM    7  C11 UNL     1      21.996  31.034  13.374  1.00  0.00     0.105 C 
HETATM    8  C12 UNL     1      21.315  31.296  14.679  1.00  0.00     0.147 C 
HETATM    9  N2  UNL     1      21.101  32.773  14.784  1.00  0.00    -0.370 N 
HETATM   10  C24 UNL     1      19.728  32.938  14.997  1.00  0.00     0.040 A 
HETATM   11  C25 UNL     1      18.972  34.113  15.154  1.00  0.00     0.031 A 
HETATM   12  C26 UNL     1      17.624  34.083  15.506  1.00  0.00     0.021 A 
HETATM   13  C27 UNL     1      17.001  32.893  15.707  1.00  0.00     0.011 A 
HETATM   14 BR1  UNL     1      15.143  32.783  16.194  1.00  0.00    -0.051 Br
HETATM   15  C28 UNL     1      17.736  31.749  15.552  1.00  0.00     0.031 A 
HETATM   16  C29 UNL     1      19.089  31.720  15.197  1.00  0.00     0.007 A 
HETATM   17  C30 UNL     1      20.009  30.649  14.895  1.00  0.00     0.119 C 
ENDROOT
BRANCH   9  18
HETATM   18  C13 UNL     1      22.208  33.662  14.729  1.00  0.00     0.125 C 
BRANCH  18  19
HETATM   19  C14 UNL     1      22.673  34.196  16.004  1.00  0.00     0.040 C 
BRANCH  19  20
HETATM   20  C15 UNL     1      22.293  35.717  16.144  1.00  0.00     0.128 C 
BRANCH  20  21
HETATM   21  N3  UNL     1      21.959  35.898  17.514  1.00  0.00    -0.373 N 
BRANCH  21  22
HETATM   22  C16 UNL     1      22.607  36.857  18.278  1.00  0.00     0.067 C 
BRANCH  22  23
HETATM   23  C17 UNL     1      23.075  38.119  17.595  1.00  0.00     0.016 C 
HETATM   24  C18 UNL     1      24.215  38.690  18.435  1.00  0.00     0.015 C 
HETATM   25  C19 UNL     1      22.095  39.189  17.354  1.00  0.00     0.015 C 
ENDBRANCH  22  23
ENDBRANCH  21  22
BRANCH  21  26
HETATM   26  C20 UNL     1      20.763  35.286  17.921  1.00  0.00     0.067 C 
BRANCH  26  27
HETATM   27  C21 UNL     1      19.692  36.108  18.535  1.00  0.00     0.016 C 
HETATM   28  C22 UNL     1      18.458  35.257  18.878  1.00  0.00     0.015 C 
HETATM   29  C23 UNL     1      19.128  37.131  17.536  1.00  0.00     0.015 C 
ENDBRANCH  26  27
ENDBRANCH  21  26
ENDBRANCH  20  21
ENDBRANCH  19  20
ENDBRANCH  18  19
ENDBRANCH   9  18
BRANCH  17  30
HETATM   30  O3  UNL     1      20.111  29.792  16.021  1.00  0.00    -0.382 OA
ATOM     31  H3  UNL     1      19.264  29.845  16.448  1.00  0.00     0.211 HD
ENDBRANCH  17  30
BRANCH   1  32
HETATM   32  C4  UNL     1      23.204  29.276  12.196  1.00  0.00     0.119 C 
BRANCH  32  33
HETATM   33  C3  UNL     1      23.342  27.784  12.068  1.00  0.00     0.045 C 
BRANCH  33  34
HETATM   34  C2  UNL     1      24.825  27.403  12.035  1.00  0.00     0.168 C 
BRANCH  34  35
HETATM   35  O1  UNL     1      24.944  26.024  11.788  1.00  0.00    -0.396 OA
HETATM   36  C1  UNL     1      24.028  25.663  10.828  1.00  0.00     0.201 C 
ENDBRANCH  34  35
ENDBRANCH  33  34
ENDBRANCH  32  33
ENDBRANCH   1  32
BRANCH   4  37
HETATM   37  C8  UNL     1      18.231  29.200  13.903  1.00  0.00     0.177 C 
BRANCH  37  38
HETATM   38  O2  UNL     1      18.288  27.896  14.485  1.00  0.00    -0.400 OA
ATOM     39  H2  UNL     1      18.194  27.243  13.803  1.00  0.00     0.209 HD
ENDBRANCH  37  38
ENDBRANCH   4  37
TORSDOF 15
ENDMDL
MODEL 3
REMARK VINA RESULT: -7.805463221      2.437      5.137
REMARK  15 active torsions:
REMARK  status: ('A' for Active; 'I' for Inactive)
REMARK    1  A    between atoms: O1_2  and  C2_3 
REMARK    2  A    between atoms: C2_3  and  C3_4 
REMARK    3  A    between atoms: C3_4  and  C4_5 
REMARK    4  A    between atoms: C4_5  and  N1_6 
REMARK    5  A    between atoms: C7_9  and  C8_10 
REMARK    6  A    between atoms: C8_10  and  O2_11 
REMARK    7  A    between atoms: N2_17  and  C13_18 
REMARK    8  A    between atoms: C13_18  and  C14_19 
REMARK    9  A    between atoms: C14_19  and  C15_20 
REMARK   10  A    between atoms: C15_20  and  N3_21 
REMARK   11  A    between atoms: N3_21  and  C16_22 
REMARK   12  A    between atoms: N3_21  and  C20_26 
REMARK   13  A    between atoms: C16_22  and  C17_23 
REMARK   14  A    between atoms: C20_26  and  C21_27 
REMARK   15  A    between atoms: C30_37  and  O3_38 
ROOT
HETATM    1  N1  UNL     1      18.356  33.208  15.479  1.00  0.00    -0.406 N 
HETATM    2  C5  UNL     1      17.843  33.039  14.149  1.00  0.00     0.118 C 
HETATM    3  C6  UNL     1      17.762  31.664  13.642  1.00  0.00     0.034 C 
HETATM    4  C7  UNL     1      18.978  30.797  13.789  1.00  0.00     0.020 C 
HETATM    5  C9  UNL     1      19.040  30.203  15.152  1.00  0.00     0.017 C 
HETATM    6  C10 UNL     1      19.504  31.126  16.229  1.00  0.00     0.028 C 
HETATM    7  C11 UNL     1      19.582  32.553  15.771  1.00  0.00     0.105 C 
HETATM    8  C12 UNL     1      20.489  32.585  14.582  1.00  0.00     0.147 C 
HETATM    9  N2  UNL     1      21.879  32.330  15.073  1.00  0.00    -0.370 N 
HETATM   10  C24 UNL     1      22.341  31.232  14.339  1.00  0.00     0.040 A 
HETATM   11  C25 UNL     1      23.573  30.559  14.397  1.00  0.00     0.031 A 
HETATM   12  C26 UNL     1      23.918  29.566  13.481  1.00  0.00     0.021 A 
HETATM   13  C27 UNL     1      23.050  29.222  12.495  1.00  0.00     0.011 A 
HETATM   14 BR1  UNL     1      23.464  27.862  11.199  1.00  0.00    -0.051 Br
HETATM   15  C28 UNL     1      21.849  29.877  12.438  1.00  0.00     0.031 A 
HETATM   16  C29 UNL     1      21.450  30.876  13.332  1.00  0.00     0.007 A 
HETATM   17  C30 UNL     1      20.221  31.612  13.508  1.00  0.00     0.119 C 
ENDROOT
BRANCH   9  18
HETATM   18  C13 UNL     1      22.464  33.190  16.041  1.00  0.00     0.125 C 
BRANCH  18  19
HETATM   19  C14 UNL     1      22.887  34.503  15.569  1.00  0.00     0.040 C 
BRANCH  19  20
HETATM   20  C15 UNL     1      21.706  35.538  15.665  1.00  0.00     0.128 C 
BRANCH  20  21
HETATM   21  N3  UNL     1      21.829  36.136  16.949  1.00  0.00    -0.373 N 
BRANCH  21  22
HETATM   22  C16 UNL     1      21.060  35.689  18.013  1.00  0.00     0.067 C 
BRANCH  22  23
HETATM   23  C17 UNL     1      19.558  35.804  17.907  1.00  0.00     0.016 C 
HETATM   24  C18 UNL     1      19.229  37.287  17.751  1.00  0.00     0.015 C 
HETATM   25  C19 UNL     1      18.736  35.259  18.997  1.00  0.00     0.015 C 
ENDBRANCH  22  23
ENDBRANCH  21  22
BRANCH  21  26
HETATM   26  C20 UNL     1      22.959  36.950  17.120  1.00  0.00     0.067 C 
BRANCH  26  27
HETATM   27  C21 UNL     1      22.837  38.221  17.876  1.00  0.00     0.016 C 
HETATM   28  C22 UNL     1      22.245  39.340  17.002  1.00  0.00     0.015 C 
HETATM   29  C23 UNL     1      24.217  38.783  18.253  1.00  0.00     0.015 C 
ENDBRANCH  26  27
ENDBRANCH  21  26
ENDBRANCH  20  21
ENDBRANCH  19  20
ENDBRANCH  18  19
ENDBRANCH   9  18
BRANCH  17  30
HETATM   30  O3  UNL     1      19.930  32.325  12.316  1.00  0.00    -0.382 OA
ATOM     31  H3  UNL     1      20.775  32.605  11.986  1.00  0.00     0.211 HD
ENDBRANCH  17  30
BRANCH   1  32
HETATM   32  C4  UNL     1      17.318  33.163  16.432  1.00  0.00     0.119 C 
BRANCH  32  33
HETATM   33  C3  UNL     1      16.172  34.116  16.230  1.00  0.00     0.045 C 
BRANCH  33  34
HETATM   34  C2  UNL     1      15.216  34.035  17.423  1.00  0.00     0.168 C 
BRANCH  34  35
HETATM   35  O1  UNL     1      15.379  35.178  18.226  1.00  0.00    -0.396 OA
HETATM   36  C1  UNL     1      15.606  36.264  17.414  1.00  0.00     0.201 C 
ENDBRANCH  34  35
ENDBRANCH  33  34
ENDBRANCH  32  33
ENDBRANCH   1  32
BRANCH   4  37
HETATM   37  C8  UNL     1      18.795  29.702  12.760  1.00  0.00     0.177 C 
BRANCH  37  38
HETATM   38  O2  UNL     1      17.849  30.128  11.777  1.00  0.00    -0.400 OA
ATOM     39  H2  UNL     1      17.629  29.396  11.214  1.00  0.00     0.209 HD
ENDBRANCH  37  38
ENDBRANCH   4  37
TORSDOF 15
ENDMDL
MODEL 4
REMARK VINA RESULT: -7.790814489      2.649      5.423
REMARK  15 active torsions:
REMARK  status: ('A' for Active; 'I' for Inactive)
REMARK    1  A    between atoms: O1_2  and  C2_3 
REMARK    2  A    between atoms: C2_3  and  C3_4 
REMARK    3  A    between atoms: C3_4  and  C4_5 
REMARK    4  A    between atoms: C4_5  and  N1_6 
REMARK    5  A    between atoms: C7_9  and  C8_10 
REMARK    6  A    between atoms: C8_10  and  O2_11 
REMARK    7  A    between atoms: N2_17  and  C13_18 
REMARK    8  A    between atoms: C13_18  and  C14_19 
REMARK    9  A    between atoms: C14_19  and  C15_20 
REMARK   10  A    between atoms: C15_20  and  N3_21 
REMARK   11  A    between atoms: N3_21  and  C16_22 
REMARK   12  A    between atoms: N3_21  and  C20_26 
REMARK   13  A    between atoms: C16_22  and  C17_23 
REMARK   14  A    between atoms: C20_26  and  C21_27 
REMARK   15  A    between atoms: C30_37  and  O3_38 
ROOT
HETATM    1  N1  UNL     1      22.630  29.773  13.434  1.00  0.00    -0.406 N 
HETATM    2  C5  UNL     1      21.937  28.723  14.123  1.00  0.00     0.118 C 
HETATM    3  C6  UNL     1      20.521  28.533  13.786  1.00  0.00     0.034 C 
HETATM    4  C7  UNL     1      19.641  29.749  13.778  1.00  0.00     0.020 C 
HETATM    5  C9  UNL     1      19.765  30.480  12.487  1.00  0.00     0.017 C 
HETATM    6  C10 UNL     1      20.999  31.308  12.339  1.00  0.00     0.028 C 
HETATM    7  C11 UNL     1      22.001  31.047  13.426  1.00  0.00     0.105 C 
HETATM    8  C12 UNL     1      21.313  31.300  14.730  1.00  0.00     0.147 C 
HETATM    9  N2  UNL     1      21.097  32.775  14.843  1.00  0.00    -0.370 N 
HETATM   10  C24 UNL     1      19.723  32.938  15.051  1.00  0.00     0.040 A 
HETATM   11  C25 UNL     1      18.966  34.112  15.211  1.00  0.00     0.031 A 
HETATM   12  C26 UNL     1      17.616  34.078  15.556  1.00  0.00     0.021 A 
HETATM   13  C27 UNL     1      16.992  32.887  15.746  1.00  0.00     0.011 A 
HETATM   14 BR1  UNL     1      15.133  32.771  16.224  1.00  0.00    -0.051 Br
HETATM   15  C28 UNL     1      17.729  31.744  15.588  1.00  0.00     0.031 A 
HETATM   16  C29 UNL     1      19.084  31.718  15.239  1.00  0.00     0.007 A 
HETATM   17  C30 UNL     1      20.007  30.650  14.935  1.00  0.00     0.119 C 
ENDROOT
BRANCH   9  18
HETATM   18  C13 UNL     1      22.203  33.665  14.799  1.00  0.00     0.125 C 
BRANCH  18  19
HETATM   19  C14 UNL     1      22.515  34.372  16.036  1.00  0.00     0.040 C 
BRANCH  19  20
HETATM   20  C15 UNL     1      22.017  35.863  15.968  1.00  0.00     0.128 C 
BRANCH  20  21
HETATM   21  N3  UNL     1      21.945  36.301  17.319  1.00  0.00    -0.373 N 
BRANCH  21  22
HETATM   22  C16 UNL     1      21.082  35.688  18.215  1.00  0.00     0.067 C 
BRANCH  22  23
HETATM   23  C17 UNL     1      19.798  36.399  18.571  1.00  0.00     0.016 C 
HETATM   24  C18 UNL     1      18.743  35.324  18.823  1.00  0.00     0.015 C 
HETATM   25  C19 UNL     1      19.250  37.373  17.616  1.00  0.00     0.015 C 
ENDBRANCH  22  23
ENDBRANCH  21  22
BRANCH  21  26
HETATM   26  C20 UNL     1      22.992  37.141  17.729  1.00  0.00     0.067 C 
BRANCH  26  27
HETATM   27  C21 UNL     1      22.688  38.518  18.187  1.00  0.00     0.016 C 
HETATM   28  C22 UNL     1      22.312  39.433  17.009  1.00  0.00     0.015 C 
HETATM   29  C23 UNL     1      23.936  39.206  18.762  1.00  0.00     0.015 C 
ENDBRANCH  26  27
ENDBRANCH  21  26
ENDBRANCH  20  21
ENDBRANCH  19  20
ENDBRANCH  18  19
ENDBRANCH   9  18
BRANCH  17  30
HETATM   30  O3  UNL     1      20.104  29.786  16.056  1.00  0.00    -0.382 OA
ATOM     31  H3  UNL     1      19.542  29.049  15.847  1.00  0.00     0.211 HD
ENDBRANCH  17  30
BRANCH   1  32
HETATM   32  C4  UNL     1      23.216  29.297  12.243  1.00  0.00     0.119 C 
BRANCH  32  33
HETATM   33  C3  UNL     1      23.297  27.804  12.078  1.00  0.00     0.045 C 
BRANCH  33  34
HETATM   34  C2  UNL     1      24.759  27.382  11.907  1.00  0.00     0.168 C 
BRANCH  34  35
HETATM   35  O1  UNL     1      24.824  25.984  11.768  1.00  0.00    -0.396 OA
HETATM   36  C1  UNL     1      24.007  25.601  10.730  1.00  0.00     0.201 C 
ENDBRANCH  34  35
ENDBRANCH  33  34
ENDBRANCH  32  33
ENDBRANCH   1  32
BRANCH   4  37
HETATM   37  C8  UNL     1      18.235  29.206  13.925  1.00  0.00     0.177 C 
BRANCH  37  38
HETATM   38  O2  UNL     1      18.289  27.905  14.513  1.00  0.00    -0.400 OA
ATOM     39  H2  UNL     1      17.416  27.643  14.779  1.00  0.00     0.209 HD
ENDBRANCH  37  38
ENDBRANCH   4  37
TORSDOF 15
ENDMDL
MODEL 5
REMARK VINA RESULT: -7.789960374      2.374      5.360
REMARK  15 active torsions:
REMARK  status: ('A' for Active; 'I' for Inactive)
REMARK    1  A    between atoms: O1_2  and  C2_3 
REMARK    2  A    between atoms: C2_3  and  C3_4 
REMARK    3  A    between atoms: C3_4  and  C4_5 
REMARK    4  A    between atoms: C4_5  and  N1_6 
REMARK    5  A    between atoms: C7_9  and  C8_10 
REMARK    6  A    between atoms: C8_10  and  O2_11 
REMARK    7  A    between atoms: N2_17  and  C13_18 
REMARK    8  A    between atoms: C13_18  and  C14_19 
REMARK    9  A    between atoms: C14_19  and  C15_20 
REMARK   10  A    between atoms: C15_20  and  N3_21 
REMARK   11  A    between atoms: N3_21  and  C16_22 
REMARK   12  A    between atoms: N3_21  and  C20_26 
REMARK   13  A    between atoms: C16_22  and  C17_23 
REMARK   14  A    between atoms: C20_26  and  C21_27 
REMARK   15  A    between atoms: C30_37  and  O3_38 
ROOT
HETATM    1  N1  UNL     1      18.331  33.268  15.556  1.00  0.00    -0.406 N 
HETATM    2  C5  UNL     1      17.803  33.098  14.232  1.00  0.00     0.118 C 
HETATM    3  C6  UNL     1      17.709  31.723  13.729  1.00  0.00     0.034 C 
HETATM    4  C7  UNL     1      18.923  30.851  13.864  1.00  0.00     0.020 C 
HETATM    5  C9  UNL     1      18.997  30.259  15.228  1.00  0.00     0.017 C 
HETATM    6  C10 UNL     1      19.477  31.183  16.298  1.00  0.00     0.028 C 
HETATM    7  C11 UNL     1      19.557  32.608  15.836  1.00  0.00     0.105 C 
HETATM    8  C12 UNL     1      20.451  32.633  14.637  1.00  0.00     0.147 C 
HETATM    9  N2  UNL     1      21.845  32.373  15.113  1.00  0.00    -0.370 N 
HETATM   10  C24 UNL     1      22.294  31.271  14.376  1.00  0.00     0.040 A 
HETATM   11  C25 UNL     1      23.524  30.593  14.422  1.00  0.00     0.031 A 
HETATM   12  C26 UNL     1      23.853  29.597  13.505  1.00  0.00     0.021 A 
HETATM   13  C27 UNL     1      22.973  29.254  12.529  1.00  0.00     0.011 A 
HETATM   14 BR1  UNL     1      23.367  27.890  11.232  1.00  0.00    -0.051 Br
HETATM   15  C28 UNL     1      21.775  29.914  12.484  1.00  0.00     0.031 A 
HETATM   16  C29 UNL     1      21.390  30.917  13.380  1.00  0.00     0.007 A 
HETATM   17  C30 UNL     1      20.166  31.659  13.568  1.00  0.00     0.119 C 
ENDROOT
BRANCH   9  18
HETATM   18  C13 UNL     1      22.445  33.232  16.072  1.00  0.00     0.125 C 
BRANCH  18  19
HETATM   19  C14 UNL     1      23.018  34.472  15.562  1.00  0.00     0.040 C 
BRANCH  19  20
HETATM   20  C15 UNL     1      21.931  35.609  15.507  1.00  0.00     0.128 C 
BRANCH  20  21
HETATM   21  N3  UNL     1      21.623  35.904  16.863  1.00  0.00    -0.373 N 
BRANCH  21  22
HETATM   22  C16 UNL     1      22.583  36.447  17.704  1.00  0.00     0.067 C 
BRANCH  22  23
HETATM   23  C17 UNL     1      23.076  37.845  17.417  1.00  0.00     0.016 C 
HETATM   24  C18 UNL     1      23.821  38.323  18.662  1.00  0.00     0.015 C 
HETATM   25  C19 UNL     1      22.092  38.871  17.043  1.00  0.00     0.015 C 
ENDBRANCH  22  23
ENDBRANCH  21  22
BRANCH  21  26
HETATM   26  C20 UNL     1      20.255  35.903  17.176  1.00  0.00     0.067 C 
BRANCH  26  27
HETATM   27  C21 UNL     1      19.813  36.326  18.527  1.00  0.00     0.016 C 
HETATM   28  C22 UNL     1      18.885  35.280  19.168  1.00  0.00     0.015 C 
HETATM   29  C23 UNL     1      18.918  37.574  18.460  1.00  0.00     0.015 C 
ENDBRANCH  26  27
ENDBRANCH  21  26
ENDBRANCH  20  21
ENDBRANCH  19  20
ENDBRANCH  18  19
ENDBRANCH   9  18
BRANCH  17  30
HETATM   30  O3  UNL     1      19.866  32.371  12.378  1.00  0.00    -0.382 OA
ATOM     31  H3  UNL     1      20.711  32.601  12.010  1.00  0.00     0.211 HD
ENDBRANCH  17  30
BRANCH   1  32
HETATM   32  C4  UNL     1      17.303  33.230  16.520  1.00  0.00     0.119 C 
BRANCH  32  33
HETATM   33  C3  UNL     1      16.100  34.095  16.262  1.00  0.00     0.045 C 
BRANCH  33  34
HETATM   34  C2  UNL     1      15.151  34.031  17.462  1.00  0.00     0.168 C 
BRANCH  34  35
HETATM   35  O1  UNL     1      15.522  35.011  18.400  1.00  0.00    -0.396 OA
HETATM   36  C1  UNL     1      15.594  36.230  17.766  1.00  0.00     0.201 C 
ENDBRANCH  34  35
ENDBRANCH  33  34
ENDBRANCH  32  33
ENDBRANCH   1  32
BRANCH   4  37
HETATM   37  C8  UNL     1      18.724  29.753  12.840  1.00  0.00     0.177 C 
BRANCH  37  38
HETATM   38  O2  UNL     1      17.794  30.194  11.848  1.00  0.00    -0.400 OA
ATOM     39  H2  UNL     1      18.259  30.386  11.043  1.00  0.00     0.209 HD
ENDBRANCH  37  38
ENDBRANCH   4  37
TORSDOF 15
ENDMDL
