MODEL 1
REMARK VINA RESULT: -9.113109042      0.000      0.000
REMARK  12 active torsions:
REMARK  status: ('A' for Active; 'I' for Inactive)
REMARK    1  A    between atoms: C2_2  and  C3_3 
REMARK    2  A    between atoms: C3_3  and  C4_4 
REMARK    3  A    between atoms: C4_4  and  N1_5 
REMARK    4  A    between atoms: C6_8  and  N3_9 
REMARK    5  A    between atoms: N3_9  and  C7_10 
REMARK       I    between atoms: N3_9  and  C18_22 
REMARK    6  A    between atoms: C7_10  and  C8_11 
REMARK    7  A    between atoms: C8_11  and  C9_12 
REMARK    8  A    between atoms: C18_22  and  C19_24 
REMARK    9  A    between atoms: C19_24  and  C20_25 
REMARK   10  A    between atoms: C20_25  and  C21_26 
REMARK   11  A    between atoms: C21_26  and  C22_28 
REMARK   12  A    between atoms: C25_31  and  C26_32 
ROOT
HETATM    1  N3  UNL     1      20.200  30.576  13.545  1.00  0.00    -0.310 N 
HETATM    2  C18 UNL     1      20.737  31.809  13.105  1.00  0.00     0.225 C 
HETATM    3  O1  UNL     1      21.193  31.874  11.939  1.00  0.00    -0.273 OA
ENDROOT
BRANCH   1   4
HETATM    4  C6  UNL     1      20.162  29.431  12.664  1.00  0.00     0.147 A 
HETATM    5  C5  UNL     1      21.188  28.525  12.630  1.00  0.00     0.155 A 
HETATM    6  N1  UNL     1      21.090  27.448  11.766  1.00  0.00    -0.285 N 
HETATM    7  N2  UNL     1      22.329  28.664  13.464  1.00  0.00    -0.080 NA
HETATM    8  C31 UNL     1      20.011  27.323  11.000  1.00  0.00     0.330 A 
HETATM    9  N5  UNL     1      18.993  28.223  11.035  1.00  0.00    -0.273 N 
HETATM   10  O4  UNL     1      19.869  26.350  10.197  1.00  0.00    -0.246 OA
HETATM   11  C30 UNL     1      19.037  29.275  11.845  1.00  0.00     0.279 A 
ATOM     12  H5  UNL     1      18.183  28.088  10.430  1.00  0.00     0.173 HD
HETATM   13  O3  UNL     1      18.124  30.146  11.924  1.00  0.00    -0.265 OA
BRANCH   6  14
HETATM   14  C4  UNL     1      22.197  26.529  11.817  1.00  0.00     0.135 C 
BRANCH  14  15
HETATM   15  C3  UNL     1      23.243  26.770  10.803  1.00  0.00     0.020 C 
BRANCH  15  16
HETATM   16  C2  UNL     1      24.622  26.331  11.104  1.00  0.00    -0.003 C 
HETATM   17  C1  UNL     1      25.408  27.281  11.985  1.00  0.00     0.005 C 
ENDBRANCH  15  16
ENDBRANCH  14  15
ENDBRANCH   6  14
ENDBRANCH   1   4
BRANCH   1  18
HETATM   18  C7  UNL     1      19.662  30.377  14.875  1.00  0.00     0.133 C 
BRANCH  18  19
HETATM   19  C8  UNL     1      18.178  30.508  14.963  1.00  0.00     0.027 C 
BRANCH  19  20
HETATM   20  C9  UNL     1      17.735  31.729  15.720  1.00  0.00     0.015 C 
HETATM   21  C10 UNL     1      18.829  32.274  16.581  1.00  0.00     0.008 C 
HETATM   22  C11 UNL     1      18.275  33.544  17.244  1.00  0.00     0.036 C 
HETATM   23  C12 UNL     1      17.937  34.490  16.125  1.00  0.00     0.223 C 
HETATM   24  C13 UNL     1      17.587  35.870  16.630  1.00  0.00     0.036 C 
HETATM   25  N4  UNL     1      16.819  33.983  15.402  1.00  0.00     0.093 N 
HETATM   26  C14 UNL     1      16.407  35.780  17.558  1.00  0.00     0.004 C 
HETATM   27  C15 UNL     1      15.239  35.052  16.970  1.00  0.00     0.030 C 
HETATM   28  C16 UNL     1      15.595  33.879  16.126  1.00  0.00     0.273 C 
HETATM   29  C17 UNL     1      17.120  32.711  14.786  1.00  0.00     0.277 C 
ENDBRANCH  19  20
ENDBRANCH  18  19
ENDBRANCH   1  18
BRANCH   2  30
HETATM   30  C19 UNL     1      20.768  32.991  13.968  1.00  0.00     0.111 C 
BRANCH  30  31
HETATM   31  C20 UNL     1      22.184  33.351  14.343  1.00  0.00     0.093 C 
BRANCH  31  32
HETATM   32  C21 UNL     1      22.307  33.462  15.811  1.00  0.00     0.160 C 
HETATM   33  O2  UNL     1      22.743  32.484  16.461  1.00  0.00    -0.292 OA
BRANCH  32  34
HETATM   34  C22 UNL     1      21.927  34.687  16.503  1.00  0.00     0.011 A 
HETATM   35  C23 UNL     1      21.575  34.638  17.832  1.00  0.00     0.016 A 
HETATM   36  C24 UNL     1      21.213  35.774  18.510  1.00  0.00     0.010 A 
HETATM   37  C25 UNL     1      21.188  37.013  17.882  1.00  0.00    -0.037 A 
HETATM   38  C28 UNL     1      21.542  37.046  16.552  1.00  0.00     0.041 A 
HETATM   39 CL1  UNL     1      21.533  38.578  15.695  1.00  0.00    -0.084 Cl
HETATM   40  C29 UNL     1      21.908  35.906  15.864  1.00  0.00     0.039 A 
BRANCH  37  41
HETATM   41  C26 UNL     1      20.798  38.234  18.612  1.00  0.00     0.036 C 
HETATM   42  C27 UNL     1      19.304  38.418  18.620  1.00  0.00     0.010 C 
ENDBRANCH  37  41
ENDBRANCH  32  34
ENDBRANCH  31  32
ENDBRANCH  30  31
ENDBRANCH   2  30
TORSDOF 12
ENDMDL
MODEL 2
REMARK VINA RESULT: -9.036904708      0.901      1.158
REMARK  12 active torsions:
REMARK  status: ('A' for Active; 'I' for Inactive)
REMARK    1  A    between atoms: C2_2  and  C3_3 
REMARK    2  A    between atoms: C3_3  and  C4_4 
REMARK    3  A    between atoms: C4_4  and  N1_5 
REMARK    4  A    between atoms: C6_8  and  N3_9 
REMARK    5  A    between atoms: N3_9  and  C7_10 
REMARK       I    between atoms: N3_9  and  C18_22 
REMARK    6  A    between atoms: C7_10  and  C8_11 
REMARK    7  A    between atoms: C8_11  and  C9_12 
REMARK    8  A    between atoms: C18_22  and  C19_24 
REMARK    9  A    between atoms: C19_24  and  C20_25 
REMARK   10  A    between atoms: C20_25  and  C21_26 
REMARK   11  A    between atoms: C21_26  and  C22_28 
REMARK   12  A    between atoms: C25_31  and  C26_32 
ROOT
HETATM    1  N3  UNL     1      20.176  30.347  13.371  1.00  0.00    -0.310 N 
HETATM    2  C18 UNL     1      20.785  31.550  12.943  1.00  0.00     0.225 C 
HETATM    3  O1  UNL     1      21.275  31.587  11.789  1.00  0.00    -0.273 OA
ENDROOT
BRANCH   1   4
HETATM    4  C6  UNL     1      20.105  29.201  12.493  1.00  0.00     0.147 A 
HETATM    5  C5  UNL     1      21.103  28.264  12.463  1.00  0.00     0.155 A 
HETATM    6  N1  UNL     1      20.975  27.189  11.602  1.00  0.00    -0.285 N 
HETATM    7  N2  UNL     1      22.246  28.370  13.300  1.00  0.00    -0.080 NA
HETATM    8  C31 UNL     1      19.894  27.095  10.834  1.00  0.00     0.330 A 
HETATM    9  N5  UNL     1      18.904  28.025  10.863  1.00  0.00    -0.273 N 
HETATM   10  O4  UNL     1      19.725  26.125  10.032  1.00  0.00    -0.246 OA
HETATM   11  C30 UNL     1      18.978  29.078  11.671  1.00  0.00     0.279 A 
ATOM     12  H5  UNL     1      18.092  27.915  10.256  1.00  0.00     0.173 HD
HETATM   13  O3  UNL     1      18.092  29.977  11.745  1.00  0.00    -0.265 OA
BRANCH   6  14
HETATM   14  C4  UNL     1      22.052  26.236  11.659  1.00  0.00     0.135 C 
BRANCH  14  15
HETATM   15  C3  UNL     1      23.117  26.453  10.659  1.00  0.00     0.020 C 
BRANCH  15  16
HETATM   16  C2  UNL     1      24.498  26.062  11.013  1.00  0.00    -0.003 C 
HETATM   17  C1  UNL     1      25.262  27.097  11.813  1.00  0.00     0.005 C 
ENDBRANCH  15  16
ENDBRANCH  14  15
ENDBRANCH   6  14
ENDBRANCH   1   4
BRANCH   1  18
HETATM   18  C7  UNL     1      19.592  30.180  14.686  1.00  0.00     0.133 C 
BRANCH  18  19
HETATM   19  C8  UNL     1      18.109  30.341  14.725  1.00  0.00     0.027 C 
BRANCH  19  20
HETATM   20  C9  UNL     1      17.664  31.538  15.519  1.00  0.00     0.015 C 
HETATM   21  C10 UNL     1      18.741  32.027  16.433  1.00  0.00     0.008 C 
HETATM   22  C11 UNL     1      18.189  33.279  17.132  1.00  0.00     0.036 C 
HETATM   23  C12 UNL     1      17.899  34.276  16.044  1.00  0.00     0.223 C 
HETATM   24  C13 UNL     1      17.557  35.640  16.595  1.00  0.00     0.036 C 
HETATM   25  N4  UNL     1      16.794  33.819  15.269  1.00  0.00     0.093 N 
HETATM   26  C14 UNL     1      16.348  35.533  17.484  1.00  0.00     0.004 C 
HETATM   27  C15 UNL     1      15.187  34.850  16.833  1.00  0.00     0.030 C 
HETATM   28  C16 UNL     1      15.548  33.707  15.952  1.00  0.00     0.273 C 
HETATM   29  C17 UNL     1      17.093  32.568  14.609  1.00  0.00     0.277 C 
ENDBRANCH  19  20
ENDBRANCH  18  19
ENDBRANCH   1  18
BRANCH   2  30
HETATM   30  C19 UNL     1      20.851  32.733  13.803  1.00  0.00     0.111 C 
BRANCH  30  31
HETATM   31  C20 UNL     1      22.280  33.078  14.140  1.00  0.00     0.093 C 
BRANCH  31  32
HETATM   32  C21 UNL     1      22.429  33.247  15.600  1.00  0.00     0.160 C 
HETATM   33  O2  UNL     1      22.965  32.331  16.267  1.00  0.00    -0.292 OA
BRANCH  32  34
HETATM   34  C22 UNL     1      21.962  34.457  16.264  1.00  0.00     0.011 A 
HETATM   35  C23 UNL     1      22.159  35.681  15.666  1.00  0.00     0.016 A 
HETATM   36  C24 UNL     1      21.730  36.838  16.267  1.00  0.00     0.010 A 
HETATM   37  C25 UNL     1      21.086  36.817  17.497  1.00  0.00    -0.037 A 
HETATM   38  C28 UNL     1      20.897  35.585  18.082  1.00  0.00     0.041 A 
HETATM   39 CL1  UNL     1      20.088  35.485  19.637  1.00  0.00    -0.084 Cl
HETATM   40  C29 UNL     1      21.325  34.417  17.483  1.00  0.00     0.039 A 
BRANCH  37  41
HETATM   41  C26 UNL     1      20.626  38.061  18.142  1.00  0.00     0.036 C 
HETATM   42  C27 UNL     1      19.541  38.729  17.341  1.00  0.00     0.010 C 
ENDBRANCH  37  41
ENDBRANCH  32  34
ENDBRANCH  31  32
ENDBRANCH  30  31
ENDBRANCH   2  30
TORSDOF 12
ENDMDL
MODEL 3
REMARK VINA RESULT: -8.964929266      1.375      2.427
REMARK  12 active torsions:
REMARK  status: ('A' for Active; 'I' for Inactive)
REMARK    1  A    between atoms: C2_2  and  C3_3 
REMARK    2  A    between atoms: C3_3  and  C4_4 
REMARK    3  A    between atoms: C4_4  and  N1_5 
REMARK    4  A    between atoms: C6_8  and  N3_9 
REMARK    5  A    between atoms: N3_9  and  C7_10 
REMARK       I    between atoms: N3_9  and  C18_22 
REMARK    6  A    between atoms: C7_10  and  C8_11 
REMARK    7  A    between atoms: C8_11  and  C9_12 
REMARK    8  A    between atoms: C18_22  and  C19_24 
REMARK    9  A    between atoms: C19_24  and  C20_25 
REMARK   10  A    between atoms: C20_25  and  C21_26 
REMARK   11  A    between atoms: C21_26  and  C22_28 
REMARK   12  A    between atoms: C25_31  and  C26_32 
ROOT
HETATM    1  N3  UNL     1      20.157  30.426  13.559  1.00  0.00    -0.310 N 
HETATM    2  C18 UNL     1      20.776  31.584  13.032  1.00  0.00     0.225 C 
HETATM    3  O1  UNL     1      21.281  31.517  11.886  1.00  0.00    -0.273 OA
ENDROOT
BRANCH   1   4
HETATM    4  C6  UNL     1      20.092  29.207  12.785  1.00  0.00     0.147 A 
HETATM    5  C5  UNL     1      19.043  28.951  11.944  1.00  0.00     0.155 A 
HETATM    6  N1  UNL     1      19.042  27.766  11.229  1.00  0.00    -0.285 N 
HETATM    7  N2  UNL     1      17.976  29.876  11.786  1.00  0.00    -0.080 NA
HETATM    8  C31 UNL     1      20.053  26.916  11.376  1.00  0.00     0.330 A 
HETATM    9  N5  UNL     1      21.095  27.170  12.211  1.00  0.00    -0.273 N 
HETATM   10  O4  UNL     1      20.104  25.820  10.738  1.00  0.00    -0.246 OA
HETATM   11  C30 UNL     1      21.144  28.292  12.922  1.00  0.00     0.279 A 
ATOM     12  H5  UNL     1      21.850  26.489  12.294  1.00  0.00     0.173 HD
HETATM   13  O3  UNL     1      22.084  28.586  13.715  1.00  0.00    -0.265 OA
BRANCH   6  14
HETATM   14  C4  UNL     1      17.919  27.594  10.345  1.00  0.00     0.135 C 
BRANCH  14  15
HETATM   15  C3  UNL     1      18.255  27.642   8.908  1.00  0.00     0.020 C 
BRANCH  15  16
HETATM   16  C2  UNL     1      17.915  26.472   8.071  1.00  0.00    -0.003 C 
HETATM   17  C1  UNL     1      19.083  25.878   7.313  1.00  0.00     0.005 C 
ENDBRANCH  15  16
ENDBRANCH  14  15
ENDBRANCH   6  14
ENDBRANCH   1   4
BRANCH   1  18
HETATM   18  C7  UNL     1      19.556  30.378  14.876  1.00  0.00     0.133 C 
BRANCH  18  19
HETATM   19  C8  UNL     1      18.090  30.658  14.892  1.00  0.00     0.027 C 
BRANCH  19  20
HETATM   20  C9  UNL     1      17.716  31.807  15.788  1.00  0.00     0.015 C 
HETATM   21  C10 UNL     1      18.916  32.411  16.444  1.00  0.00     0.008 C 
HETATM   22  C11 UNL     1      18.412  33.603  17.270  1.00  0.00     0.036 C 
HETATM   23  C12 UNL     1      17.785  34.558  16.294  1.00  0.00     0.223 C 
HETATM   24  C13 UNL     1      17.440  35.883  16.931  1.00  0.00     0.036 C 
HETATM   25  N4  UNL     1      16.586  33.985  15.779  1.00  0.00     0.093 N 
HETATM   26  C14 UNL     1      16.480  35.657  18.068  1.00  0.00     0.004 C 
HETATM   27  C15 UNL     1      15.277  34.855  17.683  1.00  0.00     0.030 C 
HETATM   28  C16 UNL     1      15.544  33.750  16.723  1.00  0.00     0.273 C 
HETATM   29  C17 UNL     1      16.853  32.768  15.047  1.00  0.00     0.277 C 
ENDBRANCH  19  20
ENDBRANCH  18  19
ENDBRANCH   1  18
BRANCH   2  30
HETATM   30  C19 UNL     1      20.837  32.839  13.785  1.00  0.00     0.111 C 
BRANCH  30  31
HETATM   31  C20 UNL     1      22.259  33.181  14.154  1.00  0.00     0.093 C 
BRANCH  31  32
HETATM   32  C21 UNL     1      22.400  33.239  15.624  1.00  0.00     0.160 C 
HETATM   33  O2  UNL     1      22.790  32.219  16.239  1.00  0.00    -0.292 OA
BRANCH  32  34
HETATM   34  C22 UNL     1      22.091  34.460  16.357  1.00  0.00     0.011 A 
HETATM   35  C23 UNL     1      21.945  34.414  17.725  1.00  0.00     0.016 A 
HETATM   36  C24 UNL     1      21.654  35.547  18.442  1.00  0.00     0.010 A 
HETATM   37  C25 UNL     1      21.497  36.777  17.818  1.00  0.00    -0.037 A 
HETATM   38  C28 UNL     1      21.646  36.806  16.449  1.00  0.00     0.041 A 
HETATM   39 CL1  UNL     1      21.462  38.328  15.594  1.00  0.00    -0.084 Cl
HETATM   40  C29 UNL     1      21.939  35.670  15.721  1.00  0.00     0.039 A 
BRANCH  37  41
HETATM   41  C26 UNL     1      21.184  37.995  18.590  1.00  0.00     0.036 C 
HETATM   42  C27 UNL     1      19.699  38.182  18.744  1.00  0.00     0.010 C 
ENDBRANCH  37  41
ENDBRANCH  32  34
ENDBRANCH  31  32
ENDBRANCH  30  31
ENDBRANCH   2  30
TORSDOF 12
ENDMDL
MODEL 4
REMARK VINA RESULT: -8.895694144      3.052      9.164
REMARK  12 active torsions:
REMARK  status: ('A' for Active; 'I' for Inactive)
REMARK    1  A    between atoms: C2_2  and  C3_3 
REMARK    2  A    between atoms: C3_3  and  C4_4 
REMARK    3  A    between atoms: C4_4  and  N1_5 
REMARK    4  A    between atoms: C6_8  and  N3_9 
REMARK    5  A    between atoms: N3_9  and  C7_10 
REMARK       I    between atoms: N3_9  and  C18_22 
REMARK    6  A    between atoms: C7_10  and  C8_11 
REMARK    7  A    between atoms: C8_11  and  C9_12 
REMARK    8  A    between atoms: C18_22  and  C19_24 
REMARK    9  A    between atoms: C19_24  and  C20_25 
REMARK   10  A    between atoms: C20_25  and  C21_26 
REMARK   11  A    between atoms: C21_26  and  C22_28 
REMARK   12  A    between atoms: C25_31  and  C26_32 
ROOT
HETATM    1  N3  UNL     1      20.729  32.375  15.479  1.00  0.00    -0.310 N 
HETATM    2  C18 UNL     1      21.370  32.544  14.229  1.00  0.00     0.225 C 
HETATM    3  O1  UNL     1      21.919  33.646  13.990  1.00  0.00    -0.273 OA
ENDROOT
BRANCH   1   4
HETATM    4  C6  UNL     1      20.725  33.439  16.457  1.00  0.00     0.147 A 
HETATM    5  C5  UNL     1      19.708  34.355  16.510  1.00  0.00     0.155 A 
HETATM    6  N1  UNL     1      19.763  35.348  17.472  1.00  0.00    -0.285 N 
HETATM    7  N2  UNL     1      18.608  34.293  15.615  1.00  0.00    -0.080 NA
HETATM    8  C31 UNL     1      20.792  35.386  18.312  1.00  0.00     0.330 A 
HETATM    9  N5  UNL     1      21.802  34.478  18.259  1.00  0.00    -0.273 N 
HETATM   10  O4  UNL     1      20.886  36.272  19.216  1.00  0.00    -0.246 OA
HETATM   11  C30 UNL     1      21.798  33.504  17.354  1.00  0.00     0.279 A 
ATOM     12  H5  UNL     1      22.573  34.544  18.923  1.00  0.00     0.173 HD
HETATM   13  O3  UNL     1      22.707  32.630  17.253  1.00  0.00    -0.265 OA
BRANCH   6  14
HETATM   14  C4  UNL     1      18.638  36.247  17.477  1.00  0.00     0.135 C 
BRANCH  14  15
HETATM   15  C3  UNL     1      17.601  35.926  18.479  1.00  0.00     0.020 C 
BRANCH  15  16
HETATM   16  C2  UNL     1      16.189  35.915  18.043  1.00  0.00    -0.003 C 
HETATM   17  C1  UNL     1      15.601  34.534  17.840  1.00  0.00     0.005 C 
ENDBRANCH  15  16
ENDBRANCH  14  15
ENDBRANCH   6  14
ENDBRANCH   1   4
BRANCH   1  18
HETATM   18  C7  UNL     1      20.047  31.155  15.861  1.00  0.00     0.133 C 
BRANCH  18  19
HETATM   19  C8  UNL     1      18.583  31.154  15.572  1.00  0.00     0.027 C 
BRANCH  19  20
HETATM   20  C9  UNL     1      18.202  30.232  14.447  1.00  0.00     0.015 C 
HETATM   21  C10 UNL     1      17.845  30.989  13.208  1.00  0.00     0.008 C 
HETATM   22  C11 UNL     1      17.542  29.943  12.126  1.00  0.00     0.036 C 
HETATM   23  C12 UNL     1      18.807  29.151  11.939  1.00  0.00     0.223 C 
HETATM   24  C13 UNL     1      18.731  28.226  10.747  1.00  0.00     0.036 C 
HETATM   25  N4  UNL     1      19.044  28.361  13.101  1.00  0.00     0.093 N 
HETATM   26  C14 UNL     1      17.586  27.268  10.928  1.00  0.00     0.004 C 
HETATM   27  C15 UNL     1      17.614  26.544  12.237  1.00  0.00     0.030 C 
HETATM   28  C16 UNL     1      18.071  27.362  13.393  1.00  0.00     0.273 C 
HETATM   29  C17 UNL     1      19.247  29.188  14.269  1.00  0.00     0.277 C 
ENDBRANCH  19  20
ENDBRANCH  18  19
ENDBRANCH   1  18
BRANCH   2  30
HETATM   30  C19 UNL     1      21.408  31.476  13.229  1.00  0.00     0.111 C 
BRANCH  30  31
HETATM   31  C20 UNL     1      22.807  30.936  13.065  1.00  0.00     0.093 C 
BRANCH  31  32
HETATM   32  C21 UNL     1      22.872  29.543  13.554  1.00  0.00     0.160 C 
HETATM   33  O2  UNL     1      22.700  29.318  14.775  1.00  0.00    -0.292 OA
BRANCH  32  34
HETATM   34  C22 UNL     1      23.131  28.440  12.637  1.00  0.00     0.011 A 
HETATM   35  C23 UNL     1      24.407  28.233  12.165  1.00  0.00     0.016 A 
HETATM   36  C24 UNL     1      24.681  27.204  11.300  1.00  0.00     0.010 A 
HETATM   37  C25 UNL     1      23.686  26.336  10.871  1.00  0.00    -0.037 A 
HETATM   38  C28 UNL     1      22.415  26.556  11.352  1.00  0.00     0.041 A 
HETATM   39 CL1  UNL     1      21.108  25.497  10.852  1.00  0.00    -0.084 Cl
HETATM   40  C29 UNL     1      22.132  27.590  12.223  1.00  0.00     0.039 A 
BRANCH  37  41
HETATM   41  C26 UNL     1      23.983  25.229   9.941  1.00  0.00     0.036 C 
HETATM   42  C27 UNL     1      23.855  25.666   8.507  1.00  0.00     0.010 C 
ENDBRANCH  37  41
ENDBRANCH  32  34
ENDBRANCH  31  32
ENDBRANCH  30  31
ENDBRANCH   2  30
TORSDOF 12
ENDMDL
MODEL 5
REMARK VINA RESULT: -8.815547678      1.926      3.843
REMARK  12 active torsions:
REMARK  status: ('A' for Active; 'I' for Inactive)
REMARK    1  A    between atoms: C2_2  and  C3_3 
REMARK    2  A    between atoms: C3_3  and  C4_4 
REMARK    3  A    between atoms: C4_4  and  N1_5 
REMARK    4  A    between atoms: C6_8  and  N3_9 
REMARK    5  A    between atoms: N3_9  and  C7_10 
REMARK       I    between atoms: N3_9  and  C18_22 
REMARK    6  A    between atoms: C7_10  and  C8_11 
REMARK    7  A    between atoms: C8_11  and  C9_12 
REMARK    8  A    between atoms: C18_22  and  C19_24 
REMARK    9  A    between atoms: C19_24  and  C20_25 
REMARK   10  A    between atoms: C20_25  and  C21_26 
REMARK   11  A    between atoms: C21_26  and  C22_28 
REMARK   12  A    between atoms: C25_31  and  C26_32 
ROOT
HETATM    1  N3  UNL     1      20.002  29.773  13.378  1.00  0.00    -0.310 N 
HETATM    2  C18 UNL     1      19.131  30.766  12.868  1.00  0.00     0.225 C 
HETATM    3  O1  UNL     1      18.565  30.550  11.771  1.00  0.00    -0.273 OA
ENDROOT
BRANCH   1   4
HETATM    4  C6  UNL     1      20.214  28.537  12.659  1.00  0.00     0.147 A 
HETATM    5  C5  UNL     1      21.330  28.343  11.890  1.00  0.00     0.155 A 
HETATM    6  N1  UNL     1      21.474  27.136  11.228  1.00  0.00    -0.285 N 
HETATM    7  N2  UNL     1      22.333  29.341  11.773  1.00  0.00    -0.080 NA
HETATM    8  C31 UNL     1      20.535  26.205  11.357  1.00  0.00     0.330 A 
HETATM    9  N5  UNL     1      19.427  26.399  12.120  1.00  0.00    -0.273 N 
HETATM   10  O4  UNL     1      20.624  25.080  10.778  1.00  0.00    -0.246 OA
HETATM   11  C30 UNL     1      19.238  27.540  12.776  1.00  0.00     0.279 A 
ATOM     12  H5  UNL     1      18.730  25.657  12.192  1.00  0.00     0.173 HD
HETATM   13  O3  UNL     1      18.230  27.780  13.500  1.00  0.00    -0.265 OA
BRANCH   6  14
HETATM   14  C4  UNL     1      22.691  27.005  10.470  1.00  0.00     0.135 C 
BRANCH  14  15
HETATM   15  C3  UNL     1      23.720  26.155  11.103  1.00  0.00     0.020 C 
BRANCH  15  16
HETATM   16  C2  UNL     1      25.114  26.645  11.124  1.00  0.00    -0.003 C 
HETATM   17  C1  UNL     1      25.403  27.681  12.191  1.00  0.00     0.005 C 
ENDBRANCH  15  16
ENDBRANCH  14  15
ENDBRANCH   6  14
ENDBRANCH   1   4
BRANCH   1  18
HETATM   18  C7  UNL     1      20.724  29.918  14.625  1.00  0.00     0.133 C 
BRANCH  18  19
HETATM   19  C8  UNL     1      22.116  30.433  14.472  1.00  0.00     0.027 C 
BRANCH  19  20
HETATM   20  C9  UNL     1      22.314  31.796  15.076  1.00  0.00     0.015 C 
HETATM   21  C10 UNL     1      22.561  32.834  14.030  1.00  0.00     0.008 C 
HETATM   22  C11 UNL     1      22.679  34.178  14.764  1.00  0.00     0.036 C 
HETATM   23  C12 UNL     1      21.362  34.399  15.454  1.00  0.00     0.223 C 
HETATM   24  C13 UNL     1      21.248  35.788  16.038  1.00  0.00     0.036 C 
HETATM   25  N4  UNL     1      21.222  33.457  16.514  1.00  0.00     0.093 N 
HETATM   26  C14 UNL     1      22.356  36.005  17.033  1.00  0.00     0.004 C 
HETATM   27  C15 UNL     1      22.444  34.932  18.072  1.00  0.00     0.030 C 
HETATM   28  C16 UNL     1      22.169  33.557  17.575  1.00  0.00     0.273 C 
HETATM   29  C17 UNL     1      21.202  32.100  16.016  1.00  0.00     0.277 C 
ENDBRANCH  19  20
ENDBRANCH  18  19
ENDBRANCH   1  18
BRANCH   2  30
HETATM   30  C19 UNL     1      18.881  32.017  13.586  1.00  0.00     0.111 C 
BRANCH  30  31
HETATM   31  C20 UNL     1      17.472  32.062  14.121  1.00  0.00     0.093 C 
BRANCH  31  32
HETATM   32  C21 UNL     1      17.493  32.246  15.587  1.00  0.00     0.160 C 
HETATM   33  O2  UNL     1      17.711  31.255  16.322  1.00  0.00    -0.292 OA
BRANCH  32  34
HETATM   34  C22 UNL     1      17.266  33.558  16.180  1.00  0.00     0.011 A 
HETATM   35  C23 UNL     1      16.188  34.311  15.773  1.00  0.00     0.016 A 
HETATM   36  C24 UNL     1      15.948  35.550  16.312  1.00  0.00     0.010 A 
HETATM   37  C25 UNL     1      16.781  36.089  17.283  1.00  0.00    -0.037 A 
HETATM   38  C28 UNL     1      17.855  35.324  17.679  1.00  0.00     0.041 A 
HETATM   39 CL1  UNL     1      18.949  35.943  18.904  1.00  0.00    -0.084 Cl
HETATM   40  C29 UNL     1      18.102  34.076  17.141  1.00  0.00     0.039 A 
BRANCH  37  41
HETATM   41  C26 UNL     1      16.522  37.421  17.862  1.00  0.00     0.036 C 
HETATM   42  C27 UNL     1      17.130  38.513  17.023  1.00  0.00     0.010 C 
ENDBRANCH  37  41
ENDBRANCH  32  34
ENDBRANCH  31  32
ENDBRANCH  30  31
ENDBRANCH   2  30
TORSDOF 12
ENDMDL
