MODEL 1
REMARK VINA RESULT: -6.469691929      0.000      0.000
REMARK  16 active torsions:
REMARK  status: ('A' for Active; 'I' for Inactive)
REMARK    1  A    between atoms: C2_2  and  C3_3 
REMARK    2  A    between atoms: C3_3  and  C4_4 
REMARK    3  A    between atoms: C4_4  and  C5_5 
REMARK    4  A    between atoms: C10_10  and  O1_12 
REMARK    5  A    between atoms: C12_14  and  O2_15 
REMARK    6  A    between atoms: O2_15  and  C13_16 
REMARK    7  A    between atoms: C15_19  and  C16_20 
REMARK       I    between atoms: C16_20  and  N1_22 
REMARK    8  A    between atoms: N1_22  and  C17_24 
REMARK    9  A    between atoms: C17_24  and  C18_25 
REMARK   10  A    between atoms: C18_25  and  C19_26 
REMARK   11  A    between atoms: C19_26  and  C20_27 
REMARK   12  A    between atoms: C20_27  and  C21_28 
REMARK   13  A    between atoms: C21_28  and  C22_29 
REMARK   14  A    between atoms: C22_29  and  N2_30 
REMARK       I    between atoms: N2_30  and  C23_32 
REMARK   15  A    between atoms: C28_39  and  C29_40 
REMARK   16  A    between atoms: C29_40  and  O7_42 
ROOT
HETATM    1  C5  UNL     1      20.074  35.454  17.449  1.00  0.00     0.061 C 
HETATM    2  C6  UNL     1      19.917  35.012  18.915  1.00  0.00     0.046 C 
HETATM    3  C7  UNL     1      21.566  35.657  17.242  1.00  0.00     0.038 C 
HETATM    4  C8  UNL     1      22.283  34.353  17.443  1.00  0.00     0.006 C 
HETATM    5  C9  UNL     1      22.678  33.731  16.103  1.00  0.00     0.040 C 
HETATM    6  C10 UNL     1      22.247  32.297  15.997  1.00  0.00     0.084 C 
HETATM    7  C11 UNL     1      23.313  31.560  15.211  1.00  0.00     0.049 C 
HETATM    8  C12 UNL     1      20.938  32.115  15.308  1.00  0.00     0.204 C 
HETATM    9  C15 UNL     1      19.761  31.940  16.281  1.00  0.00     0.249 C 
HETATM   10  O6  UNL     1      18.677  32.655  15.959  1.00  0.00    -0.338 OA
HETATM   11  C25 UNL     1      18.512  33.938  16.458  1.00  0.00     0.166 C 
HETATM   12  C26 UNL     1      17.566  34.557  15.395  1.00  0.00     0.069 C 
HETATM   13  C27 UNL     1      16.392  33.620  15.504  1.00  0.00     0.013 C 
HETATM   14  C28 UNL     1      16.274  33.377  16.968  1.00  0.00     0.019 C 
HETATM   15  C31 UNL     1      17.566  33.843  17.610  1.00  0.00     0.075 C 
HETATM   16  O8  UNL     1      19.662  34.570  16.565  1.00  0.00    -0.344 OA
ENDROOT
BRANCH   9  17
HETATM   17  C16 UNL     1      19.408  30.468  16.250  1.00  0.00     0.249 C 
HETATM   18  O4  UNL     1      19.572  29.831  17.332  1.00  0.00    -0.271 OA
HETATM   19  N1  UNL     1      18.929  29.784  15.131  1.00  0.00    -0.359 N 
ATOM     20  H1  UNL     1      18.790  30.295  14.259  1.00  0.00     0.162 HD
BRANCH  19  21
HETATM   21  C17 UNL     1      18.627  28.391  15.173  1.00  0.00     0.122 C 
BRANCH  21  22
HETATM   22  C18 UNL     1      17.972  27.854  13.932  1.00  0.00     0.020 C 
BRANCH  22  23
HETATM   23  C19 UNL     1      17.929  29.004  12.938  1.00  0.00     0.002 C 
BRANCH  23  24
HETATM   24  C20 UNL     1      18.199  28.561  11.518  1.00  0.00     0.002 C 
BRANCH  24  25
HETATM   25  C21 UNL     1      18.635  27.132  11.579  1.00  0.00     0.020 C 
BRANCH  25  26
HETATM   26  C22 UNL     1      20.022  26.873  11.108  1.00  0.00     0.122 C 
BRANCH  26  27
HETATM   27  N2  UNL     1      20.953  27.100  12.188  1.00  0.00    -0.361 N 
HETATM   28  C23 UNL     1      21.873  28.175  12.093  1.00  0.00     0.213 C 
HETATM   29  C24 UNL     1      22.827  28.404  13.206  1.00  0.00     0.117 C 
HETATM   30  O5  UNL     1      21.860  28.906  11.075  1.00  0.00    -0.274 OA
ATOM     31  H2  UNL     1      20.950  26.494  13.009  1.00  0.00     0.162 HD
ENDBRANCH  26  27
ENDBRANCH  25  26
ENDBRANCH  24  25
ENDBRANCH  23  24
ENDBRANCH  22  23
ENDBRANCH  21  22
ENDBRANCH  19  21
ENDBRANCH   9  17
BRANCH   8  32
HETATM   32  O2  UNL     1      20.665  33.116  14.340  1.00  0.00    -0.310 OA
BRANCH  32  33
HETATM   33  C13 UNL     1      20.011  32.898  13.147  1.00  0.00     0.255 C 
HETATM   34  C14 UNL     1      20.335  31.799  12.208  1.00  0.00     0.126 C 
HETATM   35  O3  UNL     1      19.081  33.682  12.834  1.00  0.00    -0.266 OA
ENDBRANCH  32  33
ENDBRANCH   8  32
BRANCH   6  36
HETATM   36  O1  UNL     1      22.166  31.709  17.269  1.00  0.00    -0.387 OA
ATOM     37  H1  UNL     1      21.260  31.552  17.509  1.00  0.00     0.210 HD
ENDBRANCH   6  36
BRANCH  14  38
HETATM   38  C29 UNL     1      15.052  34.028  17.575  1.00  0.00     0.118 C 
HETATM   39  C30 UNL     1      14.516  35.181  16.796  1.00  0.00     0.040 C 
BRANCH  38  40
HETATM   40  O7  UNL     1      15.297  34.400  18.876  1.00  0.00    -0.396 OA
ATOM     41  H7  UNL     1      14.530  34.813  19.257  1.00  0.00     0.210 HD
ENDBRANCH  38  40
ENDBRANCH  14  38
BRANCH   1  42
HETATM   42  C4  UNL     1      19.512  36.858  17.435  1.00  0.00     0.041 C 
BRANCH  42  43
HETATM   43  C3  UNL     1      18.701  37.270  18.596  1.00  0.00     0.029 C 
BRANCH  43  44
HETATM   44  C2  UNL     1      17.272  37.424  18.227  1.00  0.00    -0.037 C 
HETATM   45  C1  UNL     1      16.962  37.902  17.038  1.00  0.00     0.007 C 
ENDBRANCH  43  44
ENDBRANCH  42  43
ENDBRANCH   1  42
TORSDOF 16
ENDMDL
MODEL 2
REMARK VINA RESULT: -6.360400254      3.652      7.426
REMARK  16 active torsions:
REMARK  status: ('A' for Active; 'I' for Inactive)
REMARK    1  A    between atoms: C2_2  and  C3_3 
REMARK    2  A    between atoms: C3_3  and  C4_4 
REMARK    3  A    between atoms: C4_4  and  C5_5 
REMARK    4  A    between atoms: C10_10  and  O1_12 
REMARK    5  A    between atoms: C12_14  and  O2_15 
REMARK    6  A    between atoms: O2_15  and  C13_16 
REMARK    7  A    between atoms: C15_19  and  C16_20 
REMARK       I    between atoms: C16_20  and  N1_22 
REMARK    8  A    between atoms: N1_22  and  C17_24 
REMARK    9  A    between atoms: C17_24  and  C18_25 
REMARK   10  A    between atoms: C18_25  and  C19_26 
REMARK   11  A    between atoms: C19_26  and  C20_27 
REMARK   12  A    between atoms: C20_27  and  C21_28 
REMARK   13  A    between atoms: C21_28  and  C22_29 
REMARK   14  A    between atoms: C22_29  and  N2_30 
REMARK       I    between atoms: N2_30  and  C23_32 
REMARK   15  A    between atoms: C28_39  and  C29_40 
REMARK   16  A    between atoms: C29_40  and  O7_42 
ROOT
HETATM    1  C5  UNL     1      21.359  39.957  16.681  1.00  0.00     0.061 C 
HETATM    2  C6  UNL     1      21.270  39.511  15.210  1.00  0.00     0.046 C 
HETATM    3  C7  UNL     1      21.034  41.442  16.677  1.00  0.00     0.038 C 
HETATM    4  C8  UNL     1      19.631  41.648  16.183  1.00  0.00     0.006 C 
HETATM    5  C9  UNL     1      18.678  41.942  17.342  1.00  0.00     0.040 C 
HETATM    6  C10 UNL     1      17.463  41.062  17.312  1.00  0.00     0.084 C 
HETATM    7  C11 UNL     1      16.293  41.887  17.808  1.00  0.00     0.049 C 
HETATM    8  C12 UNL     1      17.582  39.846  18.166  1.00  0.00     0.204 C 
HETATM    9  C15 UNL     1      17.975  38.587  17.376  1.00  0.00     0.249 C 
HETATM   10  O6  UNL     1      18.925  37.851  17.963  1.00  0.00    -0.338 OA
HETATM   11  C25 UNL     1      20.263  38.083  17.683  1.00  0.00     0.166 C 
HETATM   12  C26 UNL     1      20.942  37.517  18.958  1.00  0.00     0.069 C 
HETATM   13  C27 UNL     1      20.465  36.090  18.905  1.00  0.00     0.013 C 
HETATM   14  C28 UNL     1      20.548  35.747  17.458  1.00  0.00     0.019 C 
HETATM   15  C31 UNL     1      20.689  37.048  16.692  1.00  0.00     0.075 C 
HETATM   16  O8  UNL     1      20.504  39.361  17.485  1.00  0.00    -0.344 OA
ENDROOT
BRANCH   9  17
HETATM   17  C16 UNL     1      16.713  37.760  17.254  1.00  0.00     0.249 C 
HETATM   18  O4  UNL     1      15.652  38.290  17.697  1.00  0.00    -0.271 OA
HETATM   19  N1  UNL     1      16.647  36.479  16.701  1.00  0.00    -0.359 N 
ATOM     20  H1  UNL     1      17.499  36.051  16.338  1.00  0.00     0.162 HD
BRANCH  19  21
HETATM   21  C17 UNL     1      15.421  35.753  16.629  1.00  0.00     0.122 C 
BRANCH  21  22
HETATM   22  C18 UNL     1      15.487  34.357  17.179  1.00  0.00     0.020 C 
BRANCH  22  23
HETATM   23  C19 UNL     1      15.540  33.424  15.979  1.00  0.00     0.002 C 
BRANCH  23  24
HETATM   24  C20 UNL     1      16.862  32.701  15.857  1.00  0.00     0.002 C 
BRANCH  24  25
HETATM   25  C21 UNL     1      17.451  33.081  14.537  1.00  0.00     0.020 C 
BRANCH  25  26
HETATM   26  C22 UNL     1      17.869  31.939  13.679  1.00  0.00     0.122 C 
BRANCH  26  27
HETATM   27  N2  UNL     1      19.241  31.592  13.965  1.00  0.00    -0.361 N 
HETATM   28  C23 UNL     1      20.212  31.714  12.940  1.00  0.00     0.213 C 
HETATM   29  C24 UNL     1      21.621  31.357  13.239  1.00  0.00     0.117 C 
HETATM   30  O5  UNL     1      19.862  32.120  11.807  1.00  0.00    -0.274 OA
ATOM     31  H2  UNL     1      19.508  31.262  14.893  1.00  0.00     0.162 HD
ENDBRANCH  26  27
ENDBRANCH  25  26
ENDBRANCH  24  25
ENDBRANCH  23  24
ENDBRANCH  22  23
ENDBRANCH  21  22
ENDBRANCH  19  21
ENDBRANCH   9  17
BRANCH   8  32
HETATM   32  O2  UNL     1      18.420  40.031  19.296  1.00  0.00    -0.310 OA
BRANCH  32  33
HETATM   33  C13 UNL     1      17.984  40.426  20.542  1.00  0.00     0.255 C 
HETATM   34  C14 UNL     1      16.598  40.248  21.035  1.00  0.00     0.126 C 
HETATM   35  O3  UNL     1      18.812  40.976  21.309  1.00  0.00    -0.266 OA
ENDBRANCH  32  33
ENDBRANCH   8  32
BRANCH   6  36
HETATM   36  O1  UNL     1      17.177  40.657  15.998  1.00  0.00    -0.387 OA
ATOM     37  H1  UNL     1      16.244  40.516  15.886  1.00  0.00     0.210 HD
ENDBRANCH   6  36
BRANCH  14  38
HETATM   38  C29 UNL     1      21.654  34.765  17.150  1.00  0.00     0.118 C 
HETATM   39  C30 UNL     1      21.423  33.937  15.930  1.00  0.00     0.040 C 
BRANCH  38  40
HETATM   40  O7  UNL     1      21.905  33.959  18.236  1.00  0.00    -0.396 OA
ATOM     41  H7  UNL     1      22.326  33.151  17.964  1.00  0.00     0.210 HD
ENDBRANCH  38  40
ENDBRANCH  14  38
BRANCH   1  42
HETATM   42  C4  UNL     1      22.840  39.911  16.982  1.00  0.00     0.041 C 
BRANCH  42  43
HETATM   43  C3  UNL     1      23.257  40.227  18.361  1.00  0.00     0.029 C 
BRANCH  43  44
HETATM   44  C2  UNL     1      24.178  39.194  18.895  1.00  0.00    -0.037 C 
HETATM   45  C1  UNL     1      24.240  38.999  20.198  1.00  0.00     0.007 C 
ENDBRANCH  43  44
ENDBRANCH  42  43
ENDBRANCH   1  42
TORSDOF 16
ENDMDL
MODEL 3
REMARK VINA RESULT: -6.351844077      1.659      2.196
REMARK  16 active torsions:
REMARK  status: ('A' for Active; 'I' for Inactive)
REMARK    1  A    between atoms: C2_2  and  C3_3 
REMARK    2  A    between atoms: C3_3  and  C4_4 
REMARK    3  A    between atoms: C4_4  and  C5_5 
REMARK    4  A    between atoms: C10_10  and  O1_12 
REMARK    5  A    between atoms: C12_14  and  O2_15 
REMARK    6  A    between atoms: O2_15  and  C13_16 
REMARK    7  A    between atoms: C15_19  and  C16_20 
REMARK       I    between atoms: C16_20  and  N1_22 
REMARK    8  A    between atoms: N1_22  and  C17_24 
REMARK    9  A    between atoms: C17_24  and  C18_25 
REMARK   10  A    between atoms: C18_25  and  C19_26 
REMARK   11  A    between atoms: C19_26  and  C20_27 
REMARK   12  A    between atoms: C20_27  and  C21_28 
REMARK   13  A    between atoms: C21_28  and  C22_29 
REMARK   14  A    between atoms: C22_29  and  N2_30 
REMARK       I    between atoms: N2_30  and  C23_32 
REMARK   15  A    between atoms: C28_39  and  C29_40 
REMARK   16  A    between atoms: C29_40  and  O7_42 
ROOT
HETATM    1  C5  UNL     1      20.930  34.351  16.391  1.00  0.00     0.061 C 
HETATM    2  C6  UNL     1      20.780  33.933  17.864  1.00  0.00     0.046 C 
HETATM    3  C7  UNL     1      22.422  34.317  16.107  1.00  0.00     0.038 C 
HETATM    4  C8  UNL     1      22.935  32.916  16.276  1.00  0.00     0.006 C 
HETATM    5  C9  UNL     1      23.158  32.245  14.920  1.00  0.00     0.040 C 
HETATM    6  C10 UNL     1      22.501  30.898  14.841  1.00  0.00     0.084 C 
HETATM    7  C11 UNL     1      23.397  30.006  14.004  1.00  0.00     0.049 C 
HETATM    8  C12 UNL     1      21.147  30.927  14.220  1.00  0.00     0.204 C 
HETATM    9  C15 UNL     1      20.008  30.935  15.252  1.00  0.00     0.249 C 
HETATM   10  O6  UNL     1      19.036  31.814  14.983  1.00  0.00    -0.338 OA
HETATM   11  C25 UNL     1      19.101  33.105  15.485  1.00  0.00     0.166 C 
HETATM   12  C26 UNL     1      18.211  33.870  14.470  1.00  0.00     0.069 C 
HETATM   13  C27 UNL     1      16.911  33.129  14.641  1.00  0.00     0.013 C 
HETATM   14  C28 UNL     1      16.831  32.901  16.110  1.00  0.00     0.019 C 
HETATM   15  C31 UNL     1      18.211  33.154  16.684  1.00  0.00     0.075 C 
HETATM   16  O8  UNL     1      20.339  33.547  15.532  1.00  0.00    -0.344 OA
ENDROOT
BRANCH   9  17
HETATM   17  C16 UNL     1      19.427  29.538  15.244  1.00  0.00     0.249 C 
HETATM   18  O4  UNL     1      19.956  28.707  16.040  1.00  0.00    -0.271 OA
HETATM   19  N1  UNL     1      18.372  29.115  14.433  1.00  0.00    -0.359 N 
ATOM     20  H1  UNL     1      17.939  29.783  13.794  1.00  0.00     0.162 HD
BRANCH  19  21
HETATM   21  C17 UNL     1      17.882  27.776  14.471  1.00  0.00     0.122 C 
BRANCH  21  22
HETATM   22  C18 UNL     1      17.625  27.164  13.124  1.00  0.00     0.020 C 
BRANCH  22  23
HETATM   23  C19 UNL     1      18.887  27.384  12.305  1.00  0.00     0.002 C 
BRANCH  23  24
HETATM   24  C20 UNL     1      19.282  26.166  11.501  1.00  0.00     0.002 C 
BRANCH  24  25
HETATM   25  C21 UNL     1      20.619  26.453  10.896  1.00  0.00     0.020 C 
BRANCH  25  26
HETATM   26  C22 UNL     1      21.766  25.755  11.535  1.00  0.00     0.122 C 
BRANCH  26  27
HETATM   27  N2  UNL     1      22.777  26.717  11.905  1.00  0.00    -0.361 N 
HETATM   28  C23 UNL     1      24.145  26.359  11.795  1.00  0.00     0.213 C 
HETATM   29  C24 UNL     1      25.179  27.352  12.176  1.00  0.00     0.117 C 
HETATM   30  O5  UNL     1      24.449  25.216  11.380  1.00  0.00    -0.274 OA
ATOM     31  H2  UNL     1      22.511  27.642  12.242  1.00  0.00     0.162 HD
ENDBRANCH  26  27
ENDBRANCH  25  26
ENDBRANCH  24  25
ENDBRANCH  23  24
ENDBRANCH  22  23
ENDBRANCH  21  22
ENDBRANCH  19  21
ENDBRANCH   9  17
BRANCH   8  32
HETATM   32  O2  UNL     1      20.986  31.964  13.264  1.00  0.00    -0.310 OA
BRANCH  32  33
HETATM   33  C13 UNL     1      20.566  31.776  11.965  1.00  0.00     0.255 C 
HETATM   34  C14 UNL     1      20.988  30.644  11.107  1.00  0.00     0.126 C 
HETATM   35  O3  UNL     1      19.775  32.619  11.475  1.00  0.00    -0.266 OA
ENDBRANCH  32  33
ENDBRANCH   8  32
BRANCH   6  36
HETATM   36  O1  UNL     1      22.394  30.323  16.117  1.00  0.00    -0.387 OA
ATOM     37  H1  UNL     1      21.546  30.515  16.500  1.00  0.00     0.210 HD
ENDBRANCH   6  36
BRANCH  14  38
HETATM   38  C29 UNL     1      15.759  33.733  16.776  1.00  0.00     0.118 C 
HETATM   39  C30 UNL     1      16.278  34.798  17.683  1.00  0.00     0.040 C 
BRANCH  38  40
HETATM   40  O7  UNL     1      14.865  32.929  17.445  1.00  0.00    -0.396 OA
ATOM     41  H7  UNL     1      14.232  33.454  17.920  1.00  0.00     0.210 HD
ENDBRANCH  38  40
ENDBRANCH  14  38
BRANCH   1  42
HETATM   42  C4  UNL     1      20.596  35.826  16.400  1.00  0.00     0.041 C 
BRANCH  42  43
HETATM   43  C3  UNL     1      20.572  36.502  17.711  1.00  0.00     0.029 C 
BRANCH  43  44
HETATM   44  C2  UNL     1      21.521  37.643  17.745  1.00  0.00    -0.037 C 
HETATM   45  C1  UNL     1      22.750  37.445  18.178  1.00  0.00     0.007 C 
ENDBRANCH  43  44
ENDBRANCH  42  43
ENDBRANCH   1  42
TORSDOF 16
ENDMDL
MODEL 4
REMARK VINA RESULT: -6.285638007      3.858      7.564
REMARK  16 active torsions:
REMARK  status: ('A' for Active; 'I' for Inactive)
REMARK    1  A    between atoms: C2_2  and  C3_3 
REMARK    2  A    between atoms: C3_3  and  C4_4 
REMARK    3  A    between atoms: C4_4  and  C5_5 
REMARK    4  A    between atoms: C10_10  and  O1_12 
REMARK    5  A    between atoms: C12_14  and  O2_15 
REMARK    6  A    between atoms: O2_15  and  C13_16 
REMARK    7  A    between atoms: C15_19  and  C16_20 
REMARK       I    between atoms: C16_20  and  N1_22 
REMARK    8  A    between atoms: N1_22  and  C17_24 
REMARK    9  A    between atoms: C17_24  and  C18_25 
REMARK   10  A    between atoms: C18_25  and  C19_26 
REMARK   11  A    between atoms: C19_26  and  C20_27 
REMARK   12  A    between atoms: C20_27  and  C21_28 
REMARK   13  A    between atoms: C21_28  and  C22_29 
REMARK   14  A    between atoms: C22_29  and  N2_30 
REMARK       I    between atoms: N2_30  and  C23_32 
REMARK   15  A    between atoms: C28_39  and  C29_40 
REMARK   16  A    between atoms: C29_40  and  O7_42 
ROOT
HETATM    1  C5  UNL     1      21.350  40.032  16.636  1.00  0.00     0.061 C 
HETATM    2  C6  UNL     1      21.251  39.559  15.175  1.00  0.00     0.046 C 
HETATM    3  C7  UNL     1      21.018  41.515  16.609  1.00  0.00     0.038 C 
HETATM    4  C8  UNL     1      19.610  41.706  16.123  1.00  0.00     0.006 C 
HETATM    5  C9  UNL     1      18.665  42.015  17.285  1.00  0.00     0.040 C 
HETATM    6  C10 UNL     1      17.454  41.129  17.280  1.00  0.00     0.084 C 
HETATM    7  C11 UNL     1      16.284  41.957  17.771  1.00  0.00     0.049 C 
HETATM    8  C12 UNL     1      17.586  39.929  18.155  1.00  0.00     0.204 C 
HETATM    9  C15 UNL     1      17.978  38.658  17.383  1.00  0.00     0.249 C 
HETATM   10  O6  UNL     1      18.937  37.937  17.975  1.00  0.00    -0.338 OA
HETATM   11  C25 UNL     1      20.271  38.170  17.680  1.00  0.00     0.166 C 
HETATM   12  C26 UNL     1      20.964  37.630  18.959  1.00  0.00     0.069 C 
HETATM   13  C27 UNL     1      20.493  36.200  18.934  1.00  0.00     0.013 C 
HETATM   14  C28 UNL     1      20.566  35.833  17.494  1.00  0.00     0.019 C 
HETATM   15  C31 UNL     1      20.694  37.121  16.704  1.00  0.00     0.075 C 
HETATM   16  O8  UNL     1      20.504  39.446  17.458  1.00  0.00    -0.344 OA
ENDROOT
BRANCH   9  17
HETATM   17  C16 UNL     1      16.720  37.823  17.286  1.00  0.00     0.249 C 
HETATM   18  O4  UNL     1      15.665  38.343  17.757  1.00  0.00    -0.271 OA
HETATM   19  N1  UNL     1      16.649  36.546  16.727  1.00  0.00    -0.359 N 
ATOM     20  H1  UNL     1      17.495  36.126  16.341  1.00  0.00     0.162 HD
BRANCH  19  21
HETATM   21  C17 UNL     1      15.427  35.811  16.679  1.00  0.00     0.122 C 
BRANCH  21  22
HETATM   22  C18 UNL     1      15.484  34.458  17.329  1.00  0.00     0.020 C 
BRANCH  22  23
HETATM   23  C19 UNL     1      15.618  33.446  16.202  1.00  0.00     0.002 C 
BRANCH  23  24
HETATM   24  C20 UNL     1      17.035  32.950  16.028  1.00  0.00     0.002 C 
BRANCH  24  25
HETATM   25  C21 UNL     1      17.430  33.236  14.614  1.00  0.00     0.020 C 
BRANCH  25  26
HETATM   26  C22 UNL     1      17.845  32.048  13.820  1.00  0.00     0.122 C 
BRANCH  26  27
HETATM   27  N2  UNL     1      19.232  31.746  14.083  1.00  0.00    -0.361 N 
HETATM   28  C23 UNL     1      20.168  31.818  13.021  1.00  0.00     0.213 C 
HETATM   29  C24 UNL     1      21.592  31.507  13.297  1.00  0.00     0.117 C 
HETATM   30  O5  UNL     1      19.774  32.141  11.876  1.00  0.00    -0.274 OA
ATOM     31  H2  UNL     1      19.534  31.484  15.022  1.00  0.00     0.162 HD
ENDBRANCH  26  27
ENDBRANCH  25  26
ENDBRANCH  24  25
ENDBRANCH  23  24
ENDBRANCH  22  23
ENDBRANCH  21  22
ENDBRANCH  19  21
ENDBRANCH   9  17
BRANCH   8  32
HETATM   32  O2  UNL     1      18.433  40.137  19.274  1.00  0.00    -0.310 OA
BRANCH  32  33
HETATM   33  C13 UNL     1      17.997  40.481  20.535  1.00  0.00     0.255 C 
HETATM   34  C14 UNL     1      16.611  40.281  21.022  1.00  0.00     0.126 C 
HETATM   35  O3  UNL     1      18.825  41.000  21.324  1.00  0.00    -0.266 OA
ENDBRANCH  32  33
ENDBRANCH   8  32
BRANCH   6  36
HETATM   36  O1  UNL     1      17.160  40.699  15.976  1.00  0.00    -0.387 OA
ATOM     37  H1  UNL     1      16.977  39.767  15.964  1.00  0.00     0.210 HD
ENDBRANCH   6  36
BRANCH  14  38
HETATM   38  C29 UNL     1      21.675  34.850  17.193  1.00  0.00     0.118 C 
HETATM   39  C30 UNL     1      21.464  34.040  15.959  1.00  0.00     0.040 C 
BRANCH  38  40
HETATM   40  O7  UNL     1      21.901  34.029  18.273  1.00  0.00    -0.396 OA
ATOM     41  H7  UNL     1      22.195  34.533  19.022  1.00  0.00     0.210 HD
ENDBRANCH  38  40
ENDBRANCH  14  38
BRANCH   1  42
HETATM   42  C4  UNL     1      22.834  39.998  16.926  1.00  0.00     0.041 C 
BRANCH  42  43
HETATM   43  C3  UNL     1      23.532  41.294  17.013  1.00  0.00     0.029 C 
BRANCH  43  44
HETATM   44  C2  UNL     1      24.697  41.341  16.096  1.00  0.00    -0.037 C 
HETATM   45  C1  UNL     1      24.490  41.402  14.795  1.00  0.00     0.007 C 
ENDBRANCH  43  44
ENDBRANCH  42  43
ENDBRANCH   1  42
TORSDOF 16
ENDMDL
MODEL 5
REMARK VINA RESULT: -6.272660764      3.514      6.377
REMARK  16 active torsions:
REMARK  status: ('A' for Active; 'I' for Inactive)
REMARK    1  A    between atoms: C2_2  and  C3_3 
REMARK    2  A    between atoms: C3_3  and  C4_4 
REMARK    3  A    between atoms: C4_4  and  C5_5 
REMARK    4  A    between atoms: C10_10  and  O1_12 
REMARK    5  A    between atoms: C12_14  and  O2_15 
REMARK    6  A    between atoms: O2_15  and  C13_16 
REMARK    7  A    between atoms: C15_19  and  C16_20 
REMARK       I    between atoms: C16_20  and  N1_22 
REMARK    8  A    between atoms: N1_22  and  C17_24 
REMARK    9  A    between atoms: C17_24  and  C18_25 
REMARK   10  A    between atoms: C18_25  and  C19_26 
REMARK   11  A    between atoms: C19_26  and  C20_27 
REMARK   12  A    between atoms: C20_27  and  C21_28 
REMARK   13  A    between atoms: C21_28  and  C22_29 
REMARK   14  A    between atoms: C22_29  and  N2_30 
REMARK       I    between atoms: N2_30  and  C23_32 
REMARK   15  A    between atoms: C28_39  and  C29_40 
REMARK   16  A    between atoms: C29_40  and  O7_42 
ROOT
HETATM    1  C5  UNL     1      17.025  40.167  19.414  1.00  0.00     0.061 C 
HETATM    2  C6  UNL     1      16.984  39.484  20.793  1.00  0.00     0.046 C 
HETATM    3  C7  UNL     1      17.730  41.495  19.637  1.00  0.00     0.038 C 
HETATM    4  C8  UNL     1      19.134  41.246  20.106  1.00  0.00     0.006 C 
HETATM    5  C9  UNL     1      20.138  41.463  18.973  1.00  0.00     0.040 C 
HETATM    6  C10 UNL     1      21.078  40.302  18.821  1.00  0.00     0.084 C 
HETATM    7  C11 UNL     1      22.428  40.862  18.418  1.00  0.00     0.049 C 
HETATM    8  C12 UNL     1      20.648  39.313  17.793  1.00  0.00     0.204 C 
HETATM    9  C15 UNL     1      19.933  38.090  18.391  1.00  0.00     0.249 C 
HETATM   10  O6  UNL     1      18.826  37.731  17.733  1.00  0.00    -0.338 OA
HETATM   11  C25 UNL     1      17.594  38.256  18.094  1.00  0.00     0.166 C 
HETATM   12  C26 UNL     1      16.798  38.098  16.772  1.00  0.00     0.069 C 
HETATM   13  C27 UNL     1      16.882  36.607  16.585  1.00  0.00     0.013 C 
HETATM   14  C28 UNL     1      16.703  36.072  17.962  1.00  0.00     0.019 C 
HETATM   15  C31 UNL     1      16.905  37.225  18.926  1.00  0.00     0.075 C 
HETATM   16  O8  UNL     1      17.698  39.504  18.496  1.00  0.00    -0.344 OA
ENDROOT
BRANCH   9  17
HETATM   17  C16 UNL     1      20.931  36.954  18.337  1.00  0.00     0.249 C 
HETATM   18  O4  UNL     1      22.030  37.146  18.936  1.00  0.00    -0.271 OA
HETATM   19  N1  UNL     1      20.724  35.738  17.682  1.00  0.00    -0.359 N 
ATOM     20  H1  UNL     1      19.837  35.578  17.203  1.00  0.00     0.162 HD
BRANCH  19  21
HETATM   21  C17 UNL     1      21.717  34.714  17.663  1.00  0.00     0.122 C 
BRANCH  21  22
HETATM   22  C18 UNL     1      21.597  33.747  16.521  1.00  0.00     0.020 C 
BRANCH  22  23
HETATM   23  C19 UNL     1      22.815  32.839  16.597  1.00  0.00     0.002 C 
BRANCH  23  24
HETATM   24  C20 UNL     1      23.445  32.591  15.246  1.00  0.00     0.002 C 
BRANCH  24  25
HETATM   25  C21 UNL     1      22.391  32.843  14.216  1.00  0.00     0.020 C 
BRANCH  25  26
HETATM   26  C22 UNL     1      21.845  31.625  13.559  1.00  0.00     0.122 C 
BRANCH  26  27
HETATM   27  N2  UNL     1      20.470  31.433  13.954  1.00  0.00    -0.361 N 
HETATM   28  C23 UNL     1      19.436  31.759  13.040  1.00  0.00     0.213 C 
HETATM   29  C24 UNL     1      18.025  31.559  13.452  1.00  0.00     0.117 C 
HETATM   30  O5  UNL     1      19.736  32.209  11.909  1.00  0.00    -0.274 OA
ATOM     31  H2  UNL     1      20.245  31.067  14.880  1.00  0.00     0.162 HD
ENDBRANCH  26  27
ENDBRANCH  25  26
ENDBRANCH  24  25
ENDBRANCH  23  24
ENDBRANCH  22  23
ENDBRANCH  21  22
ENDBRANCH  19  21
ENDBRANCH   9  17
BRANCH   8  32
HETATM   32  O2  UNL     1      19.895  39.888  16.737  1.00  0.00    -0.310 OA
BRANCH  32  33
HETATM   33  C13 UNL     1      20.434  40.579  15.673  1.00  0.00     0.255 C 
HETATM   34  C14 UNL     1      21.261  39.961  14.611  1.00  0.00     0.126 C 
HETATM   35  O3  UNL     1      20.212  41.813  15.600  1.00  0.00    -0.266 OA
ENDBRANCH  32  33
ENDBRANCH   8  32
BRANCH   6  36
HETATM   36  O1  UNL     1      21.239  39.632  20.045  1.00  0.00    -0.387 OA
ATOM     37  H1  UNL     1      22.142  39.362  20.162  1.00  0.00     0.210 HD
ENDBRANCH   6  36
BRANCH  14  38
HETATM   38  C29 UNL     1      15.375  35.376  18.154  1.00  0.00     0.118 C 
HETATM   39  C30 UNL     1      15.363  33.942  17.742  1.00  0.00     0.040 C 
BRANCH  38  40
HETATM   40  O7  UNL     1      14.369  36.065  17.518  1.00  0.00    -0.396 OA
ATOM     41  H7  UNL     1      14.651  36.351  16.657  1.00  0.00     0.210 HD
ENDBRANCH  38  40
ENDBRANCH  14  38
BRANCH   1  42
HETATM   42  C4  UNL     1      15.586  40.558  19.164  1.00  0.00     0.041 C 
BRANCH  42  43
HETATM   43  C3  UNL     1      15.348  41.775  18.366  1.00  0.00     0.029 C 
BRANCH  43  44
HETATM   44  C2  UNL     1      15.605  41.533  16.925  1.00  0.00    -0.037 C 
HETATM   45  C1  UNL     1      16.616  42.146  16.340  1.00  0.00     0.007 C 
ENDBRANCH  43  44
ENDBRANCH  42  43
ENDBRANCH   1  42
TORSDOF 16
ENDMDL
