MODEL 1
REMARK VINA RESULT: -7.956992259      0.000      0.000
REMARK  17 active torsions:
REMARK  status: ('A' for Active; 'I' for Inactive)
REMARK    1  A    between atoms: C2_2  and  C3_3 
REMARK    2  A    between atoms: C6_6  and  O1_7 
REMARK    3  A    between atoms: C7_9  and  C8_10 
REMARK    4  A    between atoms: C8_10  and  C9_12 
REMARK    5  A    between atoms: C9_12  and  N1_13 
REMARK    6  A    between atoms: C9_12  and  C12_20 
REMARK    7  A    between atoms: N1_13  and  C10_16 
REMARK    8  A    between atoms: C10_16  and  C11_17 
REMARK    9  A    between atoms: C18_27  and  O6_28 
REMARK   10  A    between atoms: C18_27  and  C19_30 
REMARK   11  A    between atoms: C19_30  and  O8_32 
REMARK   12  A    between atoms: O8_32  and  C20_33 
REMARK   13  A    between atoms: C24_37  and  C25_38 
REMARK   14  A    between atoms: C25_38  and  C27_40 
REMARK   15  A    between atoms: C27_40  and  C28_41 
REMARK   16  A    between atoms: C28_41  and  C29_42 
REMARK   17  A    between atoms: C29_42  and  C30_43 
ROOT
HETATM    1  C3  UNL     1      20.935  33.318  15.491  1.00  0.00     0.019 C 
HETATM    2  C4  UNL     1      20.737  34.770  15.196  1.00  0.00     0.023 C 
HETATM    3  C5  UNL     1      22.003  32.792  14.564  1.00  0.00     0.050 C 
HETATM    4  C6  UNL     1      22.078  31.279  14.619  1.00  0.00     0.140 C 
HETATM    5  C7  UNL     1      20.820  30.758  13.994  1.00  0.00     0.104 C 
HETATM    6  C15 UNL     1      20.554  31.337  12.609  1.00  0.00     0.192 C 
HETATM    7  O5  UNL     1      19.609  32.188  13.134  1.00  0.00    -0.374 OA
HETATM    8  C16 UNL     1      19.597  31.487  14.364  1.00  0.00     0.118 C 
HETATM    9  C17 UNL     1      18.295  30.733  14.450  1.00  0.00     0.051 C 
HETATM   10  C18 UNL     1      19.687  32.492  15.471  1.00  0.00     0.188 C 
ENDROOT
BRANCH  10  11
HETATM   11  O6  UNL     1      19.525  31.797  16.682  1.00  0.00    -0.376 OA
ATOM     12  H6  UNL     1      18.862  32.209  17.224  1.00  0.00     0.211 HD
ENDBRANCH  10  11
BRANCH  10  13
HETATM   13  C19 UNL     1      18.493  33.379  15.330  1.00  0.00     0.298 C 
HETATM   14  O7  UNL     1      18.065  33.760  14.197  1.00  0.00    -0.262 OA
BRANCH  13  15
HETATM   15  O8  UNL     1      17.788  33.830  16.449  1.00  0.00    -0.312 OA
BRANCH  15  16
HETATM   16  C20 UNL     1      17.039  34.996  16.463  1.00  0.00     0.143 C 
HETATM   17  C21 UNL     1      15.570  34.721  16.732  1.00  0.00     0.060 C 
HETATM   18  C22 UNL     1      15.465  34.906  18.185  1.00  0.00    -0.028 C 
HETATM   19  C23 UNL     1      16.484  35.588  18.661  1.00  0.00    -0.023 C 
HETATM   20  C24 UNL     1      17.417  35.944  17.538  1.00  0.00     0.041 C 
BRANCH  20  21
HETATM   21  C25 UNL     1      18.834  35.941  18.006  1.00  0.00    -0.009 C 
HETATM   22  C26 UNL     1      19.098  35.436  19.366  1.00  0.00     0.011 C 
BRANCH  21  23
HETATM   23  C27 UNL     1      19.392  37.348  17.758  1.00  0.00     0.005 C 
BRANCH  23  24
HETATM   24  C28 UNL     1      19.185  38.254  18.904  1.00  0.00     0.001 C 
BRANCH  24  25
HETATM   25  C29 UNL     1      18.660  39.585  18.532  1.00  0.00     0.008 C 
BRANCH  25  26
HETATM   26  C30 UNL     1      17.209  39.830  18.474  1.00  0.00    -0.051 C 
HETATM   27  C31 UNL     1      17.055  41.371  18.692  1.00  0.00     0.014 C 
HETATM   28  C32 UNL     1      16.441  39.191  19.585  1.00  0.00     0.014 C 
HETATM   29  C33 UNL     1      16.513  39.547  17.177  1.00  0.00     0.014 C 
ENDBRANCH  25  26
ENDBRANCH  24  25
ENDBRANCH  23  24
ENDBRANCH  21  23
ENDBRANCH  20  21
ENDBRANCH  15  16
ENDBRANCH  13  15
ENDBRANCH  10  13
BRANCH   1  30
HETATM   30  C2  UNL     1      21.524  33.221  16.866  1.00  0.00    -0.024 C 
HETATM   31  C1  UNL     1      22.059  34.284  17.429  1.00  0.00     0.008 C 
ENDBRANCH   1  30
BRANCH   5  32
HETATM   32  C8  UNL     1      20.791  29.296  13.902  1.00  0.00     0.174 C 
HETATM   33  O2  UNL     1      20.790  28.636  14.921  1.00  0.00    -0.295 OA
BRANCH  32  34
HETATM   34  C9  UNL     1      20.758  28.593  12.606  1.00  0.00     0.259 C 
BRANCH  34  35
HETATM   35  N1  UNL     1      19.873  27.430  12.650  1.00  0.00    -0.054 N 
ATOM     36  H12 UNL     1      20.151  26.744  11.947  1.00  0.00     0.278 HD
ATOM     37  H11 UNL     1      20.039  26.888  13.498  1.00  0.00     0.278 HD
BRANCH  35  38
HETATM   38  C10 UNL     1      18.489  27.740  12.521  1.00  0.00     0.345 C 
BRANCH  38  39
HETATM   39  C11 UNL     1      18.297  28.381  11.187  1.00  0.00     0.199 C 
HETATM   40  O3  UNL     1      17.730  29.510  11.081  1.00  0.00    -0.647 OA
HETATM   41  O4  UNL     1      18.721  27.791  10.002  1.00  0.00    -0.647 OA
ENDBRANCH  38  39
ENDBRANCH  35  38
ENDBRANCH  34  35
BRANCH  34  42
HETATM   42  C12 UNL     1      22.117  27.998  12.214  1.00  0.00     0.015 C 
HETATM   43  C13 UNL     1      22.515  28.693  10.904  1.00  0.00     0.012 C 
HETATM   44  C14 UNL     1      21.987  26.522  11.930  1.00  0.00     0.012 C 
ENDBRANCH  34  42
ENDBRANCH  32  34
ENDBRANCH   5  32
BRANCH   4  45
HETATM   45  O1  UNL     1      22.212  30.812  15.903  1.00  0.00    -0.394 OA
ATOM     46  H1  UNL     1      22.797  30.065  15.955  1.00  0.00     0.210 HD
ENDBRANCH   4  45
TORSDOF 17
ENDMDL
MODEL 2
REMARK VINA RESULT: -7.899962947      1.239      1.942
REMARK  17 active torsions:
REMARK  status: ('A' for Active; 'I' for Inactive)
REMARK    1  A    between atoms: C2_2  and  C3_3 
REMARK    2  A    between atoms: C6_6  and  O1_7 
REMARK    3  A    between atoms: C7_9  and  C8_10 
REMARK    4  A    between atoms: C8_10  and  C9_12 
REMARK    5  A    between atoms: C9_12  and  N1_13 
REMARK    6  A    between atoms: C9_12  and  C12_20 
REMARK    7  A    between atoms: N1_13  and  C10_16 
REMARK    8  A    between atoms: C10_16  and  C11_17 
REMARK    9  A    between atoms: C18_27  and  O6_28 
REMARK   10  A    between atoms: C18_27  and  C19_30 
REMARK   11  A    between atoms: C19_30  and  O8_32 
REMARK   12  A    between atoms: O8_32  and  C20_33 
REMARK   13  A    between atoms: C24_37  and  C25_38 
REMARK   14  A    between atoms: C25_38  and  C27_40 
REMARK   15  A    between atoms: C27_40  and  C28_41 
REMARK   16  A    between atoms: C28_41  and  C29_42 
REMARK   17  A    between atoms: C29_42  and  C30_43 
ROOT
HETATM    1  C3  UNL     1      20.898  33.341  15.510  1.00  0.00     0.019 C 
HETATM    2  C4  UNL     1      20.679  34.790  15.215  1.00  0.00     0.023 C 
HETATM    3  C5  UNL     1      22.002  32.841  14.610  1.00  0.00     0.050 C 
HETATM    4  C6  UNL     1      22.107  31.329  14.661  1.00  0.00     0.140 C 
HETATM    5  C7  UNL     1      20.876  30.786  14.000  1.00  0.00     0.104 C 
HETATM    6  C15 UNL     1      20.636  31.365  12.610  1.00  0.00     0.192 C 
HETATM    7  O5  UNL     1      19.661  32.195  13.113  1.00  0.00    -0.374 OA
HETATM    8  C16 UNL     1      19.629  31.488  14.340  1.00  0.00     0.118 C 
HETATM    9  C17 UNL     1      18.341  30.708  14.387  1.00  0.00     0.051 C 
HETATM   10  C18 UNL     1      19.669  32.490  15.452  1.00  0.00     0.188 C 
ENDROOT
BRANCH  10  11
HETATM   11  O6  UNL     1      19.488  31.786  16.656  1.00  0.00    -0.376 OA
ATOM     12  H6  UNL     1      18.608  31.910  16.993  1.00  0.00     0.211 HD
ENDBRANCH  10  11
BRANCH  10  13
HETATM   13  C19 UNL     1      18.462  33.353  15.283  1.00  0.00     0.298 C 
HETATM   14  O7  UNL     1      18.100  33.792  14.147  1.00  0.00    -0.262 OA
BRANCH  13  15
HETATM   15  O8  UNL     1      17.669  33.716  16.375  1.00  0.00    -0.312 OA
BRANCH  15  16
HETATM   16  C20 UNL     1      16.822  34.813  16.376  1.00  0.00     0.143 C 
HETATM   17  C21 UNL     1      15.381  34.415  16.638  1.00  0.00     0.060 C 
HETATM   18  C22 UNL     1      15.250  34.600  18.089  1.00  0.00    -0.028 C 
HETATM   19  C23 UNL     1      16.204  35.370  18.566  1.00  0.00    -0.023 C 
HETATM   20  C24 UNL     1      17.110  35.798  17.446  1.00  0.00     0.041 C 
BRANCH  20  21
HETATM   21  C25 UNL     1      18.519  35.920  17.923  1.00  0.00    -0.009 C 
HETATM   22  C26 UNL     1      18.850  35.309  19.223  1.00  0.00     0.011 C 
BRANCH  21  23
HETATM   23  C27 UNL     1      18.897  37.403  17.832  1.00  0.00     0.005 C 
BRANCH  23  24
HETATM   24  C28 UNL     1      20.145  37.720  18.552  1.00  0.00     0.001 C 
BRANCH  24  25
HETATM   25  C29 UNL     1      21.271  38.096  17.670  1.00  0.00     0.008 C 
BRANCH  25  26
HETATM   26  C30 UNL     1      22.249  39.112  18.094  1.00  0.00    -0.051 C 
HETATM   27  C31 UNL     1      23.555  38.307  18.401  1.00  0.00     0.014 C 
HETATM   28  C32 UNL     1      21.895  39.800  19.373  1.00  0.00     0.014 C 
HETATM   29  C33 UNL     1      22.654  40.145  17.086  1.00  0.00     0.014 C 
ENDBRANCH  25  26
ENDBRANCH  24  25
ENDBRANCH  23  24
ENDBRANCH  21  23
ENDBRANCH  20  21
ENDBRANCH  15  16
ENDBRANCH  13  15
ENDBRANCH  10  13
BRANCH   1  30
HETATM   30  C2  UNL     1      21.453  33.250  16.900  1.00  0.00    -0.024 C 
HETATM   31  C1  UNL     1      21.926  34.326  17.491  1.00  0.00     0.008 C 
ENDBRANCH   1  30
BRANCH   5  32
HETATM   32  C8  UNL     1      20.880  29.324  13.902  1.00  0.00     0.174 C 
HETATM   33  O2  UNL     1      20.904  28.659  14.918  1.00  0.00    -0.295 OA
BRANCH  32  34
HETATM   34  C9  UNL     1      20.851  28.626  12.603  1.00  0.00     0.259 C 
BRANCH  34  35
HETATM   35  N1  UNL     1      19.990  27.445  12.649  1.00  0.00    -0.054 N 
ATOM     36  H12 UNL     1      20.285  26.762  11.951  1.00  0.00     0.278 HD
ATOM     37  H11 UNL     1      20.164  26.911  13.500  1.00  0.00     0.278 HD
BRANCH  35  38
HETATM   38  C10 UNL     1      18.600  27.726  12.514  1.00  0.00     0.345 C 
BRANCH  38  39
HETATM   39  C11 UNL     1      18.401  28.365  11.179  1.00  0.00     0.199 C 
HETATM   40  O3  UNL     1      17.824  29.489  11.073  1.00  0.00    -0.647 OA
HETATM   41  O4  UNL     1      18.829  27.778   9.994  1.00  0.00    -0.647 OA
ENDBRANCH  38  39
ENDBRANCH  35  38
ENDBRANCH  34  35
BRANCH  34  42
HETATM   42  C12 UNL     1      22.218  28.061  12.196  1.00  0.00     0.015 C 
HETATM   43  C13 UNL     1      22.559  28.717  10.851  1.00  0.00     0.012 C 
HETATM   44  C14 UNL     1      22.130  26.572  11.972  1.00  0.00     0.012 C 
ENDBRANCH  34  42
ENDBRANCH  32  34
ENDBRANCH   5  32
BRANCH   4  45
HETATM   45  O1  UNL     1      22.215  30.859  15.946  1.00  0.00    -0.394 OA
ATOM     46  H1  UNL     1      23.082  31.001  16.309  1.00  0.00     0.210 HD
ENDBRANCH   4  45
TORSDOF 17
ENDMDL
MODEL 3
REMARK VINA RESULT: -7.868901511      2.996     10.389
REMARK  17 active torsions:
REMARK  status: ('A' for Active; 'I' for Inactive)
REMARK    1  A    between atoms: C2_2  and  C3_3 
REMARK    2  A    between atoms: C6_6  and  O1_7 
REMARK    3  A    between atoms: C7_9  and  C8_10 
REMARK    4  A    between atoms: C8_10  and  C9_12 
REMARK    5  A    between atoms: C9_12  and  N1_13 
REMARK    6  A    between atoms: C9_12  and  C12_20 
REMARK    7  A    between atoms: N1_13  and  C10_16 
REMARK    8  A    between atoms: C10_16  and  C11_17 
REMARK    9  A    between atoms: C18_27  and  O6_28 
REMARK   10  A    between atoms: C18_27  and  C19_30 
REMARK   11  A    between atoms: C19_30  and  O8_32 
REMARK   12  A    between atoms: O8_32  and  C20_33 
REMARK   13  A    between atoms: C24_37  and  C25_38 
REMARK   14  A    between atoms: C25_38  and  C27_40 
REMARK   15  A    between atoms: C27_40  and  C28_41 
REMARK   16  A    between atoms: C28_41  and  C29_42 
REMARK   17  A    between atoms: C29_42  and  C30_43 
ROOT
HETATM    1  C3  UNL     1      19.086  28.752  12.212  1.00  0.00     0.019 C 
HETATM    2  C4  UNL     1      19.137  28.587  10.727  1.00  0.00     0.023 C 
HETATM    3  C5  UNL     1      18.002  29.750  12.536  1.00  0.00     0.050 C 
HETATM    4  C6  UNL     1      18.061  30.169  13.992  1.00  0.00     0.140 C 
HETATM    5  C7  UNL     1      19.310  30.979  14.161  1.00  0.00     0.104 C 
HETATM    6  C15 UNL     1      19.425  32.123  13.162  1.00  0.00     0.192 C 
HETATM    7  O5  UNL     1      20.328  31.398  12.419  1.00  0.00    -0.374 OA
HETATM    8  C16 UNL     1      20.490  30.451  13.459  1.00  0.00     0.118 C 
HETATM    9  C17 UNL     1      21.855  30.661  14.063  1.00  0.00     0.051 C 
HETATM   10  C18 UNL     1      20.395  29.083  12.857  1.00  0.00     0.188 C 
ENDROOT
BRANCH  10  11
HETATM   11  O6  UNL     1      20.704  28.157  13.870  1.00  0.00    -0.376 OA
ATOM     12  H6  UNL     1      20.508  28.516  14.728  1.00  0.00     0.211 HD
ENDBRANCH  10  11
BRANCH  10  13
HETATM   13  C19 UNL     1      21.495  28.990  11.852  1.00  0.00     0.298 C 
HETATM   14  O7  UNL     1      21.655  29.863  10.943  1.00  0.00    -0.262 OA
BRANCH  13  15
HETATM   15  O8  UNL     1      22.407  27.931  11.867  1.00  0.00    -0.312 OA
BRANCH  15  16
HETATM   16  C20 UNL     1      23.348  27.714  10.873  1.00  0.00     0.143 C 
HETATM   17  C21 UNL     1      24.764  27.736  11.421  1.00  0.00     0.060 C 
HETATM   18  C22 UNL     1      25.038  26.315  11.671  1.00  0.00    -0.028 C 
HETATM   19  C23 UNL     1      24.204  25.539  11.014  1.00  0.00    -0.023 C 
HETATM   20  C24 UNL     1      23.247  26.386  10.224  1.00  0.00     0.041 C 
BRANCH  20  21
HETATM   21  C25 UNL     1      21.902  25.741  10.156  1.00  0.00    -0.009 C 
HETATM   22  C26 UNL     1      21.429  25.032  11.359  1.00  0.00     0.011 C 
BRANCH  21  23
HETATM   23  C27 UNL     1      21.882  24.877   8.890  1.00  0.00     0.005 C 
BRANCH  23  24
HETATM   24  C28 UNL     1      20.836  25.287   7.935  1.00  0.00     0.001 C 
BRANCH  24  25
HETATM   25  C29 UNL     1      19.576  25.725   8.573  1.00  0.00     0.008 C 
BRANCH  25  26
HETATM   26  C30 UNL     1      18.333  25.824   7.789  1.00  0.00    -0.051 C 
HETATM   27  C31 UNL     1      18.271  27.317   7.325  1.00  0.00     0.014 C 
HETATM   28  C32 UNL     1      17.090  25.604   8.590  1.00  0.00     0.014 C 
HETATM   29  C33 UNL     1      18.246  25.019   6.528  1.00  0.00     0.014 C 
ENDBRANCH  25  26
ENDBRANCH  24  25
ENDBRANCH  23  24
ENDBRANCH  21  23
ENDBRANCH  20  21
ENDBRANCH  15  16
ENDBRANCH  13  15
ENDBRANCH  10  13
BRANCH   1  30
HETATM   30  C2  UNL     1      18.609  27.453  12.787  1.00  0.00    -0.024 C 
HETATM   31  C1  UNL     1      18.194  26.492  11.988  1.00  0.00     0.008 C 
ENDBRANCH   1  30
BRANCH   5  32
HETATM   32  C8  UNL     1      19.457  31.523  15.513  1.00  0.00     0.174 C 
HETATM   33  O2  UNL     1      19.704  30.772  16.435  1.00  0.00    -0.295 OA
BRANCH  32  34
HETATM   34  C9  UNL     1      19.320  32.965  15.796  1.00  0.00     0.259 C 
BRANCH  34  35
HETATM   35  N1  UNL     1      20.285  33.407  16.802  1.00  0.00    -0.054 N 
ATOM     36  H12 UNL     1      19.839  34.034  17.472  1.00  0.00     0.278 HD
ATOM     37  H11 UNL     1      20.532  32.636  17.422  1.00  0.00     0.278 HD
BRANCH  35  38
HETATM   38  C10 UNL     1      21.459  34.009  16.264  1.00  0.00     0.345 C 
BRANCH  38  39
HETATM   39  C11 UNL     1      22.615  33.136  16.627  1.00  0.00     0.199 C 
HETATM   40  O3  UNL     1      22.567  32.378  17.642  1.00  0.00    -0.647 OA
HETATM   41  O4  UNL     1      23.790  33.100  15.886  1.00  0.00    -0.647 OA
ENDBRANCH  38  39
ENDBRANCH  35  38
ENDBRANCH  34  35
BRANCH  34  42
HETATM   42  C12 UNL     1      17.963  33.327  16.414  1.00  0.00     0.015 C 
HETATM   43  C13 UNL     1      17.165  34.012  15.296  1.00  0.00     0.012 C 
HETATM   44  C14 UNL     1      18.139  34.325  17.531  1.00  0.00     0.012 C 
ENDBRANCH  34  42
ENDBRANCH  32  34
ENDBRANCH   5  32
BRANCH   4  45
HETATM   45  O1  UNL     1      18.062  29.091  14.842  1.00  0.00    -0.394 OA
ATOM     46  H1  UNL     1      17.198  28.703  14.931  1.00  0.00     0.210 HD
ENDBRANCH   4  45
TORSDOF 17
ENDMDL
MODEL 4
REMARK VINA RESULT: -7.830841765      1.386      2.105
REMARK  17 active torsions:
REMARK  status: ('A' for Active; 'I' for Inactive)
REMARK    1  A    between atoms: C2_2  and  C3_3 
REMARK    2  A    between atoms: C6_6  and  O1_7 
REMARK    3  A    between atoms: C7_9  and  C8_10 
REMARK    4  A    between atoms: C8_10  and  C9_12 
REMARK    5  A    between atoms: C9_12  and  N1_13 
REMARK    6  A    between atoms: C9_12  and  C12_20 
REMARK    7  A    between atoms: N1_13  and  C10_16 
REMARK    8  A    between atoms: C10_16  and  C11_17 
REMARK    9  A    between atoms: C18_27  and  O6_28 
REMARK   10  A    between atoms: C18_27  and  C19_30 
REMARK   11  A    between atoms: C19_30  and  O8_32 
REMARK   12  A    between atoms: O8_32  and  C20_33 
REMARK   13  A    between atoms: C24_37  and  C25_38 
REMARK   14  A    between atoms: C25_38  and  C27_40 
REMARK   15  A    between atoms: C27_40  and  C28_41 
REMARK   16  A    between atoms: C28_41  and  C29_42 
REMARK   17  A    between atoms: C29_42  and  C30_43 
ROOT
HETATM    1  C3  UNL     1      20.918  33.324  15.520  1.00  0.00     0.019 C 
HETATM    2  C4  UNL     1      20.640  34.767  15.247  1.00  0.00     0.023 C 
HETATM    3  C5  UNL     1      22.074  32.896  14.648  1.00  0.00     0.050 C 
HETATM    4  C6  UNL     1      22.249  31.390  14.672  1.00  0.00     0.140 C 
HETATM    5  C7  UNL     1      21.068  30.804  13.958  1.00  0.00     0.104 C 
HETATM    6  C15 UNL     1      20.846  31.401  12.574  1.00  0.00     0.192 C 
HETATM    7  O5  UNL     1      19.817  32.173  13.060  1.00  0.00    -0.374 OA
HETATM    8  C16 UNL     1      19.779  31.439  14.270  1.00  0.00     0.118 C 
HETATM    9  C17 UNL     1      18.528  30.598  14.258  1.00  0.00     0.051 C 
HETATM   10  C18 UNL     1      19.733  32.417  15.403  1.00  0.00     0.188 C 
ENDROOT
BRANCH  10  11
HETATM   11  O6  UNL     1      19.547  31.679  16.586  1.00  0.00    -0.376 OA
ATOM     12  H6  UNL     1      19.344  32.253  17.316  1.00  0.00     0.211 HD
ENDBRANCH  10  11
BRANCH  10  13
HETATM   13  C19 UNL     1      18.493  33.225  15.211  1.00  0.00     0.298 C 
HETATM   14  O7  UNL     1      18.120  33.626  14.065  1.00  0.00    -0.262 OA
BRANCH  13  15
HETATM   15  O8  UNL     1      17.679  33.578  16.291  1.00  0.00    -0.312 OA
BRANCH  15  16
HETATM   16  C20 UNL     1      16.736  34.591  16.242  1.00  0.00     0.143 C 
HETATM   17  C21 UNL     1      15.330  34.067  16.471  1.00  0.00     0.060 C 
HETATM   18  C22 UNL     1      15.138  34.270  17.913  1.00  0.00    -0.028 C 
HETATM   19  C23 UNL     1      16.002  35.134  18.399  1.00  0.00    -0.023 C 
HETATM   20  C24 UNL     1      16.899  35.621  17.296  1.00  0.00     0.041 C 
BRANCH  20  21
HETATM   21  C25 UNL     1      18.276  35.882  17.811  1.00  0.00    -0.009 C 
HETATM   22  C26 UNL     1      18.696  35.156  19.023  1.00  0.00     0.011 C 
BRANCH  21  23
HETATM   23  C27 UNL     1      18.430  37.404  17.925  1.00  0.00     0.005 C 
BRANCH  23  24
HETATM   24  C28 UNL     1      19.705  37.802  18.550  1.00  0.00     0.001 C 
BRANCH  24  25
HETATM   25  C29 UNL     1      20.831  37.925  17.599  1.00  0.00     0.008 C 
BRANCH  25  26
HETATM   26  C30 UNL     1      22.011  38.740  17.933  1.00  0.00    -0.051 C 
HETATM   27  C31 UNL     1      21.607  39.515  19.231  1.00  0.00     0.014 C 
HETATM   28  C32 UNL     1      22.327  39.795  16.922  1.00  0.00     0.014 C 
HETATM   29  C33 UNL     1      23.274  38.015  18.288  1.00  0.00     0.014 C 
ENDBRANCH  25  26
ENDBRANCH  24  25
ENDBRANCH  23  24
ENDBRANCH  21  23
ENDBRANCH  20  21
ENDBRANCH  15  16
ENDBRANCH  13  15
ENDBRANCH  10  13
BRANCH   1  30
HETATM   30  C2  UNL     1      21.430  33.228  16.926  1.00  0.00    -0.024 C 
HETATM   31  C1  UNL     1      21.994  34.274  17.493  1.00  0.00     0.008 C 
ENDBRANCH   1  30
BRANCH   5  32
HETATM   32  C8  UNL     1      21.145  29.346  13.832  1.00  0.00     0.174 C 
HETATM   33  O2  UNL     1      21.182  28.662  14.834  1.00  0.00    -0.295 OA
BRANCH  32  34
HETATM   34  C9  UNL     1      21.173  28.675  12.518  1.00  0.00     0.259 C 
BRANCH  34  35
HETATM   35  N1  UNL     1      20.417  27.423  12.540  1.00  0.00    -0.054 N 
ATOM     36  H12 UNL     1      20.987  26.657  12.182  1.00  0.00     0.278 HD
ATOM     37  H11 UNL     1      20.281  27.106  13.500  1.00  0.00     0.278 HD
BRANCH  35  38
HETATM   38  C10 UNL     1      19.170  27.479  11.854  1.00  0.00     0.345 C 
BRANCH  38  39
HETATM   39  C11 UNL     1      18.842  26.093  11.410  1.00  0.00     0.199 C 
HETATM   40  O3  UNL     1      17.868  25.458  11.917  1.00  0.00    -0.647 OA
HETATM   41  O4  UNL     1      19.568  25.425  10.431  1.00  0.00    -0.647 OA
ENDBRANCH  38  39
ENDBRANCH  35  38
ENDBRANCH  34  35
BRANCH  34  42
HETATM   42  C12 UNL     1      22.584  28.237  12.101  1.00  0.00     0.015 C 
HETATM   43  C13 UNL     1      22.753  28.703  10.648  1.00  0.00     0.012 C 
HETATM   44  C14 UNL     1      22.698  26.733  12.117  1.00  0.00     0.012 C 
ENDBRANCH  34  42
ENDBRANCH  32  34
ENDBRANCH   5  32
BRANCH   4  45
HETATM   45  O1  UNL     1      22.337  30.897  15.950  1.00  0.00    -0.394 OA
ATOM     46  H1  UNL     1      23.236  30.734  16.212  1.00  0.00     0.210 HD
ENDBRANCH   4  45
TORSDOF 17
ENDMDL
MODEL 5
REMARK VINA RESULT: -7.816275564      3.259     11.247
REMARK  17 active torsions:
REMARK  status: ('A' for Active; 'I' for Inactive)
REMARK    1  A    between atoms: C2_2  and  C3_3 
REMARK    2  A    between atoms: C6_6  and  O1_7 
REMARK    3  A    between atoms: C7_9  and  C8_10 
REMARK    4  A    between atoms: C8_10  and  C9_12 
REMARK    5  A    between atoms: C9_12  and  N1_13 
REMARK    6  A    between atoms: C9_12  and  C12_20 
REMARK    7  A    between atoms: N1_13  and  C10_16 
REMARK    8  A    between atoms: C10_16  and  C11_17 
REMARK    9  A    between atoms: C18_27  and  O6_28 
REMARK   10  A    between atoms: C18_27  and  C19_30 
REMARK   11  A    between atoms: C19_30  and  O8_32 
REMARK   12  A    between atoms: O8_32  and  C20_33 
REMARK   13  A    between atoms: C24_37  and  C25_38 
REMARK   14  A    between atoms: C25_38  and  C27_40 
REMARK   15  A    between atoms: C27_40  and  C28_41 
REMARK   16  A    between atoms: C28_41  and  C29_42 
REMARK   17  A    between atoms: C29_42  and  C30_43 
ROOT
HETATM    1  C3  UNL     1      19.030  28.749  12.208  1.00  0.00     0.019 C 
HETATM    2  C4  UNL     1      19.099  28.577  10.725  1.00  0.00     0.023 C 
HETATM    3  C5  UNL     1      17.952  29.760  12.514  1.00  0.00     0.050 C 
HETATM    4  C6  UNL     1      17.996  30.184  13.969  1.00  0.00     0.140 C 
HETATM    5  C7  UNL     1      19.252  30.980  14.152  1.00  0.00     0.104 C 
HETATM    6  C15 UNL     1      19.392  32.120  13.150  1.00  0.00     0.192 C 
HETATM    7  O5  UNL     1      20.298  31.382  12.423  1.00  0.00    -0.374 OA
HETATM    8  C16 UNL     1      20.435  30.438  13.468  1.00  0.00     0.118 C 
HETATM    9  C17 UNL     1      21.794  30.635  14.090  1.00  0.00     0.051 C 
HETATM   10  C18 UNL     1      20.334  29.068  12.870  1.00  0.00     0.188 C 
ENDROOT
BRANCH  10  11
HETATM   11  O6  UNL     1      20.618  28.143  13.891  1.00  0.00    -0.376 OA
ATOM     12  H6  UNL     1      20.506  28.538  14.747  1.00  0.00     0.211 HD
ENDBRANCH  10  11
BRANCH  10  13
HETATM   13  C19 UNL     1      21.446  28.959  11.880  1.00  0.00     0.298 C 
HETATM   14  O7  UNL     1      21.649  29.845  10.993  1.00  0.00    -0.262 OA
BRANCH  13  15
HETATM   15  O8  UNL     1      22.322  27.870  11.887  1.00  0.00    -0.312 OA
BRANCH  15  16
HETATM   16  C20 UNL     1      23.431  27.772  11.062  1.00  0.00     0.143 C 
HETATM   17  C21 UNL     1      24.728  27.849  11.847  1.00  0.00     0.060 C 
HETATM   18  C22 UNL     1      25.056  26.435  12.072  1.00  0.00    -0.028 C 
HETATM   19  C23 UNL     1      24.404  25.649  11.243  1.00  0.00    -0.023 C 
HETATM   20  C24 UNL     1      23.536  26.481  10.341  1.00  0.00     0.041 C 
BRANCH  20  21
HETATM   21  C25 UNL     1      22.271  25.760  10.011  1.00  0.00    -0.009 C 
HETATM   22  C26 UNL     1      21.616  25.008  11.096  1.00  0.00     0.011 C 
BRANCH  21  23
HETATM   23  C27 UNL     1      22.551  24.913   8.763  1.00  0.00     0.005 C 
BRANCH  23  24
HETATM   24  C28 UNL     1      23.549  25.528   7.868  1.00  0.00     0.001 C 
BRANCH  24  25
HETATM   25  C29 UNL     1      24.558  24.579   7.348  1.00  0.00     0.008 C 
BRANCH  25  26
HETATM   26  C30 UNL     1      24.491  24.100   5.957  1.00  0.00    -0.051 C 
HETATM   27  C31 UNL     1      23.814  22.693   6.052  1.00  0.00     0.014 C 
HETATM   28  C32 UNL     1      25.827  23.858   5.332  1.00  0.00     0.014 C 
HETATM   29  C33 UNL     1      23.641  24.879   4.999  1.00  0.00     0.014 C 
ENDBRANCH  25  26
ENDBRANCH  24  25
ENDBRANCH  23  24
ENDBRANCH  21  23
ENDBRANCH  20  21
ENDBRANCH  15  16
ENDBRANCH  13  15
ENDBRANCH  10  13
BRANCH   1  30
HETATM   30  C2  UNL     1      18.530  27.457  12.782  1.00  0.00    -0.024 C 
HETATM   31  C1  UNL     1      18.277  26.439  11.987  1.00  0.00     0.008 C 
ENDBRANCH   1  30
BRANCH   5  32
HETATM   32  C8  UNL     1      19.386  31.529  15.504  1.00  0.00     0.174 C 
HETATM   33  O2  UNL     1      19.605  30.778  16.433  1.00  0.00    -0.295 OA
BRANCH  32  34
HETATM   34  C9  UNL     1      19.269  32.973  15.779  1.00  0.00     0.259 C 
BRANCH  34  35
HETATM   35  N1  UNL     1      20.288  33.423  16.727  1.00  0.00    -0.054 N 
ATOM     36  H12 UNL     1      19.895  34.109  17.373  1.00  0.00     0.278 HD
ATOM     37  H11 UNL     1      20.517  32.677  17.384  1.00  0.00     0.278 HD
BRANCH  35  38
HETATM   38  C10 UNL     1      21.471  33.932  16.120  1.00  0.00     0.345 C 
BRANCH  38  39
HETATM   39  C11 UNL     1      22.606  33.065  16.555  1.00  0.00     0.199 C 
HETATM   40  O3  UNL     1      22.479  32.265  17.530  1.00  0.00    -0.647 OA
HETATM   41  O4  UNL     1      23.847  33.082  15.930  1.00  0.00    -0.647 OA
ENDBRANCH  38  39
ENDBRANCH  35  38
ENDBRANCH  34  35
BRANCH  34  42
HETATM   42  C12 UNL     1      17.948  33.348  16.464  1.00  0.00     0.015 C 
HETATM   43  C13 UNL     1      17.121  34.085  15.401  1.00  0.00     0.012 C 
HETATM   44  C14 UNL     1      18.195  34.306  17.602  1.00  0.00     0.012 C 
ENDBRANCH  34  42
ENDBRANCH  32  34
ENDBRANCH   5  32
BRANCH   4  45
HETATM   45  O1  UNL     1      17.973  29.109  14.823  1.00  0.00    -0.394 OA
ATOM     46  H1  UNL     1      18.521  29.246  15.588  1.00  0.00     0.210 HD
ENDBRANCH   4  45
TORSDOF 17
ENDMDL
