MODEL 1
REMARK VINA RESULT: -8.043146212      0.000      0.000
REMARK  19 active torsions:
REMARK  status: ('A' for Active; 'I' for Inactive)
REMARK    1  A    between atoms: C2_2  and  O2_4 
REMARK    2  A    between atoms: O2_4  and  C3_5 
REMARK    3  A    between atoms: C3_5  and  C4_6 
REMARK    4  A    between atoms: C4_6  and  C5_7 
REMARK    5  A    between atoms: C5_7  and  C6_8 
REMARK    6  A    between atoms: C7_9  and  C8_10 
REMARK    7  A    between atoms: C9_11  and  C10_12 
REMARK    8  A    between atoms: C10_12  and  C11_13 
REMARK    9  A    between atoms: C12_14  and  C13_15 
REMARK   10  A    between atoms: C14_16  and  C15_17 
REMARK   11  A    between atoms: C15_17  and  C16_18 
REMARK   12  A    between atoms: C16_18  and  C17_19 
REMARK   13  A    between atoms: C17_19  and  O3_20 
REMARK   14  A    between atoms: C17_19  and  C18_22 
REMARK   15  A    between atoms: C18_22  and  O4_23 
REMARK   16  A    between atoms: C23_30  and  O6_31 
REMARK   17  A    between atoms: C24_33  and  C25_34 
REMARK   18  A    between atoms: C26_35  and  C27_36 
REMARK   19  A    between atoms: C33_43  and  O8_44 
ROOT
HETATM    1  C18 UNL     1      18.011  32.876  15.562  1.00  0.00     0.115 C 
HETATM    2  C19 UNL     1      16.861  32.124  16.025  1.00  0.00     0.064 C 
HETATM    3  C20 UNL     1      15.667  32.742  16.721  1.00  0.00     0.153 C 
HETATM    4  O5  UNL     1      14.626  32.281  16.413  1.00  0.00    -0.293 OA
HETATM    5  C21 UNL     1      15.615  33.850  17.739  1.00  0.00     0.071 C 
HETATM    6  C22 UNL     1      14.728  34.981  17.528  1.00  0.00     0.077 C 
HETATM    7  C23 UNL     1      15.278  36.325  17.128  1.00  0.00     0.051 C 
HETATM    8  C24 UNL     1      16.604  36.381  16.395  1.00  0.00    -0.020 C 
HETATM    9  C28 UNL     1      17.007  34.976  16.198  1.00  0.00    -0.001 C 
HETATM   10  C29 UNL     1      16.168  34.687  15.060  1.00  0.00     0.021 C 
HETATM   11  C30 UNL     1      16.988  34.388  17.568  1.00  0.00     0.011 C 
HETATM   12  C31 UNL     1      17.725  35.027  18.630  1.00  0.00     0.009 C 
HETATM   13  C32 UNL     1      19.190  35.028  18.152  1.00  0.00     0.032 C 
HETATM   14  C33 UNL     1      19.431  34.530  16.804  1.00  0.00     0.126 C 
HETATM   15  C34 UNL     1      18.289  34.365  15.810  1.00  0.00     0.069 C 
ENDROOT
BRANCH   1  16
HETATM   16  C17 UNL     1      18.345  32.626  14.058  1.00  0.00     0.179 C 
BRANCH  16  17
HETATM   17  C16 UNL     1      17.790  31.470  13.480  1.00  0.00     0.008 C 
BRANCH  17  18
HETATM   18  C15 UNL     1      18.114  30.240  13.188  1.00  0.00    -0.001 C 
BRANCH  18  19
HETATM   19  C14 UNL     1      18.596  29.885  11.878  1.00  0.00    -0.000 C 
HETATM   20  C13 UNL     1      18.638  28.632  11.481  1.00  0.00    -0.000 C 
BRANCH  20  21
HETATM   21  C12 UNL     1      18.234  27.474  12.236  1.00  0.00    -0.004 C 
HETATM   22  C11 UNL     1      18.645  26.234  11.991  1.00  0.00    -0.023 C 
BRANCH  22  23
HETATM   23  C10 UNL     1      19.581  25.828  10.927  1.00  0.00     0.054 C 
BRANCH  23  24
HETATM   24  C9  UNL     1      20.838  25.278  11.451  1.00  0.00    -0.023 C 
HETATM   25  C8  UNL     1      21.947  25.975  11.517  1.00  0.00    -0.004 C 
BRANCH  25  26
HETATM   26  C7  UNL     1      22.105  27.334  11.107  1.00  0.00    -0.004 C 
HETATM   27  C6  UNL     1      22.353  28.351  11.867  1.00  0.00    -0.027 C 
BRANCH  27  28
HETATM   28  C5  UNL     1      22.519  28.255  13.326  1.00  0.00     0.029 C 
BRANCH  28  29
HETATM   29  C4  UNL     1      21.596  29.285  13.983  1.00  0.00     0.030 C 
BRANCH  29  30
HETATM   30  C3  UNL     1      22.361  30.541  14.248  1.00  0.00     0.179 C 
BRANCH  30  31
HETATM   31  O2  UNL     1      21.791  31.327  15.264  1.00  0.00    -0.322 OA
BRANCH  31  32
HETATM   32  C2  UNL     1      22.517  32.234  16.002  1.00  0.00     0.254 C 
HETATM   33  C1  UNL     1      23.807  32.777  15.502  1.00  0.00     0.126 C 
HETATM   34  O1  UNL     1      22.068  32.603  17.116  1.00  0.00    -0.266 OA
ENDBRANCH  31  32
ENDBRANCH  30  31
ENDBRANCH  29  30
ENDBRANCH  28  29
ENDBRANCH  27  28
ENDBRANCH  25  26
ENDBRANCH  23  24
ENDBRANCH  22  23
ENDBRANCH  20  21
ENDBRANCH  18  19
ENDBRANCH  17  18
ENDBRANCH  16  17
BRANCH  16  35
HETATM   35  O3  UNL     1      19.742  32.724  13.901  1.00  0.00    -0.388 OA
ATOM     36  H3  UNL     1      20.074  32.268  13.137  1.00  0.00     0.210 HD
ENDBRANCH  16  35
ENDBRANCH   1  16
BRANCH   1  37
HETATM   37  O4  UNL     1      19.079  32.088  16.057  1.00  0.00    -0.382 OA
ATOM     38  H4  UNL     1      18.522  31.394  16.389  1.00  0.00     0.211 HD
ENDBRANCH   1  37
BRANCH  14  39
HETATM   39  O8  UNL     1      20.518  35.254  16.217  1.00  0.00    -0.395 OA
ATOM     40  H8  UNL     1      20.585  35.030  15.296  1.00  0.00     0.210 HD
ENDBRANCH  14  39
BRANCH   8  41
HETATM   41  C25 UNL     1      17.433  37.518  16.428  1.00  0.00     0.013 C 
HETATM   42  C26 UNL     1      17.493  38.519  17.240  1.00  0.00     0.042 C 
BRANCH  42  43
HETATM   43  C27 UNL     1      18.459  39.615  17.074  1.00  0.00     0.258 C 
HETATM   44  O7  UNL     1      18.487  40.254  16.020  1.00  0.00    -0.302 OA
ENDBRANCH  42  43
ENDBRANCH   8  41
BRANCH   7  45
HETATM   45  O6  UNL     1      15.115  37.242  18.160  1.00  0.00    -0.364 OA
ATOM     46  H6  UNL     1      15.307  38.121  17.855  1.00  0.00     0.217 HD
ENDBRANCH   7  45
TORSDOF 19
ENDMDL
MODEL 2
REMARK VINA RESULT: -7.916528176      2.906      5.822
REMARK  19 active torsions:
REMARK  status: ('A' for Active; 'I' for Inactive)
REMARK    1  A    between atoms: C2_2  and  O2_4 
REMARK    2  A    between atoms: O2_4  and  C3_5 
REMARK    3  A    between atoms: C3_5  and  C4_6 
REMARK    4  A    between atoms: C4_6  and  C5_7 
REMARK    5  A    between atoms: C5_7  and  C6_8 
REMARK    6  A    between atoms: C7_9  and  C8_10 
REMARK    7  A    between atoms: C9_11  and  C10_12 
REMARK    8  A    between atoms: C10_12  and  C11_13 
REMARK    9  A    between atoms: C12_14  and  C13_15 
REMARK   10  A    between atoms: C14_16  and  C15_17 
REMARK   11  A    between atoms: C15_17  and  C16_18 
REMARK   12  A    between atoms: C16_18  and  C17_19 
REMARK   13  A    between atoms: C17_19  and  O3_20 
REMARK   14  A    between atoms: C17_19  and  C18_22 
REMARK   15  A    between atoms: C18_22  and  O4_23 
REMARK   16  A    between atoms: C23_30  and  O6_31 
REMARK   17  A    between atoms: C24_33  and  C25_34 
REMARK   18  A    between atoms: C26_35  and  C27_36 
REMARK   19  A    between atoms: C33_43  and  O8_44 
ROOT
HETATM    1  C18 UNL     1      20.523  29.920  13.614  1.00  0.00     0.115 C 
HETATM    2  C19 UNL     1      19.316  29.456  12.959  1.00  0.00     0.064 C 
HETATM    3  C20 UNL     1      17.990  30.186  13.005  1.00  0.00     0.153 C 
HETATM    4  O5  UNL     1      17.385  30.170  11.993  1.00  0.00    -0.293 OA
HETATM    5  C21 UNL     1      17.339  30.925  14.143  1.00  0.00     0.071 C 
HETATM    6  C22 UNL     1      16.864  32.283  13.944  1.00  0.00     0.077 C 
HETATM    7  C23 UNL     1      17.607  33.451  14.537  1.00  0.00     0.051 C 
HETATM    8  C24 UNL     1      19.090  33.305  14.819  1.00  0.00    -0.020 C 
HETATM    9  C28 UNL     1      19.453  31.958  14.338  1.00  0.00    -0.001 C 
HETATM   10  C29 UNL     1      19.553  32.271  12.932  1.00  0.00     0.021 C 
HETATM   11  C30 UNL     1      18.511  31.044  15.045  1.00  0.00     0.011 C 
HETATM   12  C31 UNL     1      18.402  31.103  16.481  1.00  0.00     0.009 C 
HETATM   13  C32 UNL     1      19.819  30.793  17.001  1.00  0.00     0.032 C 
HETATM   14  C33 UNL     1      20.861  30.645  15.992  1.00  0.00     0.126 C 
HETATM   15  C34 UNL     1      20.643  31.122  14.562  1.00  0.00     0.069 C 
ENDROOT
BRANCH   1  16
HETATM   16  C17 UNL     1      21.749  30.014  12.652  1.00  0.00     0.179 C 
BRANCH  16  17
HETATM   17  C16 UNL     1      22.068  28.848  11.934  1.00  0.00     0.008 C 
BRANCH  17  18
HETATM   18  C15 UNL     1      23.108  28.191  11.497  1.00  0.00    -0.001 C 
BRANCH  18  19
HETATM   19  C14 UNL     1      23.899  27.372  12.378  1.00  0.00    -0.000 C 
HETATM   20  C13 UNL     1      24.988  26.767  11.957  1.00  0.00    -0.000 C 
BRANCH  20  21
HETATM   21  C12 UNL     1      25.542  26.817  10.629  1.00  0.00    -0.004 C 
HETATM   22  C11 UNL     1      25.258  25.952   9.661  1.00  0.00    -0.023 C 
BRANCH  22  23
HETATM   23  C10 UNL     1      24.331  24.810   9.767  1.00  0.00     0.054 C 
BRANCH  23  24
HETATM   24  C9  UNL     1      23.142  24.959   8.919  1.00  0.00    -0.023 C 
HETATM   25  C8  UNL     1      21.938  25.138   9.408  1.00  0.00    -0.004 C 
BRANCH  25  26
HETATM   26  C7  UNL     1      21.602  25.215  10.794  1.00  0.00    -0.004 C 
HETATM   27  C6  UNL     1      20.449  25.519  11.298  1.00  0.00    -0.027 C 
BRANCH  27  28
HETATM   28  C5  UNL     1      19.265  25.840  10.485  1.00  0.00     0.029 C 
BRANCH  28  29
HETATM   29  C4  UNL     1      19.290  27.338  10.172  1.00  0.00     0.030 C 
BRANCH  29  30
HETATM   30  C3  UNL     1      18.060  27.708   9.407  1.00  0.00     0.179 C 
BRANCH  30  31
HETATM   31  O2  UNL     1      17.760  26.800   8.378  1.00  0.00    -0.322 OA
BRANCH  31  32
HETATM   32  C2  UNL     1      18.378  26.834   7.148  1.00  0.00     0.254 C 
HETATM   33  C1  UNL     1      19.232  25.710   6.683  1.00  0.00     0.126 C 
HETATM   34  O1  UNL     1      18.206  27.840   6.415  1.00  0.00    -0.266 OA
ENDBRANCH  31  32
ENDBRANCH  30  31
ENDBRANCH  29  30
ENDBRANCH  28  29
ENDBRANCH  27  28
ENDBRANCH  25  26
ENDBRANCH  23  24
ENDBRANCH  22  23
ENDBRANCH  20  21
ENDBRANCH  18  19
ENDBRANCH  17  18
ENDBRANCH  16  17
BRANCH  16  35
HETATM   35  O3  UNL     1      22.832  30.546  13.380  1.00  0.00    -0.388 OA
ATOM     36  H3  UNL     1      23.518  30.910  12.833  1.00  0.00     0.210 HD
ENDBRANCH  16  35
ENDBRANCH   1  16
BRANCH   1  37
HETATM   37  O4  UNL     1      20.965  28.740  14.260  1.00  0.00    -0.382 OA
ATOM     38  H4  UNL     1      20.255  28.721  14.891  1.00  0.00     0.211 HD
ENDBRANCH   1  37
BRANCH  14  39
HETATM   39  O8  UNL     1      22.100  31.138  16.512  1.00  0.00    -0.395 OA
ATOM     40  H8  UNL     1      22.678  31.359  15.792  1.00  0.00     0.210 HD
ENDBRANCH  14  39
BRANCH   8  41
HETATM   41  C25 UNL     1      19.749  34.078  15.793  1.00  0.00     0.013 C 
HETATM   42  C26 UNL     1      20.970  34.479  15.896  1.00  0.00     0.042 C 
BRANCH  42  43
HETATM   43  C27 UNL     1      21.444  35.293  17.025  1.00  0.00     0.258 C 
HETATM   44  O7  UNL     1      21.351  36.521  16.978  1.00  0.00    -0.302 OA
ENDBRANCH  42  43
ENDBRANCH   8  41
BRANCH   7  45
HETATM   45  O6  UNL     1      16.854  34.045  15.542  1.00  0.00    -0.364 OA
ATOM     46  H6  UNL     1      17.271  34.845  15.840  1.00  0.00     0.217 HD
ENDBRANCH   7  45
TORSDOF 19
ENDMDL
MODEL 3
REMARK VINA RESULT: -7.802602658      3.042      5.732
REMARK  19 active torsions:
REMARK  status: ('A' for Active; 'I' for Inactive)
REMARK    1  A    between atoms: C2_2  and  O2_4 
REMARK    2  A    between atoms: O2_4  and  C3_5 
REMARK    3  A    between atoms: C3_5  and  C4_6 
REMARK    4  A    between atoms: C4_6  and  C5_7 
REMARK    5  A    between atoms: C5_7  and  C6_8 
REMARK    6  A    between atoms: C7_9  and  C8_10 
REMARK    7  A    between atoms: C9_11  and  C10_12 
REMARK    8  A    between atoms: C10_12  and  C11_13 
REMARK    9  A    between atoms: C12_14  and  C13_15 
REMARK   10  A    between atoms: C14_16  and  C15_17 
REMARK   11  A    between atoms: C15_17  and  C16_18 
REMARK   12  A    between atoms: C16_18  and  C17_19 
REMARK   13  A    between atoms: C17_19  and  O3_20 
REMARK   14  A    between atoms: C17_19  and  C18_22 
REMARK   15  A    between atoms: C18_22  and  O4_23 
REMARK   16  A    between atoms: C23_30  and  O6_31 
REMARK   17  A    between atoms: C24_33  and  C25_34 
REMARK   18  A    between atoms: C26_35  and  C27_36 
REMARK   19  A    between atoms: C33_43  and  O8_44 
ROOT
HETATM    1  C18 UNL     1      20.480  29.962  13.647  1.00  0.00     0.115 C 
HETATM    2  C19 UNL     1      19.259  29.517  13.003  1.00  0.00     0.064 C 
HETATM    3  C20 UNL     1      17.946  30.269  13.060  1.00  0.00     0.153 C 
HETATM    4  O5  UNL     1      17.332  30.263  12.053  1.00  0.00    -0.293 OA
HETATM    5  C21 UNL     1      17.317  31.019  14.204  1.00  0.00     0.071 C 
HETATM    6  C22 UNL     1      16.863  32.385  14.008  1.00  0.00     0.077 C 
HETATM    7  C23 UNL     1      17.631  33.541  14.594  1.00  0.00     0.051 C 
HETATM    8  C24 UNL     1      19.114  33.370  14.863  1.00  0.00    -0.020 C 
HETATM    9  C28 UNL     1      19.450  32.018  14.379  1.00  0.00    -0.001 C 
HETATM   10  C29 UNL     1      19.543  32.328  12.973  1.00  0.00     0.021 C 
HETATM   11  C30 UNL     1      18.500  31.119  15.095  1.00  0.00     0.011 C 
HETATM   12  C31 UNL     1      18.404  31.181  16.533  1.00  0.00     0.009 C 
HETATM   13  C32 UNL     1      19.820  30.847  17.040  1.00  0.00     0.032 C 
HETATM   14  C33 UNL     1      20.850  30.682  16.022  1.00  0.00     0.126 C 
HETATM   15  C34 UNL     1      20.628  31.161  14.593  1.00  0.00     0.069 C 
ENDROOT
BRANCH   1  16
HETATM   16  C17 UNL     1      21.698  30.035  12.674  1.00  0.00     0.179 C 
BRANCH  16  17
HETATM   17  C16 UNL     1      21.573  29.328  11.465  1.00  0.00     0.008 C 
BRANCH  17  18
HETATM   18  C15 UNL     1      22.067  28.283  10.857  1.00  0.00    -0.001 C 
BRANCH  18  19
HETATM   19  C14 UNL     1      21.928  26.962  11.411  1.00  0.00    -0.000 C 
HETATM   20  C13 UNL     1      22.945  26.343  11.970  1.00  0.00    -0.000 C 
BRANCH  20  21
HETATM   21  C12 UNL     1      24.286  26.849  12.117  1.00  0.00    -0.004 C 
HETATM   22  C11 UNL     1      25.313  26.493  11.351  1.00  0.00    -0.023 C 
BRANCH  22  23
HETATM   23  C10 UNL     1      25.263  25.542  10.226  1.00  0.00     0.054 C 
BRANCH  23  24
HETATM   24  C9  UNL     1      24.867  26.173   8.960  1.00  0.00    -0.023 C 
HETATM   25  C8  UNL     1      23.845  25.762   8.250  1.00  0.00    -0.004 C 
BRANCH  25  26
HETATM   26  C7  UNL     1      22.981  24.673   8.580  1.00  0.00    -0.004 C 
HETATM   27  C6  UNL     1      21.873  24.354   7.992  1.00  0.00    -0.027 C 
BRANCH  27  28
HETATM   28  C5  UNL     1      21.318  25.094   6.848  1.00  0.00     0.029 C 
BRANCH  28  29
HETATM   29  C4  UNL     1      19.846  24.702   6.693  1.00  0.00     0.030 C 
BRANCH  29  30
HETATM   30  C3  UNL     1      18.990  25.685   7.425  1.00  0.00     0.179 C 
BRANCH  30  31
HETATM   31  O2  UNL     1      18.577  25.221   8.686  1.00  0.00    -0.322 OA
BRANCH  31  32
HETATM   32  C2  UNL     1      18.641  25.993   9.823  1.00  0.00     0.254 C 
HETATM   33  C1  UNL     1      18.542  27.474   9.755  1.00  0.00     0.126 C 
HETATM   34  O1  UNL     1      18.782  25.421  10.933  1.00  0.00    -0.266 OA
ENDBRANCH  31  32
ENDBRANCH  30  31
ENDBRANCH  29  30
ENDBRANCH  28  29
ENDBRANCH  27  28
ENDBRANCH  25  26
ENDBRANCH  23  24
ENDBRANCH  22  23
ENDBRANCH  20  21
ENDBRANCH  18  19
ENDBRANCH  17  18
ENDBRANCH  16  17
BRANCH  16  35
HETATM   35  O3  UNL     1      22.858  29.708  13.405  1.00  0.00    -0.388 OA
ATOM     36  H3  UNL     1      22.845  30.020  14.302  1.00  0.00     0.210 HD
ENDBRANCH  16  35
ENDBRANCH   1  16
BRANCH   1  37
HETATM   37  O4  UNL     1      20.907  28.774  14.289  1.00  0.00    -0.382 OA
ATOM     38  H4  UNL     1      20.188  28.244  13.967  1.00  0.00     0.211 HD
ENDBRANCH   1  37
BRANCH  14  39
HETATM   39  O8  UNL     1      22.102  31.155  16.530  1.00  0.00    -0.395 OA
ATOM     40  H8  UNL     1      22.530  31.686  15.870  1.00  0.00     0.210 HD
ENDBRANCH  14  39
BRANCH   8  41
HETATM   41  C25 UNL     1      19.793  34.133  15.830  1.00  0.00     0.013 C 
HETATM   42  C26 UNL     1      21.030  34.484  15.940  1.00  0.00     0.042 C 
BRANCH  42  43
HETATM   43  C27 UNL     1      21.525  35.298  17.060  1.00  0.00     0.258 C 
HETATM   44  O7  UNL     1      21.341  36.517  17.062  1.00  0.00    -0.302 OA
ENDBRANCH  42  43
ENDBRANCH   8  41
BRANCH   7  45
HETATM   45  O6  UNL     1      16.896  34.148  15.605  1.00  0.00    -0.364 OA
ATOM     46  H6  UNL     1      16.998  35.091  15.569  1.00  0.00     0.217 HD
ENDBRANCH   7  45
TORSDOF 19
ENDMDL
MODEL 4
REMARK VINA RESULT: -7.702150960      3.523      6.264
REMARK  19 active torsions:
REMARK  status: ('A' for Active; 'I' for Inactive)
REMARK    1  A    between atoms: C2_2  and  O2_4 
REMARK    2  A    between atoms: O2_4  and  C3_5 
REMARK    3  A    between atoms: C3_5  and  C4_6 
REMARK    4  A    between atoms: C4_6  and  C5_7 
REMARK    5  A    between atoms: C5_7  and  C6_8 
REMARK    6  A    between atoms: C7_9  and  C8_10 
REMARK    7  A    between atoms: C9_11  and  C10_12 
REMARK    8  A    between atoms: C10_12  and  C11_13 
REMARK    9  A    between atoms: C12_14  and  C13_15 
REMARK   10  A    between atoms: C14_16  and  C15_17 
REMARK   11  A    between atoms: C15_17  and  C16_18 
REMARK   12  A    between atoms: C16_18  and  C17_19 
REMARK   13  A    between atoms: C17_19  and  O3_20 
REMARK   14  A    between atoms: C17_19  and  C18_22 
REMARK   15  A    between atoms: C18_22  and  O4_23 
REMARK   16  A    between atoms: C23_30  and  O6_31 
REMARK   17  A    between atoms: C24_33  and  C25_34 
REMARK   18  A    between atoms: C26_35  and  C27_36 
REMARK   19  A    between atoms: C33_43  and  O8_44 
ROOT
HETATM    1  C18 UNL     1      19.852  28.663  12.444  1.00  0.00     0.115 C 
HETATM    2  C19 UNL     1      18.438  28.711  12.126  1.00  0.00     0.064 C 
HETATM    3  C20 UNL     1      17.520  29.855  12.506  1.00  0.00     0.153 C 
HETATM    4  O5  UNL     1      16.724  30.140  11.685  1.00  0.00    -0.293 OA
HETATM    5  C21 UNL     1      17.479  30.674  13.769  1.00  0.00     0.071 C 
HETATM    6  C22 UNL     1      17.495  32.124  13.688  1.00  0.00     0.077 C 
HETATM    7  C23 UNL     1      18.731  32.900  14.060  1.00  0.00     0.051 C 
HETATM    8  C24 UNL     1      20.081  32.218  13.951  1.00  0.00    -0.020 C 
HETATM    9  C28 UNL     1      19.803  30.877  13.403  1.00  0.00    -0.001 C 
HETATM   10  C29 UNL     1      19.664  31.254  12.017  1.00  0.00     0.021 C 
HETATM   11  C30 UNL     1      18.796  30.295  14.336  1.00  0.00     0.011 C 
HETATM   12  C31 UNL     1      19.069  30.264  15.752  1.00  0.00     0.009 C 
HETATM   13  C32 UNL     1      20.358  29.431  15.891  1.00  0.00     0.032 C 
HETATM   14  C33 UNL     1      20.996  29.014  14.649  1.00  0.00     0.126 C 
HETATM   15  C34 UNL     1      20.625  29.659  13.319  1.00  0.00     0.069 C 
ENDROOT
BRANCH   1  16
HETATM   16  C17 UNL     1      20.754  28.403  11.197  1.00  0.00     0.179 C 
BRANCH  16  17
HETATM   17  C16 UNL     1      20.840  27.070  10.757  1.00  0.00     0.008 C 
BRANCH  17  18
HETATM   18  C15 UNL     1      20.356  26.285   9.834  1.00  0.00    -0.001 C 
BRANCH  18  19
HETATM   19  C14 UNL     1      19.004  25.794   9.903  1.00  0.00    -0.000 C 
HETATM   20  C13 UNL     1      18.037  26.350   9.206  1.00  0.00    -0.000 C 
BRANCH  20  21
HETATM   21  C12 UNL     1      18.156  27.472   8.311  1.00  0.00    -0.004 C 
HETATM   22  C11 UNL     1      18.369  27.372   7.003  1.00  0.00    -0.023 C 
BRANCH  22  23
HETATM   23  C10 UNL     1      18.508  26.117   6.243  1.00  0.00     0.054 C 
BRANCH  23  24
HETATM   24  C9  UNL     1      19.658  26.126   5.330  1.00  0.00    -0.023 C 
HETATM   25  C8  UNL     1      20.750  25.434   5.554  1.00  0.00    -0.004 C 
BRANCH  25  26
HETATM   26  C7  UNL     1      20.987  24.590   6.681  1.00  0.00    -0.004 C 
HETATM   27  C6  UNL     1      22.107  24.429   7.309  1.00  0.00    -0.027 C 
BRANCH  27  28
HETATM   28  C5  UNL     1      23.352  25.122   6.941  1.00  0.00     0.029 C 
BRANCH  28  29
HETATM   29  C4  UNL     1      24.272  25.137   8.166  1.00  0.00     0.030 C 
BRANCH  29  30
HETATM   30  C3  UNL     1      24.033  26.386   8.951  1.00  0.00     0.179 C 
BRANCH  30  31
HETATM   31  O2  UNL     1      25.049  26.649   9.887  1.00  0.00    -0.322 OA
BRANCH  31  32
HETATM   32  C2  UNL     1      24.899  26.419  11.235  1.00  0.00     0.254 C 
HETATM   33  C1  UNL     1      25.020  27.522  12.224  1.00  0.00     0.126 C 
HETATM   34  O1  UNL     1      24.653  25.249  11.624  1.00  0.00    -0.266 OA
ENDBRANCH  31  32
ENDBRANCH  30  31
ENDBRANCH  29  30
ENDBRANCH  28  29
ENDBRANCH  27  28
ENDBRANCH  25  26
ENDBRANCH  23  24
ENDBRANCH  22  23
ENDBRANCH  20  21
ENDBRANCH  18  19
ENDBRANCH  17  18
ENDBRANCH  16  17
BRANCH  16  35
HETATM   35  O3  UNL     1      22.008  29.002  11.436  1.00  0.00    -0.388 OA
ATOM     36  H3  UNL     1      21.950  29.907  11.719  1.00  0.00     0.210 HD
ENDBRANCH  16  35
ENDBRANCH   1  16
BRANCH   1  37
HETATM   37  O4  UNL     1      19.978  27.351  12.963  1.00  0.00    -0.382 OA
ATOM     38  H4  UNL     1      19.796  27.601  13.861  1.00  0.00     0.211 HD
ENDBRANCH   1  37
BRANCH  14  39
HETATM   39  O8  UNL     1      22.416  28.993  14.828  1.00  0.00    -0.395 OA
ATOM     40  H8  UNL     1      22.759  28.160  14.527  1.00  0.00     0.210 HD
ENDBRANCH  14  39
BRANCH   8  41
HETATM   41  C25 UNL     1      21.190  32.622  14.716  1.00  0.00     0.013 C 
HETATM   42  C26 UNL     1      22.461  32.537  14.508  1.00  0.00     0.042 C 
BRANCH  42  43
HETATM   43  C27 UNL     1      23.456  33.037  15.468  1.00  0.00     0.258 C 
HETATM   44  O7  UNL     1      24.640  32.715  15.348  1.00  0.00    -0.302 OA
ENDBRANCH  42  43
ENDBRANCH   8  41
BRANCH   7  45
HETATM   45  O6  UNL     1      18.512  33.632  15.221  1.00  0.00    -0.364 OA
ATOM     46  H6  UNL     1      18.497  33.057  15.977  1.00  0.00     0.217 HD
ENDBRANCH   7  45
TORSDOF 19
ENDMDL
MODEL 5
REMARK VINA RESULT: -7.695965341      2.944      6.830
REMARK  19 active torsions:
REMARK  status: ('A' for Active; 'I' for Inactive)
REMARK    1  A    between atoms: C2_2  and  O2_4 
REMARK    2  A    between atoms: O2_4  and  C3_5 
REMARK    3  A    between atoms: C3_5  and  C4_6 
REMARK    4  A    between atoms: C4_6  and  C5_7 
REMARK    5  A    between atoms: C5_7  and  C6_8 
REMARK    6  A    between atoms: C7_9  and  C8_10 
REMARK    7  A    between atoms: C9_11  and  C10_12 
REMARK    8  A    between atoms: C10_12  and  C11_13 
REMARK    9  A    between atoms: C12_14  and  C13_15 
REMARK   10  A    between atoms: C14_16  and  C15_17 
REMARK   11  A    between atoms: C15_17  and  C16_18 
REMARK   12  A    between atoms: C16_18  and  C17_19 
REMARK   13  A    between atoms: C17_19  and  O3_20 
REMARK   14  A    between atoms: C17_19  and  C18_22 
REMARK   15  A    between atoms: C18_22  and  O4_23 
REMARK   16  A    between atoms: C23_30  and  O6_31 
REMARK   17  A    between atoms: C24_33  and  C25_34 
REMARK   18  A    between atoms: C26_35  and  C27_36 
REMARK   19  A    between atoms: C33_43  and  O8_44 
ROOT
HETATM    1  C18 UNL     1      19.387  38.301  17.735  1.00  0.00     0.115 C 
HETATM    2  C19 UNL     1      20.040  38.942  16.610  1.00  0.00     0.064 C 
HETATM    3  C20 UNL     1      19.912  40.415  16.280  1.00  0.00     0.153 C 
HETATM    4  O5  UNL     1      20.907  40.922  15.901  1.00  0.00    -0.293 OA
HETATM    5  C21 UNL     1      18.711  41.318  16.367  1.00  0.00     0.071 C 
HETATM    6  C22 UNL     1      18.808  42.581  17.079  1.00  0.00     0.077 C 
HETATM    7  C23 UNL     1      18.158  42.755  18.426  1.00  0.00     0.051 C 
HETATM    8  C24 UNL     1      17.925  41.528  19.287  1.00  0.00    -0.020 C 
HETATM    9  C28 UNL     1      18.503  40.400  18.533  1.00  0.00    -0.001 C 
HETATM   10  C29 UNL     1      19.887  40.619  18.879  1.00  0.00     0.021 C 
HETATM   11  C30 UNL     1      17.834  40.460  17.202  1.00  0.00     0.011 C 
HETATM   12  C31 UNL     1      16.394  40.490  17.127  1.00  0.00     0.009 C 
HETATM   13  C32 UNL     1      15.933  39.190  17.814  1.00  0.00     0.032 C 
HETATM   14  C33 UNL     1      16.976  38.375  18.424  1.00  0.00     0.126 C 
HETATM   15  C34 UNL     1      18.366  38.942  18.684  1.00  0.00     0.069 C 
ENDROOT
BRANCH   1  16
HETATM   16  C17 UNL     1      20.373  37.505  18.646  1.00  0.00     0.179 C 
BRANCH  16  17
HETATM   17  C16 UNL     1      21.279  36.652  17.990  1.00  0.00     0.008 C 
BRANCH  17  18
HETATM   18  C15 UNL     1      21.609  35.391  17.934  1.00  0.00    -0.001 C 
BRANCH  18  19
HETATM   19  C14 UNL     1      20.843  34.451  17.157  1.00  0.00    -0.000 C 
HETATM   20  C13 UNL     1      21.411  33.415  16.580  1.00  0.00    -0.000 C 
BRANCH  20  21
HETATM   21  C12 UNL     1      22.807  33.063  16.624  1.00  0.00    -0.004 C 
HETATM   22  C11 UNL     1      23.478  32.519  15.614  1.00  0.00    -0.023 C 
BRANCH  22  23
HETATM   23  C10 UNL     1      22.927  32.192  14.286  1.00  0.00     0.054 C 
BRANCH  23  24
HETATM   24  C9  UNL     1      22.258  30.886  14.250  1.00  0.00    -0.023 C 
HETATM   25  C8  UNL     1      21.177  30.660  13.541  1.00  0.00    -0.004 C 
BRANCH  25  26
HETATM   26  C7  UNL     1      20.503  31.613  12.720  1.00  0.00    -0.004 C 
HETATM   27  C6  UNL     1      19.392  32.222  12.988  1.00  0.00    -0.027 C 
BRANCH  27  28
HETATM   28  C5  UNL     1      18.631  32.015  14.230  1.00  0.00     0.029 C 
BRANCH  28  29
HETATM   29  C4  UNL     1      17.984  33.346  14.623  1.00  0.00     0.030 C 
BRANCH  29  30
HETATM   30  C3  UNL     1      17.452  33.248  16.016  1.00  0.00     0.179 C 
BRANCH  30  31
HETATM   31  O2  UNL     1      17.376  34.493  16.664  1.00  0.00    -0.322 OA
BRANCH  31  32
HETATM   32  C2  UNL     1      16.788  34.658  17.897  1.00  0.00     0.254 C 
HETATM   33  C1  UNL     1      15.338  34.405  18.100  1.00  0.00     0.126 C 
HETATM   34  O1  UNL     1      17.504  35.027  18.862  1.00  0.00    -0.266 OA
ENDBRANCH  31  32
ENDBRANCH  30  31
ENDBRANCH  29  30
ENDBRANCH  28  29
ENDBRANCH  27  28
ENDBRANCH  25  26
ENDBRANCH  23  24
ENDBRANCH  22  23
ENDBRANCH  20  21
ENDBRANCH  18  19
ENDBRANCH  17  18
ENDBRANCH  16  17
BRANCH  16  35
HETATM   35  O3  UNL     1      19.616  36.864  19.648  1.00  0.00    -0.388 OA
ATOM     36  H3  UNL     1      18.880  37.378  19.958  1.00  0.00     0.210 HD
ENDBRANCH  16  35
ENDBRANCH   1  16
BRANCH   1  37
HETATM   37  O4  UNL     1      18.833  37.152  17.120  1.00  0.00    -0.382 OA
ATOM     38  H4  UNL     1      18.554  37.607  16.334  1.00  0.00     0.211 HD
ENDBRANCH   1  37
BRANCH  14  39
HETATM   39  O8  UNL     1      16.457  37.738  19.596  1.00  0.00    -0.395 OA
ATOM     40  H8  UNL     1      16.770  36.842  19.632  1.00  0.00     0.210 HD
ENDBRANCH  14  39
BRANCH   8  41
HETATM   41  C25 UNL     1      16.919  41.482  20.270  1.00  0.00     0.013 C 
HETATM   42  C26 UNL     1      16.797  40.783  21.347  1.00  0.00     0.042 C 
BRANCH  42  43
HETATM   43  C27 UNL     1      15.635  40.902  22.241  1.00  0.00     0.258 C 
HETATM   44  O7  UNL     1      15.522  40.143  23.205  1.00  0.00    -0.302 OA
ENDBRANCH  42  43
ENDBRANCH   8  41
BRANCH   7  45
HETATM   45  O6  UNL     1      17.097  43.648  18.341  1.00  0.00    -0.364 OA
ATOM     46  H6  UNL     1      17.416  44.542  18.346  1.00  0.00     0.217 HD
ENDBRANCH   7  45
TORSDOF 19
ENDMDL
