MODEL 1
REMARK VINA RESULT: -8.771318892      0.000      0.000
REMARK  17 active torsions:
REMARK  status: ('A' for Active; 'I' for Inactive)
REMARK    1  A    between atoms: C2_2  and  C3_3 
REMARK    2  A    between atoms: C3_3  and  C5_5 
REMARK    3  A    between atoms: C5_5  and  C6_6 
REMARK    4  A    between atoms: C6_6  and  C7_7 
REMARK    5  A    between atoms: C7_7  and  N1_8 
REMARK    6  A    between atoms: C7_7  and  C23_35 
REMARK    7  A    between atoms: N1_8  and  C8_10 
REMARK    8  A    between atoms: C8_10  and  O1_11 
REMARK    9  A    between atoms: C8_10  and  C15_23 
REMARK   10  A    between atoms: O1_11  and  C9_12 
REMARK   11  A    between atoms: C9_12  and  C10_13 
REMARK   12  A    between atoms: C13_16  and  N2_17 
REMARK       I    between atoms: C15_23  and  N3_25 
REMARK   13  A    between atoms: C18_28  and  C19_29 
REMARK   14  A    between atoms: C19_29  and  O4_31 
REMARK   15  A    between atoms: C23_35  and  O5_36 
REMARK   16  A    between atoms: C23_35  and  N4_38 
REMARK   17  A    between atoms: N4_38  and  C24_40 
ROOT
HETATM    1  C8  UNL     1      19.552  31.854  13.577  1.00  0.00     0.310 C 
ENDROOT
BRANCH   1   2
HETATM    2  N1  UNL     1      19.287  30.616  14.120  1.00  0.00    -0.378 N 
ATOM      3  H1  UNL     1      18.742  30.631  14.982  1.00  0.00     0.157 HD
BRANCH   2   4
HETATM    4  C7  UNL     1      19.645  29.358  13.677  1.00  0.00     0.153 C 
BRANCH   4   5
HETATM    5  C6  UNL     1      18.667  28.320  14.240  1.00  0.00     0.033 C 
BRANCH   5   6
HETATM    6  C5  UNL     1      17.642  27.862  13.217  1.00  0.00     0.007 C 
BRANCH   6   7
HETATM    7  C3  UNL     1      18.270  27.591  11.889  1.00  0.00    -0.019 C 
HETATM    8  C4  UNL     1      18.291  26.104  11.562  1.00  0.00     0.010 C 
BRANCH   7   9
HETATM    9  C2  UNL     1      17.581  28.296  10.756  1.00  0.00    -0.000 C 
HETATM   10  C1  UNL     1      16.628  29.371  11.299  1.00  0.00     0.005 C 
ENDBRANCH   7   9
ENDBRANCH   6   7
ENDBRANCH   5   6
ENDBRANCH   4   5
BRANCH   4  11
HETATM   11  C23 UNL     1      20.991  28.932  14.158  1.00  0.00     0.134 C 
BRANCH  11  12
HETATM   12  O5  UNL     1      20.944  28.385  15.341  1.00  0.00    -0.348 OA
ATOM     13  H5  UNL     1      21.792  28.065  15.624  1.00  0.00     0.219 HD
ENDBRANCH  11  12
BRANCH  11  14
HETATM   14  N4  UNL     1      22.205  29.060  13.496  1.00  0.00    -0.368 N 
ATOM     15  H4  UNL     1      22.882  29.717  13.883  1.00  0.00     0.161 HD
BRANCH  14  16
HETATM   16  C24 UNL     1      22.596  28.330  12.290  1.00  0.00     0.083 C 
HETATM   17  C25 UNL     1      24.105  28.010  12.333  1.00  0.00     0.025 C 
HETATM   18  C26 UNL     1      24.449  27.465  10.974  1.00  0.00     0.002 C 
HETATM   19  C27 UNL     1      23.684  26.195  10.662  1.00  0.00     0.000 C 
HETATM   20  C28 UNL     1      22.205  26.371  10.866  1.00  0.00     0.002 C 
HETATM   21  C29 UNL     1      21.858  27.051  12.147  1.00  0.00     0.025 C 
ENDBRANCH  14  16
ENDBRANCH  11  14
ENDBRANCH   4  11
ENDBRANCH   2   4
ENDBRANCH   1   2
BRANCH   1  22
HETATM   22  O1  UNL     1      18.673  32.892  13.964  1.00  0.00    -0.358 OA
BRANCH  22  23
HETATM   23  C9  UNL     1      17.537  32.457  14.583  1.00  0.00     0.176 C 
BRANCH  23  24
HETATM   24  C10 UNL     1      16.974  33.331  15.661  1.00  0.00     0.019 C 
HETATM   25  C11 UNL     1      16.516  34.660  15.128  1.00  0.00     0.010 C 
HETATM   26  C12 UNL     1      16.519  35.741  16.161  1.00  0.00     0.044 C 
HETATM   27  C13 UNL     1      16.329  35.310  17.572  1.00  0.00     0.244 C 
HETATM   28  S1  UNL     1      15.222  33.884  17.607  1.00  0.00    -0.136 SA
HETATM   29  C14 UNL     1      15.821  32.666  16.421  1.00  0.00     0.082 C 
BRANCH  27  30
HETATM   30  N2  UNL     1      17.538  35.130  18.339  1.00  0.00    -0.066 N 
ATOM     31  H23 UNL     1      18.263  34.716  17.753  1.00  0.00     0.275 HD
ATOM     32  H22 UNL     1      17.961  36.035  18.540  1.00  0.00     0.275 HD
ATOM     33  H21 UNL     1      17.438  34.594  19.201  1.00  0.00     0.275 HD
ENDBRANCH  27  30
ENDBRANCH  23  24
ENDBRANCH  22  23
ENDBRANCH   1  22
BRANCH   1  34
HETATM   34  C15 UNL     1      20.955  32.271  13.950  1.00  0.00     0.268 C 
HETATM   35  O2  UNL     1      21.784  32.402  13.030  1.00  0.00    -0.268 OA
HETATM   36  N3  UNL     1      21.379  32.527  15.273  1.00  0.00    -0.348 N 
HETATM   37  C16 UNL     1      22.784  32.924  15.522  1.00  0.00     0.127 C 
HETATM   38  C22 UNL     1      20.570  32.500  16.468  1.00  0.00     0.127 C 
HETATM   39  C17 UNL     1      22.775  33.985  16.589  1.00  0.00     0.034 C 
HETATM   40  C18 UNL     1      21.510  34.805  16.637  1.00  0.00     0.088 C 
HETATM   41  C21 UNL     1      20.292  33.941  16.895  1.00  0.00     0.034 C 
BRANCH  40  42
HETATM   42  C19 UNL     1      21.608  35.726  17.802  1.00  0.00     0.262 C 
HETATM   43  O3  UNL     1      22.523  36.573  17.890  1.00  0.00    -0.265 OA
BRANCH  42  44
HETATM   44  O4  UNL     1      20.683  35.686  18.845  1.00  0.00    -0.326 OA
HETATM   45  C20 UNL     1      21.005  35.794  20.203  1.00  0.00     0.213 C 
ENDBRANCH  42  44
ENDBRANCH  40  42
ENDBRANCH   1  34
TORSDOF 17
ENDMDL
MODEL 2
REMARK VINA RESULT: -8.683152315      2.436      7.399
REMARK  17 active torsions:
REMARK  status: ('A' for Active; 'I' for Inactive)
REMARK    1  A    between atoms: C2_2  and  C3_3 
REMARK    2  A    between atoms: C3_3  and  C5_5 
REMARK    3  A    between atoms: C5_5  and  C6_6 
REMARK    4  A    between atoms: C6_6  and  C7_7 
REMARK    5  A    between atoms: C7_7  and  N1_8 
REMARK    6  A    between atoms: C7_7  and  C23_35 
REMARK    7  A    between atoms: N1_8  and  C8_10 
REMARK    8  A    between atoms: C8_10  and  O1_11 
REMARK    9  A    between atoms: C8_10  and  C15_23 
REMARK   10  A    between atoms: O1_11  and  C9_12 
REMARK   11  A    between atoms: C9_12  and  C10_13 
REMARK   12  A    between atoms: C13_16  and  N2_17 
REMARK       I    between atoms: C15_23  and  N3_25 
REMARK   13  A    between atoms: C18_28  and  C19_29 
REMARK   14  A    between atoms: C19_29  and  O4_31 
REMARK   15  A    between atoms: C23_35  and  O5_36 
REMARK   16  A    between atoms: C23_35  and  N4_38 
REMARK   17  A    between atoms: N4_38  and  C24_40 
ROOT
HETATM    1  C8  UNL     1      18.680  29.256  13.988  1.00  0.00     0.310 C 
ENDROOT
BRANCH   1   2
HETATM    2  N1  UNL     1      20.017  29.583  13.954  1.00  0.00    -0.378 N 
ATOM      3  H1  UNL     1      20.492  29.551  14.857  1.00  0.00     0.157 HD
BRANCH   2   4
HETATM    4  C7  UNL     1      20.816  29.946  12.887  1.00  0.00     0.153 C 
BRANCH   4   5
HETATM    5  C6  UNL     1      22.162  29.219  12.985  1.00  0.00     0.033 C 
BRANCH   5   6
HETATM    6  C5  UNL     1      22.057  27.740  12.655  1.00  0.00     0.007 C 
BRANCH   6   7
HETATM    7  C3  UNL     1      22.760  27.408  11.379  1.00  0.00    -0.019 C 
HETATM    8  C4  UNL     1      23.348  28.646  10.715  1.00  0.00     0.010 C 
BRANCH   7   9
HETATM    9  C2  UNL     1      23.874  26.418  11.561  1.00  0.00    -0.000 C 
HETATM   10  C1  UNL     1      25.169  27.139  11.962  1.00  0.00     0.005 C 
ENDBRANCH   7   9
ENDBRANCH   6   7
ENDBRANCH   5   6
ENDBRANCH   4   5
BRANCH   4  11
HETATM   11  C23 UNL     1      21.152  31.399  12.880  1.00  0.00     0.134 C 
BRANCH  11  12
HETATM   12  O5  UNL     1      20.465  32.062  11.990  1.00  0.00    -0.348 OA
ATOM     13  H5  UNL     1      20.238  32.935  12.288  1.00  0.00     0.219 HD
ENDBRANCH  11  12
BRANCH  11  14
HETATM   14  N4  UNL     1      22.071  32.059  13.685  1.00  0.00    -0.368 N 
ATOM     15  H4  UNL     1      23.029  32.128  13.341  1.00  0.00     0.161 HD
BRANCH  14  16
HETATM   16  C24 UNL     1      21.781  32.664  14.985  1.00  0.00     0.083 C 
HETATM   17  C25 UNL     1      22.920  32.349  15.978  1.00  0.00     0.025 C 
HETATM   18  C26 UNL     1      22.433  32.817  17.322  1.00  0.00     0.002 C 
HETATM   19  C27 UNL     1      22.160  34.306  17.341  1.00  0.00     0.000 C 
HETATM   20  C28 UNL     1      21.256  34.722  16.214  1.00  0.00     0.002 C 
HETATM   21  C29 UNL     1      21.642  34.138  14.896  1.00  0.00     0.025 C 
ENDBRANCH  14  16
ENDBRANCH  11  14
ENDBRANCH   4  11
ENDBRANCH   2   4
ENDBRANCH   1   2
BRANCH   1  22
HETATM   22  O1  UNL     1      17.869  30.083  14.797  1.00  0.00    -0.358 OA
BRANCH  22  23
HETATM   23  C9  UNL     1      18.560  31.034  15.491  1.00  0.00     0.176 C 
BRANCH  23  24
HETATM   24  C10 UNL     1      17.825  32.292  15.836  1.00  0.00     0.019 C 
HETATM   25  C11 UNL     1      16.358  32.046  16.056  1.00  0.00     0.010 C 
HETATM   26  C12 UNL     1      15.515  33.255  15.808  1.00  0.00     0.044 C 
HETATM   27  C13 UNL     1      16.169  34.574  16.020  1.00  0.00     0.244 C 
HETATM   28  S1  UNL     1      17.356  34.432  17.374  1.00  0.00    -0.136 SA
HETATM   29  C14 UNL     1      18.408  33.002  17.062  1.00  0.00     0.082 C 
BRANCH  27  30
HETATM   30  N2  UNL     1      16.705  35.203  14.838  1.00  0.00    -0.066 N 
ATOM     31  H23 UNL     1      16.087  35.037  14.044  1.00  0.00     0.275 HD
ATOM     32  H22 UNL     1      16.629  36.217  14.918  1.00  0.00     0.275 HD
ATOM     33  H21 UNL     1      17.661  34.945  14.595  1.00  0.00     0.275 HD
ENDBRANCH  27  30
ENDBRANCH  23  24
ENDBRANCH  22  23
ENDBRANCH   1  22
BRANCH   1  34
HETATM   34  C15 UNL     1      18.123  29.289  12.584  1.00  0.00     0.268 C 
HETATM   35  O2  UNL     1      17.934  30.405  12.063  1.00  0.00    -0.268 OA
HETATM   36  N3  UNL     1      17.814  28.137  11.828  1.00  0.00    -0.348 N 
HETATM   37  C16 UNL     1      17.266  28.290  10.461  1.00  0.00     0.127 C 
HETATM   38  C22 UNL     1      18.018  26.762  12.213  1.00  0.00     0.127 C 
HETATM   39  C17 UNL     1      17.895  27.230   9.597  1.00  0.00     0.034 C 
HETATM   40  C18 UNL     1      19.264  26.793  10.052  1.00  0.00     0.088 C 
HETATM   41  C21 UNL     1      19.232  26.224  11.456  1.00  0.00     0.034 C 
BRANCH  40  42
HETATM   42  C19 UNL     1      19.701  25.675   9.171  1.00  0.00     0.262 C 
HETATM   43  O3  UNL     1      19.015  25.306   8.194  1.00  0.00    -0.265 OA
BRANCH  42  44
HETATM   44  O4  UNL     1      20.896  24.992   9.396  1.00  0.00    -0.326 OA
HETATM   45  C20 UNL     1      21.958  24.920   8.488  1.00  0.00     0.213 C 
ENDBRANCH  42  44
ENDBRANCH  40  42
ENDBRANCH   1  34
TORSDOF 17
ENDMDL
MODEL 3
REMARK VINA RESULT: -8.678834459      3.241      8.942
REMARK  17 active torsions:
REMARK  status: ('A' for Active; 'I' for Inactive)
REMARK    1  A    between atoms: C2_2  and  C3_3 
REMARK    2  A    between atoms: C3_3  and  C5_5 
REMARK    3  A    between atoms: C5_5  and  C6_6 
REMARK    4  A    between atoms: C6_6  and  C7_7 
REMARK    5  A    between atoms: C7_7  and  N1_8 
REMARK    6  A    between atoms: C7_7  and  C23_35 
REMARK    7  A    between atoms: N1_8  and  C8_10 
REMARK    8  A    between atoms: C8_10  and  O1_11 
REMARK    9  A    between atoms: C8_10  and  C15_23 
REMARK   10  A    between atoms: O1_11  and  C9_12 
REMARK   11  A    between atoms: C9_12  and  C10_13 
REMARK   12  A    between atoms: C13_16  and  N2_17 
REMARK       I    between atoms: C15_23  and  N3_25 
REMARK   13  A    between atoms: C18_28  and  C19_29 
REMARK   14  A    between atoms: C19_29  and  O4_31 
REMARK   15  A    between atoms: C23_35  and  O5_36 
REMARK   16  A    between atoms: C23_35  and  N4_38 
REMARK   17  A    between atoms: N4_38  and  C24_40 
ROOT
HETATM    1  C8  UNL     1      19.698  29.460  13.818  1.00  0.00     0.310 C 
ENDROOT
BRANCH   1   2
HETATM    2  N1  UNL     1      18.810  29.307  14.860  1.00  0.00    -0.378 N 
ATOM      3  H1  UNL     1      18.408  28.373  14.950  1.00  0.00     0.157 HD
BRANCH   2   4
HETATM    4  C7  UNL     1      18.379  30.221  15.801  1.00  0.00     0.153 C 
BRANCH   4   5
HETATM    5  C6  UNL     1      17.771  31.437  15.092  1.00  0.00     0.033 C 
BRANCH   5   6
HETATM    6  C5  UNL     1      16.542  31.977  15.803  1.00  0.00     0.007 C 
BRANCH   6   7
HETATM    7  C3  UNL     1      16.678  33.433  16.110  1.00  0.00    -0.019 C 
HETATM    8  C4  UNL     1      17.199  34.220  14.915  1.00  0.00     0.010 C 
BRANCH   7   9
HETATM    9  C2  UNL     1      15.387  34.067  16.543  1.00  0.00    -0.000 C 
HETATM   10  C1  UNL     1      15.397  34.315  18.059  1.00  0.00     0.005 C 
ENDBRANCH   7   9
ENDBRANCH   6   7
ENDBRANCH   5   6
ENDBRANCH   4   5
BRANCH   4  11
HETATM   11  C23 UNL     1      19.490  30.767  16.635  1.00  0.00     0.134 C 
BRANCH  11  12
HETATM   12  O5  UNL     1      20.158  29.827  17.246  1.00  0.00    -0.348 OA
ATOM     13  H5  UNL     1      20.765  30.175  17.887  1.00  0.00     0.219 HD
ENDBRANCH  11  12
BRANCH  11  14
HETATM   14  N4  UNL     1      19.846  32.098  16.802  1.00  0.00    -0.368 N 
ATOM     15  H4  UNL     1      19.268  32.662  17.424  1.00  0.00     0.161 HD
BRANCH  14  16
HETATM   16  C24 UNL     1      20.983  32.760  16.161  1.00  0.00     0.083 C 
HETATM   17  C25 UNL     1      22.191  32.780  17.121  1.00  0.00     0.025 C 
HETATM   18  C26 UNL     1      23.221  33.661  16.468  1.00  0.00     0.002 C 
HETATM   19  C27 UNL     1      23.665  33.115  15.127  1.00  0.00     0.000 C 
HETATM   20  C28 UNL     1      22.496  32.816  14.230  1.00  0.00     0.002 C 
HETATM   21  C29 UNL     1      21.398  32.073  14.914  1.00  0.00     0.025 C 
ENDBRANCH  14  16
ENDBRANCH  11  14
ENDBRANCH   4  11
ENDBRANCH   2   4
ENDBRANCH   1   2
BRANCH   1  22
HETATM   22  O1  UNL     1      20.612  28.398  13.633  1.00  0.00    -0.358 OA
BRANCH  22  23
HETATM   23  C9  UNL     1      21.900  28.802  13.426  1.00  0.00     0.176 C 
BRANCH  23  24
HETATM   24  C10 UNL     1      22.665  28.102  12.346  1.00  0.00     0.019 C 
HETATM   25  C11 UNL     1      24.093  27.848  12.741  1.00  0.00     0.010 C 
HETATM   26  C12 UNL     1      25.015  27.725  11.570  1.00  0.00     0.044 C 
HETATM   27  C13 UNL     1      24.413  27.237  10.301  1.00  0.00     0.244 C 
HETATM   28  S1  UNL     1      23.109  26.048  10.688  1.00  0.00    -0.136 SA
HETATM   29  C14 UNL     1      22.016  26.782  11.920  1.00  0.00     0.082 C 
BRANCH  27  30
HETATM   30  N2  UNL     1      24.012  28.258   9.365  1.00  0.00    -0.066 N 
ATOM     31  H23 UNL     1      23.223  28.785   9.741  1.00  0.00     0.275 HD
ATOM     32  H22 UNL     1      24.718  28.993   9.327  1.00  0.00     0.275 HD
ATOM     33  H21 UNL     1      23.796  27.935   8.422  1.00  0.00     0.275 HD
ENDBRANCH  27  30
ENDBRANCH  23  24
ENDBRANCH  22  23
ENDBRANCH   1  22
BRANCH   1  34
HETATM   34  C15 UNL     1      18.929  29.640  12.531  1.00  0.00     0.268 C 
HETATM   35  O2  UNL     1      18.984  30.754  11.975  1.00  0.00    -0.268 OA
HETATM   36  N3  UNL     1      18.162  28.625  11.919  1.00  0.00    -0.348 N 
HETATM   37  C16 UNL     1      17.442  28.918  10.658  1.00  0.00     0.127 C 
HETATM   38  C22 UNL     1      18.019  27.258  12.357  1.00  0.00     0.127 C 
HETATM   39  C17 UNL     1      17.562  27.705   9.774  1.00  0.00     0.034 C 
HETATM   40  C18 UNL     1      18.801  26.882  10.017  1.00  0.00     0.088 C 
HETATM   41  C21 UNL     1      18.861  26.368  11.442  1.00  0.00     0.034 C 
BRANCH  40  42
HETATM   42  C19 UNL     1      18.721  25.672   9.154  1.00  0.00     0.262 C 
HETATM   43  O3  UNL     1      19.725  25.226   8.558  1.00  0.00    -0.265 OA
BRANCH  42  44
HETATM   44  O4  UNL     1      17.522  24.982   8.972  1.00  0.00    -0.326 OA
HETATM   45  C20 UNL     1      16.996  24.609   7.730  1.00  0.00     0.213 C 
ENDBRANCH  42  44
ENDBRANCH  40  42
ENDBRANCH   1  34
TORSDOF 17
ENDMDL
MODEL 4
REMARK VINA RESULT: -8.655254591      2.414      7.423
REMARK  17 active torsions:
REMARK  status: ('A' for Active; 'I' for Inactive)
REMARK    1  A    between atoms: C2_2  and  C3_3 
REMARK    2  A    between atoms: C3_3  and  C5_5 
REMARK    3  A    between atoms: C5_5  and  C6_6 
REMARK    4  A    between atoms: C6_6  and  C7_7 
REMARK    5  A    between atoms: C7_7  and  N1_8 
REMARK    6  A    between atoms: C7_7  and  C23_35 
REMARK    7  A    between atoms: N1_8  and  C8_10 
REMARK    8  A    between atoms: C8_10  and  O1_11 
REMARK    9  A    between atoms: C8_10  and  C15_23 
REMARK   10  A    between atoms: O1_11  and  C9_12 
REMARK   11  A    between atoms: C9_12  and  C10_13 
REMARK   12  A    between atoms: C13_16  and  N2_17 
REMARK       I    between atoms: C15_23  and  N3_25 
REMARK   13  A    between atoms: C18_28  and  C19_29 
REMARK   14  A    between atoms: C19_29  and  O4_31 
REMARK   15  A    between atoms: C23_35  and  O5_36 
REMARK   16  A    between atoms: C23_35  and  N4_38 
REMARK   17  A    between atoms: N4_38  and  C24_40 
ROOT
HETATM    1  C8  UNL     1      19.156  29.431  14.123  1.00  0.00     0.310 C 
ENDROOT
BRANCH   1   2
HETATM    2  N1  UNL     1      20.465  29.073  13.885  1.00  0.00    -0.378 N 
ATOM      3  H1  UNL     1      20.819  28.318  14.473  1.00  0.00     0.157 HD
BRANCH   2   4
HETATM    4  C7  UNL     1      21.372  29.577  12.974  1.00  0.00     0.153 C 
BRANCH   4   5
HETATM    5  C6  UNL     1      22.696  28.813  13.094  1.00  0.00     0.033 C 
BRANCH   5   6
HETATM    6  C5  UNL     1      22.781  27.632  12.143  1.00  0.00     0.007 C 
BRANCH   6   7
HETATM    7  C3  UNL     1      24.026  27.677  11.317  1.00  0.00    -0.019 C 
HETATM    8  C4  UNL     1      25.246  27.218  12.104  1.00  0.00     0.010 C 
BRANCH   7   9
HETATM    9  C2  UNL     1      23.941  26.834  10.077  1.00  0.00    -0.000 C 
HETATM   10  C1  UNL     1      23.149  25.549  10.360  1.00  0.00     0.005 C 
ENDBRANCH   7   9
ENDBRANCH   6   7
ENDBRANCH   5   6
ENDBRANCH   4   5
BRANCH   4  11
HETATM   11  C23 UNL     1      21.718  31.006  13.226  1.00  0.00     0.134 C 
BRANCH  11  12
HETATM   12  O5  UNL     1      21.204  31.805  12.331  1.00  0.00    -0.348 OA
ATOM     13  H5  UNL     1      21.722  32.591  12.209  1.00  0.00     0.219 HD
ENDBRANCH  11  12
BRANCH  11  14
HETATM   14  N4  UNL     1      22.486  31.521  14.261  1.00  0.00    -0.368 N 
ATOM     15  H4  UNL     1      23.468  31.248  14.295  1.00  0.00     0.161 HD
BRANCH  14  16
HETATM   16  C24 UNL     1      22.006  32.423  15.308  1.00  0.00     0.083 C 
HETATM   17  C25 UNL     1      23.015  32.460  16.475  1.00  0.00     0.025 C 
HETATM   18  C26 UNL     1      22.340  33.228  17.578  1.00  0.00     0.002 C 
HETATM   19  C27 UNL     1      22.012  34.647  17.164  1.00  0.00     0.000 C 
HETATM   20  C28 UNL     1      21.249  34.688  15.869  1.00  0.00     0.002 C 
HETATM   21  C29 UNL     1      21.826  33.809  14.811  1.00  0.00     0.025 C 
ENDBRANCH  14  16
ENDBRANCH  11  14
ENDBRANCH   4  11
ENDBRANCH   2   4
ENDBRANCH   1   2
BRANCH   1  22
HETATM   22  O1  UNL     1      18.972  30.623  14.859  1.00  0.00    -0.358 OA
BRANCH  22  23
HETATM   23  C9  UNL     1      17.693  30.816  15.296  1.00  0.00     0.176 C 
BRANCH  23  24
HETATM   24  C10 UNL     1      17.324  32.202  15.724  1.00  0.00     0.019 C 
HETATM   25  C11 UNL     1      15.902  32.283  16.205  1.00  0.00     0.010 C 
HETATM   26  C12 UNL     1      15.312  33.651  16.070  1.00  0.00     0.044 C 
HETATM   27  C13 UNL     1      16.265  34.791  16.122  1.00  0.00     0.244 C 
HETATM   28  S1  UNL     1      17.613  34.380  17.252  1.00  0.00    -0.136 SA
HETATM   29  C14 UNL     1      18.256  32.756  16.807  1.00  0.00     0.082 C 
BRANCH  27  30
HETATM   30  N2  UNL     1      16.708  35.296  14.846  1.00  0.00    -0.066 N 
ATOM     31  H23 UNL     1      17.705  35.115  14.727  1.00  0.00     0.275 HD
ATOM     32  H22 UNL     1      16.328  34.721  14.094  1.00  0.00     0.275 HD
ATOM     33  H21 UNL     1      16.509  36.280  14.666  1.00  0.00     0.275 HD
ENDBRANCH  27  30
ENDBRANCH  23  24
ENDBRANCH  22  23
ENDBRANCH   1  22
BRANCH   1  34
HETATM   34  C15 UNL     1      18.435  29.584  12.804  1.00  0.00     0.268 C 
HETATM   35  O2  UNL     1      18.372  30.724  12.308  1.00  0.00    -0.268 OA
HETATM   36  N3  UNL     1      17.838  28.515  12.101  1.00  0.00    -0.348 N 
HETATM   37  C16 UNL     1      17.150  28.783  10.817  1.00  0.00     0.127 C 
HETATM   38  C22 UNL     1      17.854  27.118  12.461  1.00  0.00     0.127 C 
HETATM   39  C17 UNL     1      17.471  27.648   9.882  1.00  0.00     0.034 C 
HETATM   40  C18 UNL     1      18.793  26.977  10.154  1.00  0.00     0.088 C 
HETATM   41  C21 UNL     1      18.849  26.395  11.553  1.00  0.00     0.034 C 
BRANCH  40  42
HETATM   42  C19 UNL     1      18.915  25.817   9.229  1.00  0.00     0.262 C 
HETATM   43  O3  UNL     1      20.013  25.492   8.729  1.00  0.00    -0.265 OA
BRANCH  42  44
HETATM   44  O4  UNL     1      17.809  25.043   8.879  1.00  0.00    -0.326 OA
HETATM   45  C20 UNL     1      17.437  24.728   7.567  1.00  0.00     0.213 C 
ENDBRANCH  42  44
ENDBRANCH  40  42
ENDBRANCH   1  34
TORSDOF 17
ENDMDL
MODEL 5
REMARK VINA RESULT: -8.615216239      2.561      7.153
REMARK  17 active torsions:
REMARK  status: ('A' for Active; 'I' for Inactive)
REMARK    1  A    between atoms: C2_2  and  C3_3 
REMARK    2  A    between atoms: C3_3  and  C5_5 
REMARK    3  A    between atoms: C5_5  and  C6_6 
REMARK    4  A    between atoms: C6_6  and  C7_7 
REMARK    5  A    between atoms: C7_7  and  N1_8 
REMARK    6  A    between atoms: C7_7  and  C23_35 
REMARK    7  A    between atoms: N1_8  and  C8_10 
REMARK    8  A    between atoms: C8_10  and  O1_11 
REMARK    9  A    between atoms: C8_10  and  C15_23 
REMARK   10  A    between atoms: O1_11  and  C9_12 
REMARK   11  A    between atoms: C9_12  and  C10_13 
REMARK   12  A    between atoms: C13_16  and  N2_17 
REMARK       I    between atoms: C15_23  and  N3_25 
REMARK   13  A    between atoms: C18_28  and  C19_29 
REMARK   14  A    between atoms: C19_29  and  O4_31 
REMARK   15  A    between atoms: C23_35  and  O5_36 
REMARK   16  A    between atoms: C23_35  and  N4_38 
REMARK   17  A    between atoms: N4_38  and  C24_40 
ROOT
HETATM    1  C8  UNL     1      21.391  30.900  14.338  1.00  0.00     0.310 C 
ENDROOT
BRANCH   1   2
HETATM    2  N1  UNL     1      20.091  31.025  13.899  1.00  0.00    -0.378 N 
ATOM      3  H1  UNL     1      19.987  31.164  12.894  1.00  0.00     0.157 HD
BRANCH   2   4
HETATM    4  C7  UNL     1      18.907  30.991  14.610  1.00  0.00     0.153 C 
BRANCH   4   5
HETATM    5  C6  UNL     1      17.995  29.902  14.032  1.00  0.00     0.033 C 
BRANCH   5   6
HETATM    6  C5  UNL     1      17.751  30.070  12.541  1.00  0.00     0.007 C 
BRANCH   6   7
HETATM    7  C3  UNL     1      18.040  28.812  11.789  1.00  0.00    -0.019 C 
HETATM    8  C4  UNL     1      17.796  27.572  12.640  1.00  0.00     0.010 C 
BRANCH   7   9
HETATM    9  C2  UNL     1      17.221  28.673  10.538  1.00  0.00    -0.000 C 
HETATM   10  C1  UNL     1      17.987  27.853   9.489  1.00  0.00     0.005 C 
ENDBRANCH   7   9
ENDBRANCH   6   7
ENDBRANCH   5   6
ENDBRANCH   4   5
BRANCH   4  11
HETATM   11  C23 UNL     1      18.126  32.257  14.501  1.00  0.00     0.134 C 
BRANCH  11  12
HETATM   12  O5  UNL     1      18.732  33.152  13.769  1.00  0.00    -0.348 OA
ATOM     13  H5  UNL     1      18.334  34.010  13.847  1.00  0.00     0.219 HD
ENDBRANCH  11  12
BRANCH  11  14
HETATM   14  N4  UNL     1      16.893  32.543  15.073  1.00  0.00    -0.368 N 
ATOM     15  H4  UNL     1      16.099  31.975  14.780  1.00  0.00     0.161 HD
BRANCH  14  16
HETATM   16  C24 UNL     1      16.638  33.590  16.063  1.00  0.00     0.083 C 
HETATM   17  C25 UNL     1      16.266  34.908  15.352  1.00  0.00     0.025 C 
HETATM   18  C26 UNL     1      16.240  35.961  16.425  1.00  0.00     0.002 C 
HETATM   19  C27 UNL     1      15.202  35.663  17.487  1.00  0.00     0.000 C 
HETATM   20  C28 UNL     1      15.349  34.272  18.036  1.00  0.00     0.002 C 
HETATM   21  C29 UNL     1      15.530  33.232  16.981  1.00  0.00     0.025 C 
ENDBRANCH  14  16
ENDBRANCH  11  14
ENDBRANCH   4  11
ENDBRANCH   2   4
ENDBRANCH   1   2
BRANCH   1  22
HETATM   22  O1  UNL     1      22.262  30.196  13.476  1.00  0.00    -0.358 OA
BRANCH  22  23
HETATM   23  C9  UNL     1      21.643  29.633  12.397  1.00  0.00     0.176 C 
BRANCH  23  24
HETATM   24  C10 UNL     1      22.324  28.464  11.757  1.00  0.00     0.019 C 
HETATM   25  C11 UNL     1      23.587  28.083  12.478  1.00  0.00     0.010 C 
HETATM   26  C12 UNL     1      24.574  27.378  11.603  1.00  0.00     0.044 C 
HETATM   27  C13 UNL     1      24.016  26.610  10.459  1.00  0.00     0.244 C 
HETATM   28  S1  UNL     1      22.419  25.917  10.940  1.00  0.00    -0.136 SA
HETATM   29  C14 UNL     1      21.414  27.236  11.648  1.00  0.00     0.082 C 
BRANCH  27  30
HETATM   30  N2  UNL     1      23.995  27.299   9.193  1.00  0.00    -0.066 N 
ATOM     31  H23 UNL     1      23.057  27.265   8.793  1.00  0.00     0.275 HD
ATOM     32  H22 UNL     1      24.093  28.303   9.342  1.00  0.00     0.275 HD
ATOM     33  H21 UNL     1      24.678  26.982   8.505  1.00  0.00     0.275 HD
ENDBRANCH  27  30
ENDBRANCH  23  24
ENDBRANCH  22  23
ENDBRANCH   1  22
BRANCH   1  34
HETATM   34  C15 UNL     1      21.973  32.275  14.565  1.00  0.00     0.268 C 
HETATM   35  O2  UNL     1      22.489  32.853  13.590  1.00  0.00    -0.268 OA
HETATM   36  N3  UNL     1      21.961  32.943  15.809  1.00  0.00    -0.348 N 
HETATM   37  C16 UNL     1      22.568  34.290  15.917  1.00  0.00     0.127 C 
HETATM   38  C22 UNL     1      21.359  32.485  17.038  1.00  0.00     0.127 C 
HETATM   39  C17 UNL     1      21.687  35.117  16.814  1.00  0.00     0.034 C 
HETATM   40  C18 UNL     1      20.237  34.702  16.810  1.00  0.00     0.088 C 
HETATM   41  C21 UNL     1      20.064  33.265  17.262  1.00  0.00     0.034 C 
BRANCH  40  42
HETATM   42  C19 UNL     1      19.523  35.533  17.818  1.00  0.00     0.262 C 
HETATM   43  O3  UNL     1      18.803  35.016  18.699  1.00  0.00    -0.265 OA
BRANCH  42  44
HETATM   44  O4  UNL     1      19.628  36.924  17.826  1.00  0.00    -0.326 OA
HETATM   45  C20 UNL     1      18.765  37.786  18.511  1.00  0.00     0.213 C 
ENDBRANCH  42  44
ENDBRANCH  40  42
ENDBRANCH   1  34
TORSDOF 17
ENDMDL
