MODEL 1
REMARK VINA RESULT: -8.115083311      0.000      0.000
REMARK  15 active torsions:
REMARK  status: ('A' for Active; 'I' for Inactive)
REMARK    1  A    between atoms: C2_2  and  C3_3 
REMARK    2  A    between atoms: C3_3  and  C4_4 
REMARK    3  A    between atoms: C4_4  and  C5_5 
REMARK    4  A    between atoms: C5_5  and  C6_6 
REMARK    5  A    between atoms: C6_6  and  C7_7 
REMARK    6  A    between atoms: C7_7  and  C8_8 
REMARK    7  A    between atoms: C8_8  and  C9_9 
REMARK    8  A    between atoms: C9_9  and  C10_10 
REMARK    9  A    between atoms: C10_10  and  C11_11 
REMARK   10  A    between atoms: C11_11  and  N1_12 
REMARK   11  A    between atoms: N1_12  and  S1_14 
REMARK   12  A    between atoms: S1_14  and  N2_17 
REMARK       I    between atoms: N2_17  and  C12_19 
REMARK   13  A    between atoms: N4_21  and  C13_23 
REMARK   14  A    between atoms: C23_35  and  C25_37 
REMARK   15  A    between atoms: C25_37  and  O5_39 
ROOT
HETATM    1  N2  UNL     1      22.153  30.494  11.934  1.00  0.00    -0.241 N 
ATOM      2  H2  UNL     1      22.608  30.977  11.160  1.00  0.00     0.183 HD
HETATM    3  C12 UNL     1      21.092  31.140  12.607  1.00  0.00     0.201 C 
HETATM    4  N3  UNL     1      20.086  31.749  11.831  1.00  0.00    -0.063 NA
HETATM    5  N4  UNL     1      21.071  31.153  13.913  1.00  0.00    -0.337 N 
ATOM      6  H4  UNL     1      21.824  30.694  14.425  1.00  0.00     0.164 HD
ENDROOT
BRANCH   5   7
HETATM    7  C13 UNL     1      20.025  31.790  14.643  1.00  0.00     0.226 C 
HETATM    8  O3  UNL     1      20.485  32.898  15.396  1.00  0.00    -0.366 OA
HETATM    9  C14 UNL     1      19.300  33.648  15.622  1.00  0.00     0.176 C 
HETATM   10  C15 UNL     1      18.574  32.987  16.731  1.00  0.00     0.022 C 
HETATM   11  C16 UNL     1      18.323  31.520  16.460  1.00  0.00    -0.000 C 
HETATM   12  C27 UNL     1      17.303  33.579  17.186  1.00  0.00     0.047 C 
HETATM   13  C17 UNL     1      16.946  31.228  15.936  1.00  0.00     0.006 C 
HETATM   14  C28 UNL     1      19.419  30.867  15.650  1.00  0.00     0.035 C 
HETATM   15  C18 UNL     1      16.297  32.392  15.212  1.00  0.00     0.007 C 
HETATM   16  C19 UNL     1      16.178  33.503  16.176  1.00  0.00     0.026 C 
HETATM   17  C20 UNL     1      16.044  34.876  15.637  1.00  0.00     0.224 C 
HETATM   18  C21 UNL     1      16.003  34.985  14.142  1.00  0.00     0.043 C 
HETATM   19  N5  UNL     1      17.137  35.642  16.233  1.00  0.00     0.108 N 
HETATM   20  C22 UNL     1      16.893  37.042  16.271  1.00  0.00     0.312 C 
HETATM   21  C23 UNL     1      17.280  35.024  17.534  1.00  0.00     0.246 C 
HETATM   22  C24 UNL     1      16.021  35.245  18.380  1.00  0.00     0.061 C 
HETATM   23  C29 UNL     1      18.955  29.621  14.952  1.00  0.00     0.015 C 
BRANCH  21  24
HETATM   24  C25 UNL     1      18.393  35.522  18.330  1.00  0.00     0.298 C 
HETATM   25  O4  UNL     1      18.737  34.845  19.336  1.00  0.00    -0.262 OA
BRANCH  24  26
HETATM   26  O5  UNL     1      19.102  36.671  18.076  1.00  0.00    -0.324 OA
HETATM   27  C26 UNL     1      20.458  36.615  17.639  1.00  0.00     0.213 C 
ENDBRANCH  24  26
ENDBRANCH  21  24
ENDBRANCH   5   7
BRANCH   1  28
HETATM   28  S1  UNL     1      22.709  28.926  12.366  1.00  0.00     0.321 S 
HETATM   29  O1  UNL     1      24.045  29.128  13.060  1.00  0.00    -0.182 OA
HETATM   30  O2  UNL     1      21.783  28.274  13.335  1.00  0.00    -0.182 OA
BRANCH  28  31
HETATM   31  N1  UNL     1      22.937  27.905  10.993  1.00  0.00    -0.302 N 
ATOM     32  H1  UNL     1      22.614  28.110  10.047  1.00  0.00     0.173 HD
BRANCH  31  33
HETATM   33  C11 UNL     1      23.658  26.712  11.393  1.00  0.00     0.133 C 
BRANCH  33  34
HETATM   34  C10 UNL     1      23.085  25.480  10.714  1.00  0.00     0.020 C 
BRANCH  34  35
HETATM   35  C9  UNL     1      21.684  25.293  11.198  1.00  0.00     0.002 C 
BRANCH  35  36
HETATM   36  C8  UNL     1      20.768  25.066  10.038  1.00  0.00     0.000 C 
BRANCH  36  37
HETATM   37  C7  UNL     1      19.687  26.090  10.024  1.00  0.00     0.000 C 
BRANCH  37  38
HETATM   38  C6  UNL     1      18.374  25.419  10.380  1.00  0.00     0.000 C 
BRANCH  38  39
HETATM   39  C5  UNL     1      18.002  25.563  11.819  1.00  0.00     0.000 C 
BRANCH  39  40
HETATM   40  C4  UNL     1      18.457  26.897  12.361  1.00  0.00     0.000 C 
BRANCH  40  41
HETATM   41  C3  UNL     1      17.290  27.796  12.646  1.00  0.00    -0.000 C 
BRANCH  41  42
HETATM   42  C2  UNL     1      17.316  29.068  11.842  1.00  0.00    -0.005 C 
HETATM   43  C1  UNL     1      16.562  28.817  10.554  1.00  0.00     0.005 C 
ENDBRANCH  41  42
ENDBRANCH  40  41
ENDBRANCH  39  40
ENDBRANCH  38  39
ENDBRANCH  37  38
ENDBRANCH  36  37
ENDBRANCH  35  36
ENDBRANCH  34  35
ENDBRANCH  33  34
ENDBRANCH  31  33
ENDBRANCH  28  31
ENDBRANCH   1  28
TORSDOF 15
ENDMDL
MODEL 2
REMARK VINA RESULT: -8.025716802      0.655      1.220
REMARK  15 active torsions:
REMARK  status: ('A' for Active; 'I' for Inactive)
REMARK    1  A    between atoms: C2_2  and  C3_3 
REMARK    2  A    between atoms: C3_3  and  C4_4 
REMARK    3  A    between atoms: C4_4  and  C5_5 
REMARK    4  A    between atoms: C5_5  and  C6_6 
REMARK    5  A    between atoms: C6_6  and  C7_7 
REMARK    6  A    between atoms: C7_7  and  C8_8 
REMARK    7  A    between atoms: C8_8  and  C9_9 
REMARK    8  A    between atoms: C9_9  and  C10_10 
REMARK    9  A    between atoms: C10_10  and  C11_11 
REMARK   10  A    between atoms: C11_11  and  N1_12 
REMARK   11  A    between atoms: N1_12  and  S1_14 
REMARK   12  A    between atoms: S1_14  and  N2_17 
REMARK       I    between atoms: N2_17  and  C12_19 
REMARK   13  A    between atoms: N4_21  and  C13_23 
REMARK   14  A    between atoms: C23_35  and  C25_37 
REMARK   15  A    between atoms: C25_37  and  O5_39 
ROOT
HETATM    1  N2  UNL     1      22.143  30.468  11.938  1.00  0.00    -0.241 N 
ATOM      2  H2  UNL     1      22.577  30.935  11.143  1.00  0.00     0.183 HD
HETATM    3  C12 UNL     1      21.072  31.110  12.601  1.00  0.00     0.201 C 
HETATM    4  N3  UNL     1      20.043  31.666  11.815  1.00  0.00    -0.063 NA
HETATM    5  N4  UNL     1      21.065  31.168  13.905  1.00  0.00    -0.337 N 
ATOM      6  H4  UNL     1      21.835  30.747  14.424  1.00  0.00     0.164 HD
ENDROOT
BRANCH   5   7
HETATM    7  C13 UNL     1      20.010  31.804  14.625  1.00  0.00     0.226 C 
HETATM    8  O3  UNL     1      20.466  32.890  15.412  1.00  0.00    -0.366 OA
HETATM    9  C14 UNL     1      19.286  33.651  15.626  1.00  0.00     0.176 C 
HETATM   10  C15 UNL     1      18.526  32.976  16.703  1.00  0.00     0.022 C 
HETATM   11  C16 UNL     1      18.262  31.519  16.395  1.00  0.00    -0.000 C 
HETATM   12  C27 UNL     1      17.252  33.576  17.141  1.00  0.00     0.047 C 
HETATM   13  C17 UNL     1      16.895  31.256  15.834  1.00  0.00     0.006 C 
HETATM   14  C28 UNL     1      19.369  30.868  15.597  1.00  0.00     0.035 C 
HETATM   15  C18 UNL     1      16.277  32.444  15.120  1.00  0.00     0.007 C 
HETATM   16  C19 UNL     1      16.151  33.536  16.104  1.00  0.00     0.026 C 
HETATM   17  C20 UNL     1      16.047  34.921  15.592  1.00  0.00     0.224 C 
HETATM   18  C21 UNL     1      16.042  35.062  14.099  1.00  0.00     0.043 C 
HETATM   19  N5  UNL     1      17.135  35.660  16.229  1.00  0.00     0.108 N 
HETATM   20  C22 UNL     1      16.909  37.062  16.292  1.00  0.00     0.312 C 
HETATM   21  C23 UNL     1      17.240  35.012  17.519  1.00  0.00     0.246 C 
HETATM   22  C24 UNL     1      15.964  35.233  18.340  1.00  0.00     0.061 C 
HETATM   23  C29 UNL     1      18.905  29.643  14.863  1.00  0.00     0.015 C 
BRANCH  21  24
HETATM   24  C25 UNL     1      18.340  35.480  18.352  1.00  0.00     0.298 C 
HETATM   25  O4  UNL     1      18.663  34.768  19.341  1.00  0.00    -0.262 OA
BRANCH  24  26
HETATM   26  O5  UNL     1      19.059  36.632  18.148  1.00  0.00    -0.324 OA
HETATM   27  C26 UNL     1      20.433  36.583  17.770  1.00  0.00     0.213 C 
ENDBRANCH  24  26
ENDBRANCH  21  24
ENDBRANCH   5   7
BRANCH   1  28
HETATM   28  S1  UNL     1      22.744  28.931  12.419  1.00  0.00     0.321 S 
HETATM   29  O1  UNL     1      23.779  29.200  13.498  1.00  0.00    -0.182 OA
HETATM   30  O2  UNL     1      21.666  28.093  13.017  1.00  0.00    -0.182 OA
BRANCH  28  31
HETATM   31  N1  UNL     1      23.495  28.080  11.119  1.00  0.00    -0.302 N 
ATOM     32  H1  UNL     1      23.243  28.169  10.134  1.00  0.00     0.173 HD
BRANCH  31  33
HETATM   33  C11 UNL     1      24.538  27.220  11.643  1.00  0.00     0.133 C 
BRANCH  33  34
HETATM   34  C10 UNL     1      25.218  26.451  10.523  1.00  0.00     0.020 C 
BRANCH  34  35
HETATM   35  C9  UNL     1      24.203  26.182   9.460  1.00  0.00     0.002 C 
BRANCH  35  36
HETATM   36  C8  UNL     1      23.565  24.849   9.688  1.00  0.00     0.000 C 
BRANCH  36  37
HETATM   37  C7  UNL     1      22.101  24.925   9.423  1.00  0.00     0.000 C 
BRANCH  37  38
HETATM   38  C6  UNL     1      21.377  25.117  10.742  1.00  0.00     0.000 C 
BRANCH  38  39
HETATM   39  C5  UNL     1      20.255  26.100  10.668  1.00  0.00     0.000 C 
BRANCH  39  40
HETATM   40  C4  UNL     1      18.996  25.525  11.270  1.00  0.00     0.000 C 
BRANCH  40  41
HETATM   41  C3  UNL     1      18.170  26.592  11.928  1.00  0.00    -0.000 C 
BRANCH  41  42
HETATM   42  C2  UNL     1      18.548  27.982  11.490  1.00  0.00    -0.005 C 
HETATM   43  C1  UNL     1      17.294  28.829  11.506  1.00  0.00     0.005 C 
ENDBRANCH  41  42
ENDBRANCH  40  41
ENDBRANCH  39  40
ENDBRANCH  38  39
ENDBRANCH  37  38
ENDBRANCH  36  37
ENDBRANCH  35  36
ENDBRANCH  34  35
ENDBRANCH  33  34
ENDBRANCH  31  33
ENDBRANCH  28  31
ENDBRANCH   1  28
TORSDOF 15
ENDMDL
MODEL 3
REMARK VINA RESULT: -7.704476890      2.769      5.649
REMARK  15 active torsions:
REMARK  status: ('A' for Active; 'I' for Inactive)
REMARK    1  A    between atoms: C2_2  and  C3_3 
REMARK    2  A    between atoms: C3_3  and  C4_4 
REMARK    3  A    between atoms: C4_4  and  C5_5 
REMARK    4  A    between atoms: C5_5  and  C6_6 
REMARK    5  A    between atoms: C6_6  and  C7_7 
REMARK    6  A    between atoms: C7_7  and  C8_8 
REMARK    7  A    between atoms: C8_8  and  C9_9 
REMARK    8  A    between atoms: C9_9  and  C10_10 
REMARK    9  A    between atoms: C10_10  and  C11_11 
REMARK   10  A    between atoms: C11_11  and  N1_12 
REMARK   11  A    between atoms: N1_12  and  S1_14 
REMARK   12  A    between atoms: S1_14  and  N2_17 
REMARK       I    between atoms: N2_17  and  C12_19 
REMARK   13  A    between atoms: N4_21  and  C13_23 
REMARK   14  A    between atoms: C23_35  and  C25_37 
REMARK   15  A    between atoms: C25_37  and  O5_39 
ROOT
HETATM    1  N2  UNL     1      20.992  31.132  12.831  1.00  0.00    -0.241 N 
ATOM      2  H2  UNL     1      20.894  31.213  11.819  1.00  0.00     0.183 HD
HETATM    3  C12 UNL     1      20.846  32.295  13.621  1.00  0.00     0.201 C 
HETATM    4  N3  UNL     1      19.751  33.141  13.362  1.00  0.00    -0.063 NA
HETATM    5  N4  UNL     1      21.719  32.548  14.559  1.00  0.00    -0.337 N 
ATOM      6  H4  UNL     1      22.492  31.899  14.705  1.00  0.00     0.164 HD
ENDROOT
BRANCH   5   7
HETATM    7  C13 UNL     1      21.621  33.706  15.386  1.00  0.00     0.226 C 
HETATM    8  O3  UNL     1      21.836  34.908  14.666  1.00  0.00    -0.366 OA
HETATM    9  C14 UNL     1      21.232  35.892  15.493  1.00  0.00     0.176 C 
HETATM   10  C15 UNL     1      22.188  36.183  16.587  1.00  0.00     0.022 C 
HETATM   11  C16 UNL     1      22.605  34.935  17.333  1.00  0.00    -0.000 C 
HETATM   12  C27 UNL     1      21.813  37.196  17.590  1.00  0.00     0.047 C 
HETATM   13  C17 UNL     1      21.850  34.712  18.611  1.00  0.00     0.006 C 
HETATM   14  C28 UNL     1      22.666  33.707  16.454  1.00  0.00     0.035 C 
HETATM   15  C18 UNL     1      20.473  35.347  18.638  1.00  0.00     0.007 C 
HETATM   16  C19 UNL     1      20.652  36.802  18.478  1.00  0.00     0.026 C 
HETATM   17  C20 UNL     1      19.500  37.592  17.986  1.00  0.00     0.224 C 
HETATM   18  C21 UNL     1      18.240  36.817  17.738  1.00  0.00     0.043 C 
HETATM   19  N5  UNL     1      19.981  38.292  16.796  1.00  0.00     0.108 N 
HETATM   20  C22 UNL     1      19.236  39.463  16.488  1.00  0.00     0.312 C 
HETATM   21  C23 UNL     1      21.372  38.533  17.114  1.00  0.00     0.246 C 
HETATM   22  C24 UNL     1      21.496  39.481  18.313  1.00  0.00     0.061 C 
HETATM   23  C29 UNL     1      22.561  32.431  17.240  1.00  0.00     0.015 C 
BRANCH  21  24
HETATM   24  C25 UNL     1      22.150  39.136  16.041  1.00  0.00     0.298 C 
HETATM   25  O4  UNL     1      23.164  39.811  16.367  1.00  0.00    -0.262 OA
BRANCH  24  26
HETATM   26  O5  UNL     1      21.873  39.030  14.701  1.00  0.00    -0.324 OA
HETATM   27  C26 UNL     1      21.696  40.192  13.893  1.00  0.00     0.213 C 
ENDBRANCH  24  26
ENDBRANCH  21  24
ENDBRANCH   5   7
BRANCH   1  28
HETATM   28  S1  UNL     1      21.327  29.587  13.506  1.00  0.00     0.321 S 
HETATM   29  O1  UNL     1      22.773  29.279  13.158  1.00  0.00    -0.182 OA
HETATM   30  O2  UNL     1      21.206  29.609  14.991  1.00  0.00    -0.182 OA
BRANCH  28  31
HETATM   31  N1  UNL     1      20.316  28.350  12.853  1.00  0.00    -0.302 N 
ATOM     32  H1  UNL     1      20.610  27.645  12.176  1.00  0.00     0.173 HD
BRANCH  31  33
HETATM   33  C11 UNL     1      18.985  28.466  13.416  1.00  0.00     0.133 C 
BRANCH  33  34
HETATM   34  C10 UNL     1      18.069  29.240  12.484  1.00  0.00     0.020 C 
BRANCH  34  35
HETATM   35  C9  UNL     1      17.541  30.424  13.227  1.00  0.00     0.002 C 
BRANCH  35  36
HETATM   36  C8  UNL     1      17.763  30.247  14.695  1.00  0.00     0.000 C 
BRANCH  36  37
HETATM   37  C7  UNL     1      17.052  31.310  15.457  1.00  0.00     0.000 C 
BRANCH  37  38
HETATM   38  C6  UNL     1      18.058  32.046  16.322  1.00  0.00     0.000 C 
BRANCH  38  39
HETATM   39  C5  UNL     1      17.811  33.517  16.404  1.00  0.00     0.000 C 
BRANCH  39  40
HETATM   40  C4  UNL     1      17.076  34.007  15.180  1.00  0.00     0.000 C 
BRANCH  40  41
HETATM   41  C3  UNL     1      15.958  34.937  15.553  1.00  0.00    -0.000 C 
BRANCH  41  42
HETATM   42  C2  UNL     1      15.194  34.482  16.767  1.00  0.00    -0.005 C 
HETATM   43  C1  UNL     1      14.672  35.714  17.475  1.00  0.00     0.005 C 
ENDBRANCH  41  42
ENDBRANCH  40  41
ENDBRANCH  39  40
ENDBRANCH  38  39
ENDBRANCH  37  38
ENDBRANCH  36  37
ENDBRANCH  35  36
ENDBRANCH  34  35
ENDBRANCH  33  34
ENDBRANCH  31  33
ENDBRANCH  28  31
ENDBRANCH   1  28
TORSDOF 15
ENDMDL
MODEL 4
REMARK VINA RESULT: -7.703319425      2.747      4.946
REMARK  15 active torsions:
REMARK  status: ('A' for Active; 'I' for Inactive)
REMARK    1  A    between atoms: C2_2  and  C3_3 
REMARK    2  A    between atoms: C3_3  and  C4_4 
REMARK    3  A    between atoms: C4_4  and  C5_5 
REMARK    4  A    between atoms: C5_5  and  C6_6 
REMARK    5  A    between atoms: C6_6  and  C7_7 
REMARK    6  A    between atoms: C7_7  and  C8_8 
REMARK    7  A    between atoms: C8_8  and  C9_9 
REMARK    8  A    between atoms: C9_9  and  C10_10 
REMARK    9  A    between atoms: C10_10  and  C11_11 
REMARK   10  A    between atoms: C11_11  and  N1_12 
REMARK   11  A    between atoms: N1_12  and  S1_14 
REMARK   12  A    between atoms: S1_14  and  N2_17 
REMARK       I    between atoms: N2_17  and  C12_19 
REMARK   13  A    between atoms: N4_21  and  C13_23 
REMARK   14  A    between atoms: C23_35  and  C25_37 
REMARK   15  A    between atoms: C25_37  and  O5_39 
ROOT
HETATM    1  N2  UNL     1      18.807  27.755  14.251  1.00  0.00    -0.241 N 
ATOM      2  H2  UNL     1      18.783  26.945  14.870  1.00  0.00     0.183 HD
HETATM    3  C12 UNL     1      19.383  28.955  14.726  1.00  0.00     0.201 C 
HETATM    4  N3  UNL     1      20.627  28.880  15.384  1.00  0.00    -0.063 NA
HETATM    5  N4  UNL     1      18.756  30.086  14.543  1.00  0.00    -0.337 N 
ATOM      6  H4  UNL     1      17.859  30.082  14.058  1.00  0.00     0.164 HD
ENDROOT
BRANCH   5   7
HETATM    7  C13 UNL     1      19.291  31.326  15.002  1.00  0.00     0.226 C 
HETATM    8  O3  UNL     1      18.423  31.992  15.903  1.00  0.00    -0.366 OA
HETATM    9  C14 UNL     1      19.293  32.882  16.589  1.00  0.00     0.176 C 
HETATM   10  C15 UNL     1      19.520  34.040  15.694  1.00  0.00     0.022 C 
HETATM   11  C16 UNL     1      20.028  33.623  14.332  1.00  0.00    -0.000 C 
HETATM   12  C27 UNL     1      20.382  35.135  16.175  1.00  0.00     0.047 C 
HETATM   13  C17 UNL     1      21.517  33.741  14.178  1.00  0.00     0.006 C 
HETATM   14  C28 UNL     1      19.486  32.288  13.875  1.00  0.00     0.035 C 
HETATM   15  C18 UNL     1      22.285  33.648  15.483  1.00  0.00     0.007 C 
HETATM   16  C19 UNL     1      21.838  34.761  16.342  1.00  0.00     0.026 C 
HETATM   17  C20 UNL     1      22.043  34.633  17.803  1.00  0.00     0.224 C 
HETATM   18  C21 UNL     1      22.731  33.380  18.255  1.00  0.00     0.043 C 
HETATM   19  N5  UNL     1      20.721  34.804  18.402  1.00  0.00     0.108 N 
HETATM   20  C22 UNL     1      20.764  35.232  19.757  1.00  0.00     0.312 C 
HETATM   21  C23 UNL     1      20.085  35.739  17.499  1.00  0.00     0.246 C 
HETATM   22  C24 UNL     1      20.805  37.093  17.528  1.00  0.00     0.061 C 
HETATM   23  C29 UNL     1      20.348  31.645  12.828  1.00  0.00     0.015 C 
BRANCH  21  24
HETATM   24  C25 UNL     1      18.687  36.021  17.793  1.00  0.00     0.298 C 
HETATM   25  O4  UNL     1      18.230  37.138  17.429  1.00  0.00    -0.262 OA
BRANCH  24  26
HETATM   26  O5  UNL     1      17.821  35.168  18.432  1.00  0.00    -0.324 OA
HETATM   27  C26 UNL     1      16.503  34.950  17.934  1.00  0.00     0.213 C 
ENDBRANCH  24  26
ENDBRANCH  21  24
ENDBRANCH   5   7
BRANCH   1  28
HETATM   28  S1  UNL     1      18.146  27.605  12.671  1.00  0.00     0.321 S 
HETATM   29  O1  UNL     1      17.736  26.149  12.522  1.00  0.00    -0.182 OA
HETATM   30  O2  UNL     1      16.925  28.444  12.516  1.00  0.00    -0.182 OA
BRANCH  28  31
HETATM   31  N1  UNL     1      19.288  27.996  11.439  1.00  0.00    -0.302 N 
ATOM     32  H1  UNL     1      19.233  28.805  10.820  1.00  0.00     0.173 HD
BRANCH  31  33
HETATM   33  C11 UNL     1      20.339  26.997  11.419  1.00  0.00     0.133 C 
BRANCH  33  34
HETATM   34  C10 UNL     1      21.605  27.529  12.068  1.00  0.00     0.020 C 
BRANCH  34  35
HETATM   35  C9  UNL     1      22.044  28.738  11.307  1.00  0.00     0.002 C 
BRANCH  35  36
HETATM   36  C8  UNL     1      23.063  29.497  12.096  1.00  0.00     0.000 C 
BRANCH  36  37
HETATM   37  C7  UNL     1      23.733  28.598  13.076  1.00  0.00     0.000 C 
BRANCH  37  38
HETATM   38  C6  UNL     1      25.092  28.206  12.528  1.00  0.00     0.000 C 
BRANCH  38  39
HETATM   39  C5  UNL     1      25.152  26.797  12.036  1.00  0.00     0.000 C 
BRANCH  39  40
HETATM   40  C4  UNL     1      25.578  26.750  10.589  1.00  0.00     0.000 C 
BRANCH  40  41
HETATM   41  C3  UNL     1      24.436  26.360   9.697  1.00  0.00    -0.000 C 
BRANCH  41  42
HETATM   42  C2  UNL     1      23.698  25.142  10.185  1.00  0.00    -0.005 C 
HETATM   43  C1  UNL     1      22.538  24.896   9.245  1.00  0.00     0.005 C 
ENDBRANCH  41  42
ENDBRANCH  40  41
ENDBRANCH  39  40
ENDBRANCH  38  39
ENDBRANCH  37  38
ENDBRANCH  36  37
ENDBRANCH  35  36
ENDBRANCH  34  35
ENDBRANCH  33  34
ENDBRANCH  31  33
ENDBRANCH  28  31
ENDBRANCH   1  28
TORSDOF 15
ENDMDL
MODEL 5
REMARK VINA RESULT: -7.662432918      1.325      1.995
REMARK  15 active torsions:
REMARK  status: ('A' for Active; 'I' for Inactive)
REMARK    1  A    between atoms: C2_2  and  C3_3 
REMARK    2  A    between atoms: C3_3  and  C4_4 
REMARK    3  A    between atoms: C4_4  and  C5_5 
REMARK    4  A    between atoms: C5_5  and  C6_6 
REMARK    5  A    between atoms: C6_6  and  C7_7 
REMARK    6  A    between atoms: C7_7  and  C8_8 
REMARK    7  A    between atoms: C8_8  and  C9_9 
REMARK    8  A    between atoms: C9_9  and  C10_10 
REMARK    9  A    between atoms: C10_10  and  C11_11 
REMARK   10  A    between atoms: C11_11  and  N1_12 
REMARK   11  A    between atoms: N1_12  and  S1_14 
REMARK   12  A    between atoms: S1_14  and  N2_17 
REMARK       I    between atoms: N2_17  and  C12_19 
REMARK   13  A    between atoms: N4_21  and  C13_23 
REMARK   14  A    between atoms: C23_35  and  C25_37 
REMARK   15  A    between atoms: C25_37  and  O5_39 
ROOT
HETATM    1  N2  UNL     1      21.998  30.413  11.908  1.00  0.00    -0.241 N 
ATOM      2  H2  UNL     1      22.492  30.893  11.156  1.00  0.00     0.183 HD
HETATM    3  C12 UNL     1      20.959  31.096  12.580  1.00  0.00     0.201 C 
HETATM    4  N3  UNL     1      20.003  31.780  11.805  1.00  0.00    -0.063 NA
HETATM    5  N4  UNL     1      20.914  31.073  13.886  1.00  0.00    -0.337 N 
ATOM      6  H4  UNL     1      21.632  30.560  14.397  1.00  0.00     0.164 HD
ENDROOT
BRANCH   5   7
HETATM    7  C13 UNL     1      19.889  31.745  14.615  1.00  0.00     0.226 C 
HETATM    8  O3  UNL     1      20.389  32.818  15.392  1.00  0.00    -0.366 OA
HETATM    9  C14 UNL     1      19.237  33.617  15.618  1.00  0.00     0.176 C 
HETATM   10  C15 UNL     1      18.469  32.971  16.707  1.00  0.00     0.022 C 
HETATM   11  C16 UNL     1      18.155  31.522  16.408  1.00  0.00    -0.000 C 
HETATM   12  C27 UNL     1      17.220  33.613  17.158  1.00  0.00     0.047 C 
HETATM   13  C17 UNL     1      16.773  31.301  15.865  1.00  0.00     0.006 C 
HETATM   14  C28 UNL     1      19.231  30.833  15.599  1.00  0.00     0.035 C 
HETATM   15  C18 UNL     1      16.185  32.505  15.154  1.00  0.00     0.007 C 
HETATM   16  C19 UNL     1      16.105  33.604  16.135  1.00  0.00     0.026 C 
HETATM   17  C20 UNL     1      16.039  34.990  15.618  1.00  0.00     0.224 C 
HETATM   18  C21 UNL     1      16.021  35.126  14.125  1.00  0.00     0.043 C 
HETATM   19  N5  UNL     1      17.159  35.696  16.239  1.00  0.00     0.108 N 
HETATM   20  C22 UNL     1      16.978  37.105  16.299  1.00  0.00     0.312 C 
HETATM   21  C23 UNL     1      17.259  35.050  17.531  1.00  0.00     0.246 C 
HETATM   22  C24 UNL     1      16.001  35.314  18.366  1.00  0.00     0.061 C 
HETATM   23  C29 UNL     1      18.719  29.621  14.875  1.00  0.00     0.015 C 
BRANCH  21  24
HETATM   24  C25 UNL     1      18.383  35.485  18.348  1.00  0.00     0.298 C 
HETATM   25  O4  UNL     1      18.662  34.797  19.367  1.00  0.00    -0.262 OA
BRANCH  24  26
HETATM   26  O5  UNL     1      19.169  36.584  18.100  1.00  0.00    -0.324 OA
HETATM   27  C26 UNL     1      20.521  36.438  17.670  1.00  0.00     0.213 C 
ENDBRANCH  24  26
ENDBRANCH  21  24
ENDBRANCH   5   7
BRANCH   1  28
HETATM   28  S1  UNL     1      22.462  28.806  12.305  1.00  0.00     0.321 S 
HETATM   29  O1  UNL     1      23.858  28.903  12.894  1.00  0.00    -0.182 OA
HETATM   30  O2  UNL     1      21.564  28.227  13.344  1.00  0.00    -0.182 OA
BRANCH  28  31
HETATM   31  N1  UNL     1      22.504  27.772  10.924  1.00  0.00    -0.302 N 
ATOM     32  H1  UNL     1      22.551  28.086   9.954  1.00  0.00     0.173 HD
BRANCH  31  33
HETATM   33  C11 UNL     1      22.462  26.388  11.355  1.00  0.00     0.133 C 
BRANCH  33  34
HETATM   34  C10 UNL     1      21.589  25.559  10.429  1.00  0.00     0.020 C 
BRANCH  34  35
HETATM   35  C9  UNL     1      20.435  25.038  11.222  1.00  0.00     0.002 C 
BRANCH  35  36
HETATM   36  C8  UNL     1      19.367  26.080  11.317  1.00  0.00     0.000 C 
BRANCH  36  37
HETATM   37  C7  UNL     1      18.055  25.517  10.892  1.00  0.00     0.000 C 
BRANCH  37  38
HETATM   38  C6  UNL     1      17.583  26.261   9.658  1.00  0.00     0.000 C 
BRANCH  38  39
HETATM   39  C5  UNL     1      17.024  25.366   8.600  1.00  0.00     0.000 C 
BRANCH  39  40
HETATM   40  C4  UNL     1      18.115  24.874   7.681  1.00  0.00     0.000 C 
BRANCH  40  41
HETATM   41  C3  UNL     1      19.014  25.997   7.253  1.00  0.00    -0.000 C 
BRANCH  41  42
HETATM   42  C2  UNL     1      18.751  26.457   5.844  1.00  0.00    -0.005 C 
HETATM   43  C1  UNL     1      18.133  27.837   5.916  1.00  0.00     0.005 C 
ENDBRANCH  41  42
ENDBRANCH  40  41
ENDBRANCH  39  40
ENDBRANCH  38  39
ENDBRANCH  37  38
ENDBRANCH  36  37
ENDBRANCH  35  36
ENDBRANCH  34  35
ENDBRANCH  33  34
ENDBRANCH  31  33
ENDBRANCH  28  31
ENDBRANCH   1  28
TORSDOF 15
ENDMDL
