MODEL 1
REMARK VINA RESULT: -9.703243683      0.000      0.000
REMARK  10 active torsions:
REMARK  status: ('A' for Active; 'I' for Inactive)
REMARK    1  A    between atoms: O1_1  and  C1_3 
REMARK    2  A    between atoms: C1_3  and  N1_4 
REMARK    3  A    between atoms: C1_3  and  N3_27 
REMARK    4  A    between atoms: N1_4  and  C2_6 
REMARK    5  A    between atoms: C2_6  and  O2_7 
REMARK    6  A    between atoms: C8_14  and  O3_15 
REMARK    7  A    between atoms: O3_15  and  C9_16 
REMARK    8  A    between atoms: C9_16  and  C10_18 
REMARK    9  A    between atoms: C14_22  and  N2_23 
REMARK   10  A    between atoms: N3_27  and  C16_29 
ROOT
HETATM    1  C2  UNL     1      -6.254 -10.051  17.160  1.00  0.00     0.156 C 
HETATM    2  C3  UNL     1      -6.234 -11.219  17.792  1.00  0.00     0.049 A 
HETATM    3  C4  UNL     1      -7.531 -11.781  16.776  1.00  0.00     0.018 A 
HETATM    4  C5  UNL     1      -8.066 -12.908  16.830  1.00  0.00     0.001 A 
HETATM    5  C6  UNL     1      -7.711 -13.943  17.728  1.00  0.00     0.003 A 
HETATM    6  C7  UNL     1      -6.667 -13.552  18.577  1.00  0.00     0.038 A 
HETATM    7  C8  UNL     1      -6.214 -12.350  18.403  1.00  0.00     0.094 A 
ENDROOT
BRANCH   1   8
HETATM    8  N1  UNL     1      -6.612  -8.973  16.486  1.00  0.00    -0.302 N 
ATOM      9  H1  UNL     1      -5.943  -8.842  15.728  1.00  0.00     0.171 HD
BRANCH   8  10
HETATM   10  C1  UNL     1      -7.556  -7.939  16.408  1.00  0.00     0.223 C 
BRANCH  10  11
HETATM   11  O1  UNL     1      -7.624  -7.411  15.193  1.00  0.00    -0.332 OA
ATOM     12  H1  UNL     1      -8.443  -7.614  14.757  1.00  0.00     0.220 HD
ENDBRANCH  10  11
BRANCH  10  13
HETATM   13  N3  UNL     1      -8.458  -7.354  17.290  1.00  0.00    -0.330 N 
ATOM     14  H3  UNL     1      -8.902  -6.490  16.979  1.00  0.00     0.169 HD
BRANCH  13  15
HETATM   15  C16 UNL     1      -8.837  -7.837  18.605  1.00  0.00    -0.010 C 
HETATM   16  C17 UNL     1      -9.455  -9.214  18.611  1.00  0.00     0.052 C 
HETATM   17  C18 UNL     1      -9.162 -10.031  19.842  1.00  0.00     0.006 C 
HETATM   18  C19 UNL     1      -9.000  -9.378  21.131  1.00  0.00     0.000 C 
HETATM   19  C20 UNL     1     -10.014  -8.479  21.705  1.00  0.00     0.000 C 
HETATM   20  C21 UNL     1     -11.090  -7.948  20.780  1.00  0.00     0.000 C 
HETATM   21  C22 UNL     1     -10.668  -6.795  19.943  1.00  0.00     0.006 C 
HETATM   22  C23 UNL     1      -9.210  -6.818  19.545  1.00  0.00     0.052 C 
ENDBRANCH  13  15
ENDBRANCH  10  13
ENDBRANCH   8  10
ENDBRANCH   1   8
BRANCH   1  23
HETATM   23  O2  UNL     1      -4.724  -9.767  17.366  1.00  0.00    -0.345 OA
ATOM     24  H2  UNL     1      -4.603 -10.092  18.251  1.00  0.00     0.219 HD
ENDBRANCH   1  23
BRANCH   7  25
HETATM   25  O3  UNL     1      -5.070 -12.042  19.440  1.00  0.00    -0.274 OA
BRANCH  25  26
HETATM   26  C9  UNL     1      -5.312 -12.620  20.665  1.00  0.00     0.298 C 
HETATM   27  O4  UNL     1      -4.664 -13.642  20.996  1.00  0.00    -0.259 OA
BRANCH  26  28
HETATM   28  C10 UNL     1      -6.255 -12.104  21.623  1.00  0.00     0.042 A 
HETATM   29  C11 UNL     1      -6.172 -11.030  22.435  1.00  0.00     0.018 A 
HETATM   30  C12 UNL     1      -6.954 -10.848  23.506  1.00  0.00     0.003 A 
HETATM   31  C13 UNL     1      -7.953 -11.769  23.906  1.00  0.00     0.036 A 
HETATM   32  C14 UNL     1      -8.053 -12.877  23.084  1.00  0.00     0.103 A 
HETATM   33  C15 UNL     1      -7.250 -13.043  21.989  1.00  0.00     0.053 A 
BRANCH  32  34
HETATM   34  N2  UNL     1      -8.970 -13.938  23.483  1.00  0.00    -0.116 N 
HETATM   35  O5  UNL     1     -10.136 -13.700  23.783  1.00  0.00    -0.532 OA
HETATM   36  O6  UNL     1      -8.475 -15.221  23.592  1.00  0.00    -0.532 OA
ENDBRANCH  32  34
ENDBRANCH  26  28
ENDBRANCH  25  26
ENDBRANCH   7  25
TORSDOF 10
ENDMDL
MODEL 2
REMARK VINA RESULT: -9.638288716      2.495      6.191
REMARK  10 active torsions:
REMARK  status: ('A' for Active; 'I' for Inactive)
REMARK    1  A    between atoms: O1_1  and  C1_3 
REMARK    2  A    between atoms: C1_3  and  N1_4 
REMARK    3  A    between atoms: C1_3  and  N3_27 
REMARK    4  A    between atoms: N1_4  and  C2_6 
REMARK    5  A    between atoms: C2_6  and  O2_7 
REMARK    6  A    between atoms: C8_14  and  O3_15 
REMARK    7  A    between atoms: O3_15  and  C9_16 
REMARK    8  A    between atoms: C9_16  and  C10_18 
REMARK    9  A    between atoms: C14_22  and  N2_23 
REMARK   10  A    between atoms: N3_27  and  C16_29 
ROOT
HETATM    1  C2  UNL     1      -6.195 -13.640  18.280  1.00  0.00     0.156 C 
HETATM    2  C3  UNL     1      -6.991 -13.838  17.236  1.00  0.00     0.049 A 
HETATM    3  C4  UNL     1      -6.594 -15.533  17.268  1.00  0.00     0.018 A 
HETATM    4  C5  UNL     1      -7.030 -16.402  16.484  1.00  0.00     0.001 A 
HETATM    5  C6  UNL     1      -7.937 -16.168  15.423  1.00  0.00     0.003 A 
HETATM    6  C7  UNL     1      -8.298 -14.816  15.344  1.00  0.00     0.038 A 
HETATM    7  C8  UNL     1      -7.762 -14.032  16.225  1.00  0.00     0.094 A 
ENDROOT
BRANCH   1   8
HETATM    8  N1  UNL     1      -5.235 -13.718  19.183  1.00  0.00    -0.302 N 
ATOM      9  H1  UNL     1      -4.462 -14.243  18.773  1.00  0.00     0.171 HD
BRANCH   8  10
HETATM   10  C1  UNL     1      -4.866 -13.360  20.488  1.00  0.00     0.223 C 
BRANCH  10  11
HETATM   11  O1  UNL     1      -4.309 -14.368  21.147  1.00  0.00    -0.332 OA
ATOM     12  H1  UNL     1      -4.096 -14.138  22.044  1.00  0.00     0.220 HD
ENDBRANCH  10  11
BRANCH  10  13
HETATM   13  N3  UNL     1      -4.917 -12.196  21.247  1.00  0.00    -0.330 N 
ATOM     14  H3  UNL     1      -4.060 -11.644  21.291  1.00  0.00     0.169 HD
BRANCH  13  15
HETATM   15  C16 UNL     1      -6.056 -11.681  21.984  1.00  0.00    -0.010 C 
HETATM   16  C17 UNL     1      -7.142 -12.695  22.247  1.00  0.00     0.052 C 
HETATM   17  C18 UNL     1      -7.887 -12.500  23.541  1.00  0.00     0.006 C 
HETATM   18  C19 UNL     1      -8.096 -11.162  24.070  1.00  0.00     0.000 C 
HETATM   19  C20 UNL     1      -8.731 -10.085  23.292  1.00  0.00     0.000 C 
HETATM   20  C21 UNL     1      -8.850 -10.275  21.793  1.00  0.00     0.000 C 
HETATM   21  C22 UNL     1      -7.609  -9.973  21.035  1.00  0.00     0.006 C 
HETATM   22  C23 UNL     1      -6.332 -10.286  21.782  1.00  0.00     0.052 C 
ENDBRANCH  13  15
ENDBRANCH  10  13
ENDBRANCH   8  10
ENDBRANCH   1   8
BRANCH   1  23
HETATM   23  O2  UNL     1      -7.027 -12.434  18.847  1.00  0.00    -0.345 OA
ATOM     24  H2  UNL     1      -7.807 -12.491  18.307  1.00  0.00     0.219 HD
ENDBRANCH   1  23
BRANCH   7  25
HETATM   25  O3  UNL     1      -8.235 -12.549  15.997  1.00  0.00    -0.274 OA
BRANCH  25  26
HETATM   26  C9  UNL     1      -7.328 -11.823  15.259  1.00  0.00     0.298 C 
HETATM   27  O4  UNL     1      -7.091 -12.166  14.076  1.00  0.00    -0.259 OA
BRANCH  26  28
HETATM   28  C10 UNL     1      -6.642 -10.657  15.753  1.00  0.00     0.042 A 
HETATM   29  C11 UNL     1      -5.508 -10.557  16.476  1.00  0.00     0.018 A 
HETATM   30  C12 UNL     1      -5.157  -9.456  17.153  1.00  0.00     0.003 A 
HETATM   31  C13 UNL     1      -5.943  -8.279  17.187  1.00  0.00     0.036 A 
HETATM   32  C14 UNL     1      -7.110  -8.364  16.450  1.00  0.00     0.103 A 
HETATM   33  C15 UNL     1      -7.449  -9.494  15.758  1.00  0.00     0.053 A 
BRANCH  32  34
HETATM   34  N2  UNL     1      -8.043  -7.246  16.523  1.00  0.00    -0.116 N 
HETATM   35  O5  UNL     1      -8.823  -7.121  17.461  1.00  0.00    -0.532 OA
HETATM   36  O6  UNL     1      -8.085  -6.361  15.465  1.00  0.00    -0.532 OA
ENDBRANCH  32  34
ENDBRANCH  26  28
ENDBRANCH  25  26
ENDBRANCH   7  25
TORSDOF 10
ENDMDL
MODEL 3
REMARK VINA RESULT: -9.600650747      1.983      2.507
REMARK  10 active torsions:
REMARK  status: ('A' for Active; 'I' for Inactive)
REMARK    1  A    between atoms: O1_1  and  C1_3 
REMARK    2  A    between atoms: C1_3  and  N1_4 
REMARK    3  A    between atoms: C1_3  and  N3_27 
REMARK    4  A    between atoms: N1_4  and  C2_6 
REMARK    5  A    between atoms: C2_6  and  O2_7 
REMARK    6  A    between atoms: C8_14  and  O3_15 
REMARK    7  A    between atoms: O3_15  and  C9_16 
REMARK    8  A    between atoms: C9_16  and  C10_18 
REMARK    9  A    between atoms: C14_22  and  N2_23 
REMARK   10  A    between atoms: N3_27  and  C16_29 
ROOT
HETATM    1  C2  UNL     1      -7.066 -11.254  16.360  1.00  0.00     0.156 C 
HETATM    2  C3  UNL     1      -6.997 -12.543  16.673  1.00  0.00     0.049 A 
HETATM    3  C4  UNL     1      -7.104 -12.948  14.984  1.00  0.00     0.018 A 
HETATM    4  C5  UNL     1      -7.099 -14.103  14.506  1.00  0.00     0.001 A 
HETATM    5  C6  UNL     1      -7.000 -15.300  15.256  1.00  0.00     0.003 A 
HETATM    6  C7  UNL     1      -6.910 -15.040  16.630  1.00  0.00     0.038 A 
HETATM    7  C8  UNL     1      -6.929 -13.791  16.975  1.00  0.00     0.094 A 
ENDROOT
BRANCH   1   8
HETATM    8  N1  UNL     1      -7.317 -10.096  15.776  1.00  0.00    -0.302 N 
ATOM      9  H1  UNL     1      -7.109 -10.196  14.783  1.00  0.00     0.171 HD
BRANCH   8  10
HETATM   10  C1  UNL     1      -7.758  -8.783  15.993  1.00  0.00     0.223 C 
BRANCH  10  11
HETATM   11  O1  UNL     1      -8.350  -8.269  14.923  1.00  0.00    -0.332 OA
ATOM     12  H1  UNL     1      -8.765  -7.434  15.107  1.00  0.00     0.220 HD
ENDBRANCH  10  11
BRANCH  10  13
HETATM   13  N3  UNL     1      -7.749  -7.900  17.067  1.00  0.00    -0.330 N 
ATOM     14  H3  UNL     1      -7.258  -7.017  16.925  1.00  0.00     0.169 HD
BRANCH  13  15
HETATM   15  C16 UNL     1      -8.362  -8.097  18.368  1.00  0.00    -0.010 C 
HETATM   16  C17 UNL     1      -9.311  -9.268  18.441  1.00  0.00     0.052 C 
HETATM   17  C18 UNL     1      -9.355  -9.960  19.778  1.00  0.00     0.006 C 
HETATM   18  C19 UNL     1      -9.153  -9.201  21.001  1.00  0.00     0.000 C 
HETATM   19  C20 UNL     1      -9.953  -8.013  21.346  1.00  0.00     0.000 C 
HETATM   20  C21 UNL     1     -10.764  -7.365  20.243  1.00  0.00     0.000 C 
HETATM   21  C22 UNL     1      -9.982  -6.472  19.349  1.00  0.00     0.006 C 
HETATM   22  C23 UNL     1      -8.548  -6.901  19.141  1.00  0.00     0.052 C 
ENDBRANCH  13  15
ENDBRANCH  10  13
ENDBRANCH   8  10
ENDBRANCH   1   8
BRANCH   1  23
HETATM   23  O2  UNL     1      -6.206 -10.779  17.586  1.00  0.00    -0.345 OA
ATOM     24  H2  UNL     1      -5.691 -11.560  17.751  1.00  0.00     0.219 HD
ENDBRANCH   1  23
BRANCH   7  25
HETATM   25  O3  UNL     1      -6.849 -13.655  18.540  1.00  0.00    -0.274 OA
BRANCH  25  26
HETATM   26  C9  UNL     1      -8.096 -13.573  19.118  1.00  0.00     0.298 C 
HETATM   27  O4  UNL     1      -9.113 -13.676  18.391  1.00  0.00    -0.259 OA
BRANCH  26  28
HETATM   28  C10 UNL     1      -8.315 -13.401  20.531  1.00  0.00     0.042 A 
HETATM   29  C11 UNL     1      -9.431 -13.579  21.266  1.00  0.00     0.018 A 
HETATM   30  C12 UNL     1      -9.600 -13.071  22.494  1.00  0.00     0.003 A 
HETATM   31  C13 UNL     1      -8.621 -12.286  23.152  1.00  0.00     0.036 A 
HETATM   32  C14 UNL     1      -7.469 -12.093  22.412  1.00  0.00     0.103 A 
HETATM   33  C15 UNL     1      -7.312 -12.626  21.162  1.00  0.00     0.053 A 
BRANCH  32  34
HETATM   34  N2  UNL     1      -6.454 -11.198  22.956  1.00  0.00    -0.116 N 
HETATM   35  O5  UNL     1      -6.709 -10.417  23.866  1.00  0.00    -0.532 OA
HETATM   36  O6  UNL     1      -5.206 -11.193  22.368  1.00  0.00    -0.532 OA
ENDBRANCH  32  34
ENDBRANCH  26  28
ENDBRANCH  25  26
ENDBRANCH   7  25
TORSDOF 10
ENDMDL
MODEL 4
REMARK VINA RESULT: -9.481690029      1.900      5.981
REMARK  10 active torsions:
REMARK  status: ('A' for Active; 'I' for Inactive)
REMARK    1  A    between atoms: O1_1  and  C1_3 
REMARK    2  A    between atoms: C1_3  and  N1_4 
REMARK    3  A    between atoms: C1_3  and  N3_27 
REMARK    4  A    between atoms: N1_4  and  C2_6 
REMARK    5  A    between atoms: C2_6  and  O2_7 
REMARK    6  A    between atoms: C8_14  and  O3_15 
REMARK    7  A    between atoms: O3_15  and  C9_16 
REMARK    8  A    between atoms: C9_16  and  C10_18 
REMARK    9  A    between atoms: C14_22  and  N2_23 
REMARK   10  A    between atoms: N3_27  and  C16_29 
ROOT
HETATM    1  C2  UNL     1      -8.153 -13.769  18.918  1.00  0.00     0.156 C 
HETATM    2  C3  UNL     1      -7.790 -13.084  17.839  1.00  0.00     0.049 A 
HETATM    3  C4  UNL     1      -9.464 -12.928  17.388  1.00  0.00     0.018 A 
HETATM    4  C5  UNL     1      -9.897 -12.343  16.372  1.00  0.00     0.001 A 
HETATM    5  C6  UNL     1      -9.101 -11.690  15.400  1.00  0.00     0.003 A 
HETATM    6  C7  UNL     1      -7.737 -11.780  15.708  1.00  0.00     0.038 A 
HETATM    7  C8  UNL     1      -7.440 -12.421  16.795  1.00  0.00     0.094 A 
ENDROOT
BRANCH   1   8
HETATM    8  N1  UNL     1      -8.783 -14.539  19.786  1.00  0.00    -0.302 N 
ATOM      9  H1  UNL     1      -8.510 -15.504  19.603  1.00  0.00     0.171 HD
BRANCH   8  10
HETATM   10  C1  UNL     1      -9.683 -14.544  20.861  1.00  0.00     0.223 C 
BRANCH  10  11
HETATM   11  O1  UNL     1     -10.148 -15.759  21.122  1.00  0.00    -0.332 OA
ATOM     12  H1  UNL     1     -10.586 -16.145  20.372  1.00  0.00     0.220 HD
ENDBRANCH  10  11
BRANCH  10  13
HETATM   13  N3  UNL     1     -10.183 -13.588  21.739  1.00  0.00    -0.330 N 
ATOM     14  H3  UNL     1     -11.174 -13.659  21.972  1.00  0.00     0.169 HD
BRANCH  13  15
HETATM   15  C16 UNL     1      -9.451 -12.499  22.358  1.00  0.00    -0.010 C 
HETATM   16  C17 UNL     1      -9.313 -11.268  21.497  1.00  0.00     0.052 C 
HETATM   17  C18 UNL     1      -9.290  -9.967  22.257  1.00  0.00     0.006 C 
HETATM   18  C19 UNL     1      -8.706  -9.907  23.586  1.00  0.00     0.000 C 
HETATM   19  C20 UNL     1      -7.332 -10.351  23.877  1.00  0.00     0.000 C 
HETATM   20  C21 UNL     1      -6.636 -11.210  22.841  1.00  0.00     0.000 C 
HETATM   21  C22 UNL     1      -7.014 -12.646  22.879  1.00  0.00     0.006 C 
HETATM   22  C23 UNL     1      -8.444 -12.901  23.300  1.00  0.00     0.052 C 
ENDBRANCH  13  15
ENDBRANCH  10  13
ENDBRANCH   8  10
ENDBRANCH   1   8
BRANCH   1  23
HETATM   23  O2  UNL     1      -6.936 -13.289  19.787  1.00  0.00    -0.345 OA
ATOM     24  H2  UNL     1      -7.351 -12.613  20.310  1.00  0.00     0.219 HD
ENDBRANCH   1  23
BRANCH   7  25
HETATM   25  O3  UNL     1      -5.880 -12.464  16.995  1.00  0.00    -0.274 OA
BRANCH  25  26
HETATM   26  C9  UNL     1      -5.323 -11.205  16.996  1.00  0.00     0.298 C 
HETATM   27  O4  UNL     1      -4.362 -10.964  16.227  1.00  0.00    -0.259 OA
BRANCH  26  28
HETATM   28  C10 UNL     1      -5.795 -10.119  17.814  1.00  0.00     0.042 A 
HETATM   29  C11 UNL     1      -6.012 -10.062  19.144  1.00  0.00     0.018 A 
HETATM   30  C12 UNL     1      -6.761  -9.121  19.733  1.00  0.00     0.003 A 
HETATM   31  C13 UNL     1      -7.412  -8.085  19.020  1.00  0.00     0.036 A 
HETATM   32  C14 UNL     1      -7.200  -8.127  17.654  1.00  0.00     0.103 A 
HETATM   33  C15 UNL     1      -6.426  -9.093  17.070  1.00  0.00     0.053 A 
BRANCH  32  34
HETATM   34  N2  UNL     1      -7.928  -7.175  16.823  1.00  0.00    -0.116 N 
HETATM   35  O5  UNL     1      -8.799  -6.450  17.292  1.00  0.00    -0.532 OA
HETATM   36  O6  UNL     1      -7.667  -7.158  15.469  1.00  0.00    -0.532 OA
ENDBRANCH  32  34
ENDBRANCH  26  28
ENDBRANCH  25  26
ENDBRANCH   7  25
TORSDOF 10
ENDMDL
MODEL 5
REMARK VINA RESULT: -9.454770589      1.479      1.753
REMARK  10 active torsions:
REMARK  status: ('A' for Active; 'I' for Inactive)
REMARK    1  A    between atoms: O1_1  and  C1_3 
REMARK    2  A    between atoms: C1_3  and  N1_4 
REMARK    3  A    between atoms: C1_3  and  N3_27 
REMARK    4  A    between atoms: N1_4  and  C2_6 
REMARK    5  A    between atoms: C2_6  and  O2_7 
REMARK    6  A    between atoms: C8_14  and  O3_15 
REMARK    7  A    between atoms: O3_15  and  C9_16 
REMARK    8  A    between atoms: C9_16  and  C10_18 
REMARK    9  A    between atoms: C14_22  and  N2_23 
REMARK   10  A    between atoms: N3_27  and  C16_29 
ROOT
HETATM    1  C2  UNL     1      -6.983 -11.373  16.350  1.00  0.00     0.156 C 
HETATM    2  C3  UNL     1      -6.810 -12.640  16.710  1.00  0.00     0.049 A 
HETATM    3  C4  UNL     1      -7.289 -13.148  15.116  1.00  0.00     0.018 A 
HETATM    4  C5  UNL     1      -7.363 -14.330  14.715  1.00  0.00     0.001 A 
HETATM    5  C6  UNL     1      -7.064 -15.478  15.488  1.00  0.00     0.003 A 
HETATM    6  C7  UNL     1      -6.670 -15.134  16.788  1.00  0.00     0.038 A 
HETATM    7  C8  UNL     1      -6.643 -13.867  17.058  1.00  0.00     0.094 A 
ENDROOT
BRANCH   1   8
HETATM    8  N1  UNL     1      -7.390 -10.257  15.776  1.00  0.00    -0.302 N 
ATOM      9  H1  UNL     1      -7.409 -10.413  14.768  1.00  0.00     0.171 HD
BRANCH   8  10
HETATM   10  C1  UNL     1      -7.807  -8.939  16.014  1.00  0.00     0.223 C 
BRANCH  10  11
HETATM   11  O1  UNL     1      -8.464  -8.425  14.982  1.00  0.00    -0.332 OA
ATOM     12  H1  UNL     1      -9.204  -7.896  15.253  1.00  0.00     0.220 HD
ENDBRANCH  10  11
BRANCH  10  13
HETATM   13  N3  UNL     1      -7.723  -8.052  17.082  1.00  0.00    -0.330 N 
ATOM     14  H3  UNL     1      -7.151  -7.220  16.936  1.00  0.00     0.169 HD
BRANCH  13  15
HETATM   15  C16 UNL     1      -8.360  -8.180  18.379  1.00  0.00    -0.010 C 
HETATM   16  C17 UNL     1      -9.384  -9.285  18.467  1.00  0.00     0.052 C 
HETATM   17  C18 UNL     1      -9.486  -9.943  19.818  1.00  0.00     0.006 C 
HETATM   18  C19 UNL     1      -9.247  -9.172  21.027  1.00  0.00     0.000 C 
HETATM   19  C20 UNL     1      -9.971  -7.927  21.337  1.00  0.00     0.000 C 
HETATM   20  C21 UNL     1     -10.727  -7.252  20.211  1.00  0.00     0.000 C 
HETATM   21  C22 UNL     1      -9.880  -6.432  19.307  1.00  0.00     0.006 C 
HETATM   22  C23 UNL     1      -8.475  -6.958  19.125  1.00  0.00     0.052 C 
ENDBRANCH  13  15
ENDBRANCH  10  13
ENDBRANCH   8  10
ENDBRANCH   1   8
BRANCH   1  23
HETATM   23  O2  UNL     1      -5.879 -10.815  17.317  1.00  0.00    -0.345 OA
ATOM     24  H2  UNL     1      -5.501 -10.132  16.776  1.00  0.00     0.219 HD
ENDBRANCH   1  23
BRANCH   7  25
HETATM   25  O3  UNL     1      -6.211 -13.636  18.553  1.00  0.00    -0.274 OA
BRANCH  25  26
HETATM   26  C9  UNL     1      -7.286 -13.348  19.364  1.00  0.00     0.298 C 
HETATM   27  O4  UNL     1      -8.391 -13.890  19.127  1.00  0.00    -0.259 OA
BRANCH  26  28
HETATM   28  C10 UNL     1      -7.217 -12.471  20.505  1.00  0.00     0.042 A 
HETATM   29  C11 UNL     1      -6.319 -11.515  20.815  1.00  0.00     0.018 A 
HETATM   30  C12 UNL     1      -6.171 -11.007  22.045  1.00  0.00     0.003 A 
HETATM   31  C13 UNL     1      -6.942 -11.425  23.157  1.00  0.00     0.036 A 
HETATM   32  C14 UNL     1      -7.870 -12.405  22.857  1.00  0.00     0.103 A 
HETATM   33  C15 UNL     1      -8.012 -12.908  21.593  1.00  0.00     0.053 A 
BRANCH  32  34
HETATM   34  N2  UNL     1      -8.627 -12.985  23.961  1.00  0.00    -0.116 N 
HETATM   35  O5  UNL     1      -8.343 -12.743  25.130  1.00  0.00    -0.532 OA
HETATM   36  O6  UNL     1      -9.631 -13.882  23.663  1.00  0.00    -0.532 OA
ENDBRANCH  32  34
ENDBRANCH  26  28
ENDBRANCH  25  26
ENDBRANCH   7  25
TORSDOF 10
ENDMDL
