MODEL 1
REMARK VINA RESULT: -8.138083842      0.000      0.000
REMARK  11 active torsions:
REMARK  status: ('A' for Active; 'I' for Inactive)
REMARK    1  A    between atoms: C2_2  and  C3_3 
REMARK    2  A    between atoms: C3_3  and  C4_4 
REMARK    3  A    between atoms: C4_4  and  N1_5 
REMARK    4  A    between atoms: C4_4  and  C25_36 
REMARK       I    between atoms: N1_5  and  C5_7 
REMARK    5  A    between atoms: C5_7  and  C6_9 
REMARK    6  A    between atoms: N2_12  and  C9_13 
REMARK    7  A    between atoms: C9_13  and  C10_14 
REMARK    8  A    between atoms: C10_14  and  C11_15 
REMARK       I    between atoms: C11_15  and  N3_17 
REMARK    9  A    between atoms: C14_20  and  C15_21 
REMARK   10  A    between atoms: C14_20  and  N5_24 
REMARK   11  A    between atoms: C19_28  and  C20_29 
ROOT
HETATM    1  C6  UNL     1      28.829  13.818  24.198  1.00  0.00     0.081 C 
HETATM    2  C7  UNL     1      27.345  14.011  24.395  1.00  0.00     0.044 C 
HETATM    3  C8  UNL     1      26.778  15.230  23.775  1.00  0.00     0.273 C 
HETATM    4  N2  UNL     1      27.553  16.381  24.222  1.00  0.00     0.088 N 
HETATM    5  C23 UNL     1      28.889  16.293  23.633  1.00  0.00     0.273 C 
HETATM    6  C24 UNL     1      29.620  15.056  24.029  1.00  0.00     0.044 C 
ENDROOT
BRANCH   4   7
HETATM    7  C9  UNL     1      27.639  16.411  25.672  1.00  0.00     0.281 C 
BRANCH   7   8
HETATM    8  C10 UNL     1      27.394  17.802  26.235  1.00  0.00     0.133 C 
BRANCH   8   9
HETATM    9  C11 UNL     1      28.536  18.253  27.055  1.00  0.00     0.221 C 
HETATM   10  O2  UNL     1      28.602  17.854  28.243  1.00  0.00    -0.273 OA
HETATM   11  N3  UNL     1      29.516  19.094  26.546  1.00  0.00    -0.352 N 
HETATM   12  C12 UNL     1      30.628  19.524  27.356  1.00  0.00     0.128 C 
HETATM   13  C22 UNL     1      29.497  19.575  25.189  1.00  0.00     0.128 C 
HETATM   14  C13 UNL     1      31.595  20.322  26.565  1.00  0.00     0.060 C 
HETATM   15  C14 UNL     1      32.031  19.640  25.246  1.00  0.00     0.110 C 
HETATM   16  C21 UNL     1      30.786  19.186  24.496  1.00  0.00     0.060 C 
BRANCH  15  17
HETATM   17  C15 UNL     1      32.710  18.415  25.689  1.00  0.00     0.259 C 
HETATM   18  N4  UNL     1      33.860  18.257  26.464  1.00  0.00    -0.060 NA
HETATM   19  O3  UNL     1      32.173  17.300  25.317  1.00  0.00    -0.274 OA
ENDBRANCH  15  17
BRANCH  15  20
HETATM   20  N5  UNL     1      32.708  20.551  24.447  1.00  0.00    -0.389 N 
HETATM   21  C16 UNL     1      32.233  21.872  24.300  1.00  0.00     0.118 C 
HETATM   22  C17 UNL     1      33.290  22.645  23.550  1.00  0.00     0.022 C 
HETATM   23  C18 UNL     1      34.405  21.699  23.350  1.00  0.00     0.029 C 
HETATM   24  C19 UNL     1      33.772  20.312  23.613  1.00  0.00     0.113 C 
BRANCH  24  25
HETATM   25  C20 UNL     1      33.331  19.752  22.261  1.00  0.00     0.200 C 
HETATM   26 CL1  UNL     1      34.178  20.465  20.896  1.00  0.00    -0.106 Cl
HETATM   27 CL2  UNL     1      33.513  17.981  22.235  1.00  0.00    -0.106 Cl
ENDBRANCH  24  25
ENDBRANCH  15  20
ENDBRANCH   8   9
ENDBRANCH   7   8
ENDBRANCH   4   7
BRANCH   1  28
HETATM   28  C5  UNL     1      28.974  12.962  22.993  1.00  0.00     0.222 C 
HETATM   29  N1  UNL     1      28.175  11.850  22.683  1.00  0.00    -0.346 N 
ATOM     30  H1  UNL     1      27.408  11.564  23.291  1.00  0.00     0.163 HD
HETATM   31  O1  UNL     1      29.920  13.302  22.204  1.00  0.00    -0.273 OA
BRANCH  29  32
HETATM   32  C4  UNL     1      28.489  11.103  21.434  1.00  0.00     0.186 C 
BRANCH  32  33
HETATM   33  C3  UNL     1      27.167  10.851  20.817  1.00  0.00     0.045 C 
BRANCH  33  34
HETATM   34  C2  UNL     1      26.644  11.744  19.766  1.00  0.00    -0.042 C 
HETATM   35  C1  UNL     1      27.558  12.962  19.563  1.00  0.00     0.015 C 
HETATM   36  C26 UNL     1      25.364  12.385  20.383  1.00  0.00     0.009 C 
HETATM   37  C27 UNL     1      24.207  11.837  19.617  1.00  0.00     0.001 C 
HETATM   38  C28 UNL     1      24.784  11.764  18.210  1.00  0.00     0.001 C 
HETATM   39  C29 UNL     1      26.184  11.170  18.491  1.00  0.00     0.009 C 
ENDBRANCH  33  34
ENDBRANCH  32  33
BRANCH  32  40
HETATM   40  C25 UNL     1      29.238   9.924  21.905  1.00  0.00     0.196 C 
HETATM   41  O4  UNL     1      28.695   8.768  21.950  1.00  0.00    -0.646 OA
HETATM   42  O5  UNL     1      30.557  10.017  22.323  1.00  0.00    -0.646 OA
ENDBRANCH  32  40
ENDBRANCH  29  32
ENDBRANCH   1  28
TORSDOF 11
ENDMDL
MODEL 2
REMARK VINA RESULT: -8.123615811      2.073      2.706
REMARK  11 active torsions:
REMARK  status: ('A' for Active; 'I' for Inactive)
REMARK    1  A    between atoms: C2_2  and  C3_3 
REMARK    2  A    between atoms: C3_3  and  C4_4 
REMARK    3  A    between atoms: C4_4  and  N1_5 
REMARK    4  A    between atoms: C4_4  and  C25_36 
REMARK       I    between atoms: N1_5  and  C5_7 
REMARK    5  A    between atoms: C5_7  and  C6_9 
REMARK    6  A    between atoms: N2_12  and  C9_13 
REMARK    7  A    between atoms: C9_13  and  C10_14 
REMARK    8  A    between atoms: C10_14  and  C11_15 
REMARK       I    between atoms: C11_15  and  N3_17 
REMARK    9  A    between atoms: C14_20  and  C15_21 
REMARK   10  A    between atoms: C14_20  and  N5_24 
REMARK   11  A    between atoms: C19_28  and  C20_29 
ROOT
HETATM    1  C6  UNL     1      26.747  13.624  24.004  1.00  0.00     0.081 C 
HETATM    2  C7  UNL     1      25.808  14.556  24.731  1.00  0.00     0.044 C 
HETATM    3  C8  UNL     1      26.123  15.996  24.604  1.00  0.00     0.273 C 
HETATM    4  N2  UNL     1      27.516  16.202  24.982  1.00  0.00     0.088 N 
HETATM    5  C23 UNL     1      28.365  15.581  23.966  1.00  0.00     0.273 C 
HETATM    6  C24 UNL     1      28.130  14.115  23.828  1.00  0.00     0.044 C 
ENDROOT
BRANCH   4   7
HETATM    7  C9  UNL     1      27.784  15.628  26.289  1.00  0.00     0.281 C 
BRANCH   7   8
HETATM    8  C10 UNL     1      28.918  16.339  27.009  1.00  0.00     0.133 C 
BRANCH   8   9
HETATM    9  C11 UNL     1      28.688  17.796  27.055  1.00  0.00     0.221 C 
HETATM   10  O2  UNL     1      27.792  18.228  27.821  1.00  0.00    -0.273 OA
HETATM   11  N3  UNL     1      29.429  18.681  26.281  1.00  0.00    -0.352 N 
HETATM   12  C12 UNL     1      29.197  20.102  26.340  1.00  0.00     0.128 C 
HETATM   13  C22 UNL     1      30.474  18.245  25.393  1.00  0.00     0.128 C 
HETATM   14  C13 UNL     1      30.179  20.842  25.513  1.00  0.00     0.060 C 
HETATM   15  C14 UNL     1      31.650  20.454  25.798  1.00  0.00     0.110 C 
HETATM   16  C21 UNL     1      31.770  18.936  25.759  1.00  0.00     0.060 C 
BRANCH  15  17
HETATM   17  C15 UNL     1      31.852  20.843  27.199  1.00  0.00     0.259 C 
HETATM   18  N4  UNL     1      31.365  21.945  27.904  1.00  0.00    -0.060 NA
HETATM   19  O3  UNL     1      32.591  20.054  27.908  1.00  0.00    -0.274 OA
ENDBRANCH  15  17
BRANCH  15  20
HETATM   20  N5  UNL     1      32.474  20.978  24.812  1.00  0.00    -0.389 N 
HETATM   21  C16 UNL     1      32.580  22.374  24.628  1.00  0.00     0.118 C 
HETATM   22  C17 UNL     1      33.693  22.609  23.636  1.00  0.00     0.022 C 
HETATM   23  C18 UNL     1      34.243  21.273  23.333  1.00  0.00     0.029 C 
HETATM   24  C19 UNL     1      33.151  20.297  23.831  1.00  0.00     0.113 C 
BRANCH  24  25
HETATM   25  C20 UNL     1      32.257  19.969  22.635  1.00  0.00     0.200 C 
HETATM   26 CL1  UNL     1      32.670  20.870  21.183  1.00  0.00    -0.106 Cl
HETATM   27 CL2  UNL     1      32.290  18.221  22.297  1.00  0.00    -0.106 Cl
ENDBRANCH  24  25
ENDBRANCH  15  20
ENDBRANCH   8   9
ENDBRANCH   7   8
ENDBRANCH   4   7
BRANCH   1  28
HETATM   28  C5  UNL     1      26.130  13.378  22.674  1.00  0.00     0.222 C 
HETATM   29  N1  UNL     1      26.775  12.794  21.572  1.00  0.00    -0.346 N 
ATOM     30  H1  UNL     1      27.744  12.481  21.631  1.00  0.00     0.163 HD
HETATM   31  O1  UNL     1      24.912  13.748  22.572  1.00  0.00    -0.273 OA
BRANCH  29  32
HETATM   32  C4  UNL     1      25.993  12.648  20.315  1.00  0.00     0.186 C 
BRANCH  32  33
HETATM   33  C3  UNL     1      25.925  11.186  20.093  1.00  0.00     0.045 C 
BRANCH  33  34
HETATM   34  C2  UNL     1      24.623  10.507  19.952  1.00  0.00    -0.042 C 
HETATM   35  C1  UNL     1      24.401  10.019  18.513  1.00  0.00     0.015 C 
HETATM   36  C26 UNL     1      23.561  11.640  20.089  1.00  0.00     0.009 C 
HETATM   37  C27 UNL     1      22.844  11.391  21.375  1.00  0.00     0.001 C 
HETATM   38  C28 UNL     1      22.782   9.871  21.397  1.00  0.00     0.001 C 
HETATM   39  C29 UNL     1      24.218   9.505  20.953  1.00  0.00     0.009 C 
ENDBRANCH  33  34
ENDBRANCH  32  33
BRANCH  32  40
HETATM   40  C25 UNL     1      26.758  13.434  19.329  1.00  0.00     0.196 C 
HETATM   41  O4  UNL     1      26.484  13.381  18.082  1.00  0.00    -0.646 OA
HETATM   42  O5  UNL     1      27.808  14.258  19.709  1.00  0.00    -0.646 OA
ENDBRANCH  32  40
ENDBRANCH  29  32
ENDBRANCH   1  28
TORSDOF 11
ENDMDL
MODEL 3
REMARK VINA RESULT: -8.083488313      2.591      3.370
REMARK  11 active torsions:
REMARK  status: ('A' for Active; 'I' for Inactive)
REMARK    1  A    between atoms: C2_2  and  C3_3 
REMARK    2  A    between atoms: C3_3  and  C4_4 
REMARK    3  A    between atoms: C4_4  and  N1_5 
REMARK    4  A    between atoms: C4_4  and  C25_36 
REMARK       I    between atoms: N1_5  and  C5_7 
REMARK    5  A    between atoms: C5_7  and  C6_9 
REMARK    6  A    between atoms: N2_12  and  C9_13 
REMARK    7  A    between atoms: C9_13  and  C10_14 
REMARK    8  A    between atoms: C10_14  and  C11_15 
REMARK       I    between atoms: C11_15  and  N3_17 
REMARK    9  A    between atoms: C14_20  and  C15_21 
REMARK   10  A    between atoms: C14_20  and  N5_24 
REMARK   11  A    between atoms: C19_28  and  C20_29 
ROOT
HETATM    1  C6  UNL     1      25.459  15.032  23.692  1.00  0.00     0.081 C 
HETATM    2  C7  UNL     1      26.952  14.802  23.675  1.00  0.00     0.044 C 
HETATM    3  C8  UNL     1      27.582  14.646  25.005  1.00  0.00     0.273 C 
HETATM    4  N2  UNL     1      27.203  15.783  25.834  1.00  0.00     0.088 N 
HETATM    5  C23 UNL     1      25.773  15.684  26.126  1.00  0.00     0.273 C 
HETATM    6  C24 UNL     1      24.927  15.698  24.899  1.00  0.00     0.044 C 
ENDROOT
BRANCH   4   7
HETATM    7  C9  UNL     1      27.498  17.034  25.157  1.00  0.00     0.281 C 
BRANCH   7   8
HETATM    8  C10 UNL     1      27.128  18.245  25.998  1.00  0.00     0.133 C 
BRANCH   8   9
HETATM    9  C11 UNL     1      28.248  18.649  26.871  1.00  0.00     0.221 C 
HETATM   10  O2  UNL     1      28.232  18.266  28.066  1.00  0.00    -0.273 OA
HETATM   11  N3  UNL     1      29.297  19.430  26.404  1.00  0.00    -0.352 N 
HETATM   12  C12 UNL     1      30.387  19.813  27.266  1.00  0.00     0.128 C 
HETATM   13  C22 UNL     1      29.374  19.890  25.042  1.00  0.00     0.128 C 
HETATM   14  C13 UNL     1      31.434  20.547  26.516  1.00  0.00     0.060 C 
HETATM   15  C14 UNL     1      31.901  19.823  25.230  1.00  0.00     0.110 C 
HETATM   16  C21 UNL     1      30.674  19.423  24.423  1.00  0.00     0.060 C 
BRANCH  15  17
HETATM   17  C15 UNL     1      32.490  18.572  25.724  1.00  0.00     0.259 C 
HETATM   18  N4  UNL     1      32.154  17.247  25.438  1.00  0.00    -0.060 NA
HETATM   19  O3  UNL     1      33.476  18.694  26.551  1.00  0.00    -0.274 OA
ENDBRANCH  15  17
BRANCH  15  20
HETATM   20  N5  UNL     1      32.666  20.685  24.457  1.00  0.00    -0.389 N 
HETATM   21  C16 UNL     1      32.284  22.034  24.290  1.00  0.00     0.118 C 
HETATM   22  C17 UNL     1      33.417  22.733  23.580  1.00  0.00     0.022 C 
HETATM   23  C18 UNL     1      34.475  21.715  23.423  1.00  0.00     0.029 C 
HETATM   24  C19 UNL     1      33.742  20.374  23.663  1.00  0.00     0.113 C 
BRANCH  24  25
HETATM   25  C20 UNL     1      33.317  19.839  22.296  1.00  0.00     0.200 C 
HETATM   26 CL1  UNL     1      34.217  20.537  20.958  1.00  0.00    -0.106 Cl
HETATM   27 CL2  UNL     1      33.447  18.063  22.258  1.00  0.00    -0.106 Cl
ENDBRANCH  24  25
ENDBRANCH  15  20
ENDBRANCH   8   9
ENDBRANCH   7   8
ENDBRANCH   4   7
BRANCH   1  28
HETATM   28  C5  UNL     1      24.837  13.690  23.544  1.00  0.00     0.222 C 
HETATM   29  N1  UNL     1      23.639  13.419  22.866  1.00  0.00    -0.346 N 
ATOM     30  H1  UNL     1      23.112  14.160  22.405  1.00  0.00     0.163 HD
HETATM   31  O1  UNL     1      25.481  12.737  24.101  1.00  0.00    -0.273 OA
BRANCH  29  32
HETATM   32  C4  UNL     1      23.165  12.008  22.843  1.00  0.00     0.186 C 
BRANCH  32  33
HETATM   33  C3  UNL     1      22.909  11.731  21.412  1.00  0.00     0.045 C 
BRANCH  33  34
HETATM   34  C2  UNL     1      23.698  10.715  20.689  1.00  0.00    -0.042 C 
HETATM   35  C1  UNL     1      23.790   9.407  21.489  1.00  0.00     0.015 C 
HETATM   36  C26 UNL     1      25.165  11.240  20.734  1.00  0.00     0.009 C 
HETATM   37  C27 UNL     1      25.523  11.608  19.332  1.00  0.00     0.001 C 
HETATM   38  C28 UNL     1      24.808  10.522  18.542  1.00  0.00     0.001 C 
HETATM   39  C29 UNL     1      23.439  10.481  19.259  1.00  0.00     0.009 C 
ENDBRANCH  33  34
ENDBRANCH  32  33
BRANCH  32  40
HETATM   40  C25 UNL     1      21.994  12.013  23.738  1.00  0.00     0.196 C 
HETATM   41  O4  UNL     1      21.452  13.107  24.116  1.00  0.00    -0.646 OA
HETATM   42  O5  UNL     1      21.433  10.836  24.214  1.00  0.00    -0.646 OA
ENDBRANCH  32  40
ENDBRANCH  29  32
ENDBRANCH   1  28
TORSDOF 11
ENDMDL
MODEL 4
REMARK VINA RESULT: -7.866830564      9.076     12.867
REMARK  11 active torsions:
REMARK  status: ('A' for Active; 'I' for Inactive)
REMARK    1  A    between atoms: C2_2  and  C3_3 
REMARK    2  A    between atoms: C3_3  and  C4_4 
REMARK    3  A    between atoms: C4_4  and  N1_5 
REMARK    4  A    between atoms: C4_4  and  C25_36 
REMARK       I    between atoms: N1_5  and  C5_7 
REMARK    5  A    between atoms: C5_7  and  C6_9 
REMARK    6  A    between atoms: N2_12  and  C9_13 
REMARK    7  A    between atoms: C9_13  and  C10_14 
REMARK    8  A    between atoms: C10_14  and  C11_15 
REMARK       I    between atoms: C11_15  and  N3_17 
REMARK    9  A    between atoms: C14_20  and  C15_21 
REMARK   10  A    between atoms: C14_20  and  N5_24 
REMARK   11  A    between atoms: C19_28  and  C20_29 
ROOT
HETATM    1  C6  UNL     1      22.756  11.190  21.769  1.00  0.00     0.081 C 
HETATM    2  C7  UNL     1      22.914  12.478  22.541  1.00  0.00     0.044 C 
HETATM    3  C8  UNL     1      23.238  12.319  23.976  1.00  0.00     0.273 C 
HETATM    4  N2  UNL     1      22.254  11.427  24.578  1.00  0.00     0.088 N 
HETATM    5  C23 UNL     1      22.458  10.084  24.035  1.00  0.00     0.273 C 
HETATM    6  C24 UNL     1      22.300  10.024  22.554  1.00  0.00     0.044 C 
ENDROOT
BRANCH   4   7
HETATM    7  C9  UNL     1      20.904  11.887  24.299  1.00  0.00     0.281 C 
BRANCH   7   8
HETATM    8  C10 UNL     1      19.872  11.220  25.193  1.00  0.00     0.133 C 
BRANCH   8   9
HETATM    9  C11 UNL     1      19.579  12.049  26.378  1.00  0.00     0.221 C 
HETATM   10  O2  UNL     1      20.540  12.404  27.103  1.00  0.00    -0.273 OA
HETATM   11  N3  UNL     1      18.284  12.436  26.700  1.00  0.00    -0.352 N 
HETATM   12  C12 UNL     1      18.012  13.250  27.858  1.00  0.00     0.128 C 
HETATM   13  C22 UNL     1      17.144  12.068  25.901  1.00  0.00     0.128 C 
HETATM   14  C13 UNL     1      16.579  13.623  27.930  1.00  0.00     0.060 C 
HETATM   15  C14 UNL     1      16.028  14.230  26.617  1.00  0.00     0.110 C 
HETATM   16  C21 UNL     1      16.412  13.318  25.459  1.00  0.00     0.060 C 
BRANCH  15  17
HETATM   17  C15 UNL     1      16.809  15.461  26.442  1.00  0.00     0.259 C 
HETATM   18  N4  UNL     1      17.215  16.407  27.385  1.00  0.00    -0.060 NA
HETATM   19  O3  UNL     1      17.191  15.726  25.236  1.00  0.00    -0.274 OA
ENDBRANCH  15  17
BRANCH  15  20
HETATM   20  N5  UNL     1      14.643  14.295  26.674  1.00  0.00    -0.389 N 
HETATM   21  C16 UNL     1      13.881  13.153  27.003  1.00  0.00     0.118 C 
HETATM   22  C17 UNL     1      12.453  13.606  27.179  1.00  0.00     0.022 C 
HETATM   23  C18 UNL     1      12.476  15.070  26.998  1.00  0.00     0.029 C 
HETATM   24  C19 UNL     1      13.834  15.341  26.306  1.00  0.00     0.113 C 
BRANCH  24  25
HETATM   25  C20 UNL     1      13.576  15.368  24.800  1.00  0.00     0.200 C 
HETATM   26 CL1  UNL     1      11.870  15.396  24.380  1.00  0.00    -0.106 Cl
HETATM   27 CL2  UNL     1      14.410  16.754  24.055  1.00  0.00    -0.106 Cl
ENDBRANCH  24  25
ENDBRANCH  15  20
ENDBRANCH   8   9
ENDBRANCH   7   8
ENDBRANCH   4   7
BRANCH   1  28
HETATM   28  C5  UNL     1      24.087  10.904  21.173  1.00  0.00     0.222 C 
HETATM   29  N1  UNL     1      25.096  11.852  20.942  1.00  0.00    -0.346 N 
ATOM     30  H1  UNL     1      24.969  12.832  21.194  1.00  0.00     0.163 HD
HETATM   31  O1  UNL     1      24.281   9.682  20.857  1.00  0.00    -0.273 OA
BRANCH  29  32
HETATM   32  C4  UNL     1      26.359  11.374  20.316  1.00  0.00     0.186 C 
BRANCH  32  33
HETATM   33  C3  UNL     1      27.426  11.895  21.200  1.00  0.00     0.045 C 
BRANCH  33  34
HETATM   34  C2  UNL     1      28.706  11.175  21.337  1.00  0.00    -0.042 C 
HETATM   35  C1  UNL     1      29.789  11.786  20.435  1.00  0.00     0.015 C 
HETATM   36  C26 UNL     1      28.461   9.786  20.673  1.00  0.00     0.009 C 
HETATM   37  C27 UNL     1      28.497   8.780  21.776  1.00  0.00     0.001 C 
HETATM   38  C28 UNL     1      29.588   9.351  22.670  1.00  0.00     0.001 C 
HETATM   39  C29 UNL     1      29.213  10.851  22.681  1.00  0.00     0.009 C 
ENDBRANCH  33  34
ENDBRANCH  32  33
BRANCH  32  40
HETATM   40  C25 UNL     1      26.305  11.921  18.948  1.00  0.00     0.196 C 
HETATM   41  O4  UNL     1      26.994  12.944  18.615  1.00  0.00    -0.646 OA
HETATM   42  O5  UNL     1      25.502  11.356  17.967  1.00  0.00    -0.646 OA
ENDBRANCH  32  40
ENDBRANCH  29  32
ENDBRANCH   1  28
TORSDOF 11
ENDMDL
MODEL 5
REMARK VINA RESULT: -7.801725703      5.422      8.450
REMARK  11 active torsions:
REMARK  status: ('A' for Active; 'I' for Inactive)
REMARK    1  A    between atoms: C2_2  and  C3_3 
REMARK    2  A    between atoms: C3_3  and  C4_4 
REMARK    3  A    between atoms: C4_4  and  N1_5 
REMARK    4  A    between atoms: C4_4  and  C25_36 
REMARK       I    between atoms: N1_5  and  C5_7 
REMARK    5  A    between atoms: C5_7  and  C6_9 
REMARK    6  A    between atoms: N2_12  and  C9_13 
REMARK    7  A    between atoms: C9_13  and  C10_14 
REMARK    8  A    between atoms: C10_14  and  C11_15 
REMARK       I    between atoms: C11_15  and  N3_17 
REMARK    9  A    between atoms: C14_20  and  C15_21 
REMARK   10  A    between atoms: C14_20  and  N5_24 
REMARK   11  A    between atoms: C19_28  and  C20_29 
ROOT
HETATM    1  C6  UNL     1      22.881  10.205  23.226  1.00  0.00     0.081 C 
HETATM    2  C7  UNL     1      23.409  11.616  23.131  1.00  0.00     0.044 C 
HETATM    3  C8  UNL     1      23.011  12.359  21.915  1.00  0.00     0.273 C 
HETATM    4  N2  UNL     1      23.353  11.557  20.747  1.00  0.00     0.088 N 
HETATM    5  C23 UNL     1      22.483  10.382  20.724  1.00  0.00     0.273 C 
HETATM    6  C24 UNL     1      22.626   9.527  21.937  1.00  0.00     0.044 C 
ENDROOT
BRANCH   4   7
HETATM    7  C9  UNL     1      24.748  11.153  20.792  1.00  0.00     0.281 C 
BRANCH   7   8
HETATM    8  C10 UNL     1      25.624  12.005  19.887  1.00  0.00     0.133 C 
BRANCH   8   9
HETATM    9  C11 UNL     1      27.056  11.763  20.150  1.00  0.00     0.221 C 
HETATM   10  O2  UNL     1      27.688  11.032  19.349  1.00  0.00    -0.273 OA
HETATM   11  N3  UNL     1      27.704  12.317  21.247  1.00  0.00    -0.352 N 
HETATM   12  C12 UNL     1      29.104  12.076  21.489  1.00  0.00     0.128 C 
HETATM   13  C22 UNL     1      27.033  13.169  22.194  1.00  0.00     0.128 C 
HETATM   14  C13 UNL     1      29.592  12.858  22.650  1.00  0.00     0.060 C 
HETATM   15  C14 UNL     1      29.237  14.363  22.579  1.00  0.00     0.110 C 
HETATM   16  C21 UNL     1      27.751  14.500  22.273  1.00  0.00     0.060 C 
BRANCH  15  17
HETATM   17  C15 UNL     1      29.945  14.837  21.383  1.00  0.00     0.259 C 
HETATM   18  N4  UNL     1      29.441  15.284  20.160  1.00  0.00    -0.060 NA
HETATM   19  O3  UNL     1      31.235  14.853  21.455  1.00  0.00    -0.274 OA
ENDBRANCH  15  17
BRANCH  15  20
HETATM   20  N5  UNL     1      29.481  14.962  23.807  1.00  0.00    -0.389 N 
HETATM   21  C16 UNL     1      28.809  14.525  24.969  1.00  0.00     0.118 C 
HETATM   22  C17 UNL     1      29.445  15.229  26.143  1.00  0.00     0.022 C 
HETATM   23  C18 UNL     1      30.549  16.027  25.576  1.00  0.00     0.029 C 
HETATM   24  C19 UNL     1      30.233  16.082  24.062  1.00  0.00     0.113 C 
BRANCH  24  25
HETATM   25  C20 UNL     1      29.451  17.371  23.810  1.00  0.00     0.200 C 
HETATM   26 CL1  UNL     1      29.481  18.487  25.168  1.00  0.00    -0.106 Cl
HETATM   27 CL2  UNL     1      30.050  18.182  22.342  1.00  0.00    -0.106 Cl
ENDBRANCH  24  25
ENDBRANCH  15  20
ENDBRANCH   8   9
ENDBRANCH   7   8
ENDBRANCH   4   7
BRANCH   1  28
HETATM   28  C5  UNL     1      21.618  10.293  24.005  1.00  0.00     0.222 C 
HETATM   29  N1  UNL     1      21.261  11.347  24.861  1.00  0.00    -0.346 N 
ATOM     30  H1  UNL     1      21.873  12.153  24.992  1.00  0.00     0.163 HD
HETATM   31  O1  UNL     1      20.825   9.303  23.854  1.00  0.00    -0.273 OA
BRANCH  29  32
HETATM   32  C4  UNL     1      19.958  11.244  25.572  1.00  0.00     0.186 C 
BRANCH  32  33
HETATM   33  C3  UNL     1      19.033  12.068  24.761  1.00  0.00     0.045 C 
BRANCH  33  34
HETATM   34  C2  UNL     1      17.577  11.839  24.817  1.00  0.00    -0.042 C 
HETATM   35  C1  UNL     1      16.920  12.687  25.916  1.00  0.00     0.015 C 
HETATM   36  C26 UNL     1      17.418  10.390  25.370  1.00  0.00     0.009 C 
HETATM   37  C27 UNL     1      16.872   9.569  24.249  1.00  0.00     0.001 C 
HETATM   38  C28 UNL     1      15.929  10.559  23.581  1.00  0.00     0.001 C 
HETATM   39  C29 UNL     1      16.797  11.839  23.568  1.00  0.00     0.009 C 
ENDBRANCH  33  34
ENDBRANCH  32  33
BRANCH  32  40
HETATM   40  C25 UNL     1      20.257  11.727  26.932  1.00  0.00     0.196 C 
HETATM   41  O4  UNL     1      19.668  11.238  27.955  1.00  0.00    -0.646 OA
HETATM   42  O5  UNL     1      21.184  12.734  27.162  1.00  0.00    -0.646 OA
ENDBRANCH  32  40
ENDBRANCH  29  32
ENDBRANCH   1  28
TORSDOF 11
ENDMDL
