MODEL 1
REMARK VINA RESULT: -5.944975863      0.000      0.000
REMARK  7 active torsions:
REMARK  status: ('A' for Active; 'I' for Inactive)
REMARK       I    between atoms: C1_2  and  N3_7 
REMARK    1  A    between atoms: N2_3  and  O1_5 
REMARK    2  A    between atoms: N3_7  and  C2_9 
REMARK    3  A    between atoms: N5_15  and  S1_16 
REMARK    4  A    between atoms: C5_20  and  C6_21 
REMARK    5  A    between atoms: C5_20  and  C7_24 
REMARK    6  A    between atoms: C8_30  and  C9_31 
REMARK    7  A    between atoms: C10_40  and  O10_41 
ROOT
HETATM    1  C2  UNL     1     159.420  49.963  17.868  1.00  0.00     0.218 C 
HETATM    2  N4  UNL     1     160.052  49.926  16.563  1.00  0.00    -0.336 N 
ATOM      3  H4  UNL     1     160.312  50.789  16.085  1.00  0.00     0.164 HD
HETATM    4  C3  UNL     1     160.303  48.662  15.964  1.00  0.00     0.246 C 
HETATM    5  O2  UNL     1     159.959  48.440  14.758  1.00  0.00    -0.271 OA
HETATM    6  C4  UNL     1     160.968  47.664  16.836  1.00  0.00     0.240 C 
HETATM    7  N5  UNL     1     162.283  47.981  17.239  1.00  0.00    -0.222 N 
HETATM    8  C5  UNL     1     162.614  47.373  18.417  1.00  0.00     0.388 C 
HETATM    9  N6  UNL     1     161.345  47.403  19.179  1.00  0.00    -0.005 N 
ATOM     10  H61 UNL     1     161.328  48.115  19.910  1.00  0.00     0.283 HD
ATOM     11  H62 UNL     1     161.218  46.596  19.789  1.00  0.00     0.283 HD
HETATM   12  C8  UNL     1     160.284  47.558  18.196  1.00  0.00     0.248 C 
HETATM   13  C10 UNL     1     159.300  48.622  18.497  1.00  0.00     0.207 C 
ENDROOT
BRANCH  12  14
HETATM   14  C9  UNL     1     159.495  46.278  18.251  1.00  0.00     0.155 A 
HETATM   15  N7  UNL     1     159.239  45.567  19.339  1.00  0.00    -0.270 N 
HETATM   16  N8  UNL     1     158.519  44.506  19.047  1.00  0.00    -0.227 N 
ATOM     17  H7  UNL     1     159.558  45.810  20.276  1.00  0.00     0.190 HD
HETATM   18  N9  UNL     1     158.312  44.548  17.710  1.00  0.00    -0.227 N 
ATOM     19  H8  UNL     1     158.184  43.795  19.697  1.00  0.00     0.210 HD
HETATM   20  N10 UNL     1     158.914  45.628  17.251  1.00  0.00    -0.270 N 
ATOM     21  H9  UNL     1     157.788  43.869  17.159  1.00  0.00     0.210 HD
ATOM     22  H10 UNL     1     158.930  45.920  16.274  1.00  0.00     0.190 HD
ENDBRANCH  12  14
BRANCH  13  23
HETATM   23  O10 UNL     1     158.008  48.089  18.192  1.00  0.00    -0.389 OA
ATOM     24  H10 UNL     1     157.452  48.182  18.957  1.00  0.00     0.210 HD
ENDBRANCH  13  23
BRANCH   7  25
HETATM   25  S1  UNL     1     163.355  48.688  16.229  1.00  0.00     0.210 S 
HETATM   26  O3  UNL     1     163.229  50.200  16.169  1.00  0.00    -0.578 OA
HETATM   27  O4  UNL     1     163.173  48.221  14.790  1.00  0.00    -0.578 OA
HETATM   28  O5  UNL     1     164.956  48.332  16.584  1.00  0.00    -0.578 OA
ENDBRANCH   7  25
BRANCH   8  29
HETATM   29  C6  UNL     1     163.696  47.971  19.234  1.00  0.00     0.245 C 
HETATM   30  O6  UNL     1     163.520  49.157  19.651  1.00  0.00    -0.644 OA
HETATM   31  O7  UNL     1     164.875  47.356  19.584  1.00  0.00    -0.644 OA
ENDBRANCH   8  29
BRANCH   8  32
HETATM   32  C7  UNL     1     163.030  45.959  18.199  1.00  0.00     0.245 C 
HETATM   33  O8  UNL     1     163.637  45.617  17.169  1.00  0.00    -0.644 OA
HETATM   34  O9  UNL     1     162.758  44.997  19.141  1.00  0.00    -0.644 OA
ENDBRANCH   8  32
BRANCH   1  35
HETATM   35  N3  UNL     1     158.078  50.488  17.691  1.00  0.00    -0.339 N 
HETATM   36  C1  UNL     1     157.666  51.806  17.525  1.00  0.00     0.209 C 
HETATM   37  N1  UNL     1     158.394  52.774  16.811  1.00  0.00    -0.062 NA
HETATM   38  N2  UNL     1     156.543  52.158  18.043  1.00  0.00    -0.241 N 
ATOM     39  H2  UNL     1     155.985  51.487  18.572  1.00  0.00     0.197 HD
ATOM     40  H3  UNL     1     157.332  49.793  17.688  1.00  0.00     0.164 HD
BRANCH  38  41
HETATM   41  O1  UNL     1     156.107  53.440  17.877  1.00  0.00    -0.287 OA
ATOM     42  H1  UNL     1     155.531  53.821  18.529  1.00  0.00     0.244 HD
ENDBRANCH  38  41
ENDBRANCH   1  35
TORSDOF 7
ENDMDL
MODEL 2
REMARK VINA RESULT: -5.904767054      5.317      7.484
REMARK  7 active torsions:
REMARK  status: ('A' for Active; 'I' for Inactive)
REMARK       I    between atoms: C1_2  and  N3_7 
REMARK    1  A    between atoms: N2_3  and  O1_5 
REMARK    2  A    between atoms: N3_7  and  C2_9 
REMARK    3  A    between atoms: N5_15  and  S1_16 
REMARK    4  A    between atoms: C5_20  and  C6_21 
REMARK    5  A    between atoms: C5_20  and  C7_24 
REMARK    6  A    between atoms: C8_30  and  C9_31 
REMARK    7  A    between atoms: C10_40  and  O10_41 
ROOT
HETATM    1  C2  UNL     1     163.271  49.263  14.621  1.00  0.00     0.218 C 
HETATM    2  N4  UNL     1     163.504  50.480  15.377  1.00  0.00    -0.336 N 
ATOM      3  H4  UNL     1     163.262  50.533  16.366  1.00  0.00     0.164 HD
HETATM    4  C3  UNL     1     164.076  51.596  14.710  1.00  0.00     0.246 C 
HETATM    5  O2  UNL     1     163.551  52.751  14.819  1.00  0.00    -0.271 OA
HETATM    6  C4  UNL     1     165.287  51.306  13.905  1.00  0.00     0.240 C 
HETATM    7  N5  UNL     1     166.419  50.879  14.631  1.00  0.00    -0.222 N 
HETATM    8  C5  UNL     1     167.259  50.122  13.865  1.00  0.00     0.388 C 
HETATM    9  N6  UNL     1     166.330  49.356  13.004  1.00  0.00    -0.005 N 
ATOM     10  H61 UNL     1     166.218  48.384  13.291  1.00  0.00     0.283 HD
ATOM     11  H62 UNL     1     166.700  49.168  12.072  1.00  0.00     0.283 HD
HETATM   12  C8  UNL     1     165.081  50.102  12.990  1.00  0.00     0.248 C 
HETATM   13  C10 UNL     1     163.867  49.298  13.260  1.00  0.00     0.207 C 
ENDROOT
BRANCH  12  14
HETATM   14  C9  UNL     1     164.915  50.584  11.574  1.00  0.00     0.155 A 
HETATM   15  N7  UNL     1     165.276  49.928  10.481  1.00  0.00    -0.270 N 
HETATM   16  N8  UNL     1     164.987  50.621   9.402  1.00  0.00    -0.227 N 
ATOM     17  H7  UNL     1     165.718  49.008  10.478  1.00  0.00     0.190 HD
HETATM   18  N9  UNL     1     164.420  51.771   9.834  1.00  0.00    -0.227 N 
ATOM     19  H8  UNL     1     165.158  50.347   8.434  1.00  0.00     0.210 HD
HETATM   20  N10 UNL     1     164.389  51.725  11.151  1.00  0.00    -0.270 N 
ATOM     21  H9  UNL     1     164.079  52.533   9.248  1.00  0.00     0.210 HD
ATOM     22  H10 UNL     1     164.016  52.458  11.754  1.00  0.00     0.190 HD
ENDBRANCH  12  14
BRANCH  13  23
HETATM   23  O10 UNL     1     162.867  49.736  12.335  1.00  0.00    -0.389 OA
ATOM     24  H10 UNL     1     162.707  49.040  11.709  1.00  0.00     0.210 HD
ENDBRANCH  13  23
BRANCH   7  25
HETATM   25  S1  UNL     1     166.816  51.523  16.079  1.00  0.00     0.210 S 
HETATM   26  O3  UNL     1     165.992  50.979  17.234  1.00  0.00    -0.578 OA
HETATM   27  O4  UNL     1     166.592  53.030  16.112  1.00  0.00    -0.578 OA
HETATM   28  O5  UNL     1     168.433  51.333  16.485  1.00  0.00    -0.578 OA
ENDBRANCH   7  25
BRANCH   8  29
HETATM   29  C6  UNL     1     168.181  49.187  14.551  1.00  0.00     0.245 C 
HETATM   30  O6  UNL     1     167.658  48.258  15.240  1.00  0.00    -0.644 OA
HETATM   31  O7  UNL     1     169.554  49.232  14.507  1.00  0.00    -0.644 OA
ENDBRANCH   8  29
BRANCH   8  32
HETATM   32  C7  UNL     1     168.136  50.976  13.015  1.00  0.00     0.245 C 
HETATM   33  O8  UNL     1     168.479  52.113  13.381  1.00  0.00    -0.644 OA
HETATM   34  O9  UNL     1     168.594  50.520  11.803  1.00  0.00    -0.644 OA
ENDBRANCH   8  32
BRANCH   1  35
HETATM   35  N3  UNL     1     161.835  49.108  14.470  1.00  0.00    -0.339 N 
HETATM   36  C1  UNL     1     160.852  49.045  15.450  1.00  0.00     0.209 C 
HETATM   37  N1  UNL     1     160.883  49.784  16.646  1.00  0.00    -0.062 NA
HETATM   38  N2  UNL     1     159.842  48.276  15.245  1.00  0.00    -0.241 N 
ATOM     39  H2  UNL     1     159.781  47.720  14.391  1.00  0.00     0.197 HD
ATOM     40  H3  UNL     1     161.501  49.035  13.509  1.00  0.00     0.164 HD
BRANCH  38  41
HETATM   41  O1  UNL     1     158.853  48.213  16.182  1.00  0.00    -0.287 OA
ATOM     42  H1  UNL     1     158.980  47.671  16.952  1.00  0.00     0.244 HD
ENDBRANCH  38  41
ENDBRANCH   1  35
TORSDOF 7
ENDMDL
MODEL 3
REMARK VINA RESULT: -5.803610470      4.760      7.220
REMARK  7 active torsions:
REMARK  status: ('A' for Active; 'I' for Inactive)
REMARK       I    between atoms: C1_2  and  N3_7 
REMARK    1  A    between atoms: N2_3  and  O1_5 
REMARK    2  A    between atoms: N3_7  and  C2_9 
REMARK    3  A    between atoms: N5_15  and  S1_16 
REMARK    4  A    between atoms: C5_20  and  C6_21 
REMARK    5  A    between atoms: C5_20  and  C7_24 
REMARK    6  A    between atoms: C8_30  and  C9_31 
REMARK    7  A    between atoms: C10_40  and  O10_41 
ROOT
HETATM    1  C2  UNL     1     163.121  51.014  12.479  1.00  0.00     0.218 C 
HETATM    2  N4  UNL     1     162.775  52.022  13.463  1.00  0.00    -0.336 N 
ATOM      3  H4  UNL     1     161.957  52.617  13.334  1.00  0.00     0.164 HD
HETATM    4  C3  UNL     1     163.600  52.164  14.612  1.00  0.00     0.246 C 
HETATM    5  O2  UNL     1     164.017  53.313  14.969  1.00  0.00    -0.271 OA
HETATM    6  C4  UNL     1     163.922  50.904  15.325  1.00  0.00     0.240 C 
HETATM    7  N5  UNL     1     162.830  50.238  15.919  1.00  0.00    -0.222 N 
HETATM    8  C5  UNL     1     163.059  48.898  16.047  1.00  0.00     0.388 C 
HETATM    9  N6  UNL     1     163.830  48.571  14.825  1.00  0.00    -0.005 N 
ATOM     10  H61 UNL     1     163.278  48.093  14.113  1.00  0.00     0.283 HD
ATOM     11  H62 UNL     1     164.518  47.832  14.966  1.00  0.00     0.283 HD
HETATM   12  C8  UNL     1     164.411  49.823  14.365  1.00  0.00     0.248 C 
HETATM   13  C10 UNL     1     164.215  50.113  12.926  1.00  0.00     0.207 C 
ENDROOT
BRANCH  12  14
HETATM   14  C9  UNL     1     165.898  49.659  14.525  1.00  0.00     0.155 A 
HETATM   15  N7  UNL     1     166.706  50.480  15.179  1.00  0.00    -0.270 N 
HETATM   16  N8  UNL     1     167.948  50.049  15.137  1.00  0.00    -0.227 N 
ATOM     17  H7  UNL     1     166.405  51.332  15.652  1.00  0.00     0.190 HD
HETATM   18  N9  UNL     1     167.922  48.901  14.420  1.00  0.00    -0.227 N 
ATOM     19  H8  UNL     1     168.765  50.490  15.560  1.00  0.00     0.210 HD
HETATM   20  N10 UNL     1     166.672  48.688  14.060  1.00  0.00    -0.270 N 
ATOM     21  H9  UNL     1     168.724  48.310  14.199  1.00  0.00     0.210 HD
ATOM     22  H10 UNL     1     166.349  47.895  13.507  1.00  0.00     0.190 HD
ENDBRANCH  12  14
BRANCH  13  23
HETATM   23  O10 UNL     1     165.458  50.624  12.435  1.00  0.00    -0.389 OA
ATOM     24  H10 UNL     1     166.121  49.950  12.527  1.00  0.00     0.210 HD
ENDBRANCH  13  23
BRANCH   7  25
HETATM   25  S1  UNL     1     161.623  51.046  16.668  1.00  0.00     0.210 S 
HETATM   26  O3  UNL     1     160.612  51.655  15.712  1.00  0.00    -0.578 OA
HETATM   27  O4  UNL     1     162.147  52.221  17.486  1.00  0.00    -0.578 OA
HETATM   28  O5  UNL     1     160.770  50.116  17.775  1.00  0.00    -0.578 OA
ENDBRANCH   7  25
BRANCH   8  29
HETATM   29  C6  UNL     1     161.890  47.994  16.149  1.00  0.00     0.245 C 
HETATM   30  O6  UNL     1     161.055  48.013  15.193  1.00  0.00    -0.644 OA
HETATM   31  O7  UNL     1     161.628  47.131  17.188  1.00  0.00    -0.644 OA
ENDBRANCH   8  29
BRANCH   8  32
HETATM   32  C7  UNL     1     163.885  48.601  17.251  1.00  0.00     0.245 C 
HETATM   33  O8  UNL     1     163.724  49.227  18.313  1.00  0.00    -0.644 OA
HETATM   34  O9  UNL     1     164.843  47.618  17.217  1.00  0.00    -0.644 OA
ENDBRANCH   8  32
BRANCH   1  35
HETATM   35  N3  UNL     1     163.580  51.705  11.286  1.00  0.00    -0.339 N 
HETATM   36  C1  UNL     1     163.801  51.198  10.010  1.00  0.00     0.209 C 
HETATM   37  N1  UNL     1     163.016  50.195   9.415  1.00  0.00    -0.062 NA
HETATM   38  N2  UNL     1     164.772  51.688   9.325  1.00  0.00    -0.241 N 
ATOM     39  H2  UNL     1     165.368  52.416   9.721  1.00  0.00     0.197 HD
ATOM     40  H3  UNL     1     163.767  52.701  11.400  1.00  0.00     0.164 HD
BRANCH  38  41
HETATM   41  O1  UNL     1     164.996  51.223   8.063  1.00  0.00    -0.287 OA
ATOM     42  H1  UNL     1     165.801  50.752   7.879  1.00  0.00     0.244 HD
ENDBRANCH  38  41
ENDBRANCH   1  35
TORSDOF 7
ENDMDL
MODEL 4
REMARK VINA RESULT: -5.779230260      5.007      7.385
REMARK  7 active torsions:
REMARK  status: ('A' for Active; 'I' for Inactive)
REMARK       I    between atoms: C1_2  and  N3_7 
REMARK    1  A    between atoms: N2_3  and  O1_5 
REMARK    2  A    between atoms: N3_7  and  C2_9 
REMARK    3  A    between atoms: N5_15  and  S1_16 
REMARK    4  A    between atoms: C5_20  and  C6_21 
REMARK    5  A    between atoms: C5_20  and  C7_24 
REMARK    6  A    between atoms: C8_30  and  C9_31 
REMARK    7  A    between atoms: C10_40  and  O10_41 
ROOT
HETATM    1  C2  UNL     1     164.884  50.536  12.590  1.00  0.00     0.218 C 
HETATM    2  N4  UNL     1     164.779  49.277  13.302  1.00  0.00    -0.336 N 
ATOM      3  H4  UNL     1     165.340  48.472  13.024  1.00  0.00     0.164 HD
HETATM    4  C3  UNL     1     163.876  49.187  14.396  1.00  0.00     0.246 C 
HETATM    5  O2  UNL     1     163.055  48.217  14.476  1.00  0.00    -0.271 OA
HETATM    6  C4  UNL     1     163.970  50.282  15.392  1.00  0.00     0.240 C 
HETATM    7  N5  UNL     1     165.182  50.355  16.111  1.00  0.00    -0.222 N 
HETATM    8  C5  UNL     1     165.434  51.621  16.557  1.00  0.00     0.388 C 
HETATM    9  N6  UNL     1     164.920  52.472  15.459  1.00  0.00    -0.005 N 
ATOM     10  H61 UNL     1     165.655  52.865  14.872  1.00  0.00     0.283 HD
ATOM     11  H62 UNL     1     164.530  53.358  15.781  1.00  0.00     0.283 HD
HETATM   12  C8  UNL     1     163.968  51.654  14.724  1.00  0.00     0.248 C 
HETATM   13  C10 UNL     1     164.152  51.646  13.254  1.00  0.00     0.207 C 
ENDROOT
BRANCH  12  14
HETATM   14  C9  UNL     1     162.628  52.303  14.939  1.00  0.00     0.155 A 
HETATM   15  N7  UNL     1     162.396  53.606  15.007  1.00  0.00    -0.270 N 
HETATM   16  N8  UNL     1     161.116  53.844  15.197  1.00  0.00    -0.227 N 
ATOM     17  H7  UNL     1     163.113  54.326  14.922  1.00  0.00     0.190 HD
HETATM   18  N9  UNL     1     160.513  52.635  15.255  1.00  0.00    -0.227 N 
ATOM     19  H8  UNL     1     160.669  54.758  15.283  1.00  0.00     0.210 HD
HETATM   20  N10 UNL     1     161.448  51.719  15.098  1.00  0.00    -0.270 N 
ATOM     21  H9  UNL     1     159.517  52.463  15.394  1.00  0.00     0.210 HD
ATOM     22  H10 UNL     1     161.288  50.712  15.099  1.00  0.00     0.190 HD
ENDBRANCH  12  14
BRANCH  13  23
HETATM   23  O10 UNL     1     162.848  51.744  12.674  1.00  0.00    -0.389 OA
ATOM     24  H10 UNL     1     162.217  51.898  13.368  1.00  0.00     0.210 HD
ENDBRANCH  13  23
BRANCH   7  25
HETATM   25  S1  UNL     1     165.966  49.019  16.630  1.00  0.00     0.210 S 
HETATM   26  O3  UNL     1     166.844  48.377  15.569  1.00  0.00    -0.578 OA
HETATM   27  O4  UNL     1     164.998  47.921  17.056  1.00  0.00    -0.578 OA
HETATM   28  O5  UNL     1     166.924  49.277  17.984  1.00  0.00    -0.578 OA
ENDBRANCH   7  25
BRANCH   8  29
HETATM   29  C6  UNL     1     166.837  51.993  16.854  1.00  0.00     0.245 C 
HETATM   30  O6  UNL     1     167.680  51.878  15.912  1.00  0.00    -0.644 OA
HETATM   31  O7  UNL     1     167.310  52.455  18.060  1.00  0.00    -0.644 OA
ENDBRANCH   8  29
BRANCH   8  32
HETATM   32  C7  UNL     1     164.682  51.916  17.809  1.00  0.00     0.245 C 
HETATM   33  O8  UNL     1     164.618  51.086  18.732  1.00  0.00    -0.644 OA
HETATM   34  O9  UNL     1     164.046  53.121  17.975  1.00  0.00    -0.644 OA
ENDBRANCH   8  32
BRANCH   1  35
HETATM   35  N3  UNL     1     164.299  50.348  11.274  1.00  0.00    -0.339 N 
HETATM   36  C1  UNL     1     164.849  50.609  10.024  1.00  0.00     0.209 C 
HETATM   37  N1  UNL     1     166.206  50.424   9.707  1.00  0.00    -0.062 NA
HETATM   38  N2  UNL     1     164.065  51.030   9.096  1.00  0.00    -0.241 N 
ATOM     39  H2  UNL     1     163.074  51.181   9.285  1.00  0.00     0.197 HD
ATOM     40  H3  UNL     1     163.351  49.971  11.266  1.00  0.00     0.164 HD
BRANCH  38  41
HETATM   41  O1  UNL     1     164.577  51.274   7.855  1.00  0.00    -0.287 OA
ATOM     42  H1  UNL     1     165.235  51.951   7.750  1.00  0.00     0.244 HD
ENDBRANCH  38  41
ENDBRANCH   1  35
TORSDOF 7
ENDMDL
MODEL 5
REMARK VINA RESULT: -5.765652404      2.680      3.930
REMARK  7 active torsions:
REMARK  status: ('A' for Active; 'I' for Inactive)
REMARK       I    between atoms: C1_2  and  N3_7 
REMARK    1  A    between atoms: N2_3  and  O1_5 
REMARK    2  A    between atoms: N3_7  and  C2_9 
REMARK    3  A    between atoms: N5_15  and  S1_16 
REMARK    4  A    between atoms: C5_20  and  C6_21 
REMARK    5  A    between atoms: C5_20  and  C7_24 
REMARK    6  A    between atoms: C8_30  and  C9_31 
REMARK    7  A    between atoms: C10_40  and  O10_41 
ROOT
HETATM    1  C2  UNL     1     161.634  49.094  16.184  1.00  0.00     0.218 C 
HETATM    2  N4  UNL     1     162.763  48.248  16.524  1.00  0.00    -0.336 N 
ATOM      3  H4  UNL     1     163.719  48.561  16.353  1.00  0.00     0.164 HD
HETATM    4  C3  UNL     1     162.511  46.974  17.101  1.00  0.00     0.246 C 
HETATM    5  O2  UNL     1     163.079  45.933  16.638  1.00  0.00    -0.271 OA
HETATM    6  C4  UNL     1     161.560  46.967  18.239  1.00  0.00     0.240 C 
HETATM    7  N5  UNL     1     161.984  47.653  19.397  1.00  0.00    -0.222 N 
HETATM    8  C5  UNL     1     160.929  48.087  20.147  1.00  0.00     0.388 C 
HETATM    9  N6  UNL     1     159.923  48.462  19.126  1.00  0.00    -0.005 N 
ATOM     10  H61 UNL     1     159.841  49.469  18.990  1.00  0.00     0.283 HD
ATOM     11  H62 UNL     1     158.962  48.298  19.423  1.00  0.00     0.283 HD
HETATM   12  C8  UNL     1     160.286  47.742  17.915  1.00  0.00     0.248 C 
HETATM   13  C10 UNL     1     160.338  48.567  16.686  1.00  0.00     0.207 C 
ENDROOT
BRANCH  12  14
HETATM   14  C9  UNL     1     159.166  46.767  17.676  1.00  0.00     0.155 A 
HETATM   15  N7  UNL     1     159.293  45.459  17.510  1.00  0.00    -0.270 N 
HETATM   16  N8  UNL     1     158.120  44.893  17.329  1.00  0.00    -0.227 N 
ATOM     17  H7  UNL     1     160.182  44.959  17.523  1.00  0.00     0.190 HD
HETATM   18  N9  UNL     1     157.209  45.892  17.379  1.00  0.00    -0.227 N 
ATOM     19  H8  UNL     1     157.935  43.901  17.179  1.00  0.00     0.210 HD
HETATM   20  N10 UNL     1     157.865  47.015  17.589  1.00  0.00    -0.270 N 
ATOM     21  H9  UNL     1     156.199  45.793  17.274  1.00  0.00     0.210 HD
ATOM     22  H10 UNL     1     157.438  47.937  17.672  1.00  0.00     0.190 HD
ENDBRANCH  12  14
BRANCH  13  23
HETATM   23  O10 UNL     1     159.724  47.800  15.647  1.00  0.00    -0.389 OA
ATOM     24  H10 UNL     1     160.392  47.275  15.221  1.00  0.00     0.210 HD
ENDBRANCH  13  23
BRANCH   7  25
HETATM   25  S1  UNL     1     163.531  47.599  19.921  1.00  0.00     0.210 S 
HETATM   26  O3  UNL     1     164.469  48.507  19.146  1.00  0.00    -0.578 OA
HETATM   27  O4  UNL     1     164.130  46.204  19.782  1.00  0.00    -0.578 OA
HETATM   28  O5  UNL     1     163.708  47.968  21.549  1.00  0.00    -0.578 OA
ENDBRANCH   7  25
BRANCH   8  29
HETATM   29  C6  UNL     1     161.145  49.226  21.069  1.00  0.00     0.245 C 
HETATM   30  O6  UNL     1     161.522  50.325  20.556  1.00  0.00    -0.644 OA
HETATM   31  O7  UNL     1     160.972  49.203  22.433  1.00  0.00    -0.644 OA
ENDBRANCH   8  29
BRANCH   8  32
HETATM   32  C7  UNL     1     160.384  46.995  21.002  1.00  0.00     0.245 C 
HETATM   33  O8  UNL     1     159.162  46.878  21.197  1.00  0.00    -0.644 OA
HETATM   34  O9  UNL     1     161.224  46.083  21.592  1.00  0.00    -0.644 OA
ENDBRANCH   8  32
BRANCH   1  35
HETATM   35  N3  UNL     1     161.552  49.156  14.736  1.00  0.00    -0.339 N 
HETATM   36  C1  UNL     1     161.678  50.257  13.897  1.00  0.00     0.209 C 
HETATM   37  N1  UNL     1     162.562  51.327  14.129  1.00  0.00    -0.062 NA
HETATM   38  N2  UNL     1     160.955  50.294  12.834  1.00  0.00    -0.241 N 
ATOM     39  H2  UNL     1     160.299  49.539  12.630  1.00  0.00     0.197 HD
ATOM     40  H3  UNL     1     161.377  48.267  14.268  1.00  0.00     0.164 HD
BRANCH  38  41
HETATM   41  O1  UNL     1     161.076  51.354  11.984  1.00  0.00    -0.287 OA
ATOM     42  H1  UNL     1     160.481  51.426  11.247  1.00  0.00     0.244 HD
ENDBRANCH  38  41
ENDBRANCH   1  35
TORSDOF 7
ENDMDL
