MODEL 1
REMARK VINA RESULT: -7.166916781      0.000      0.000
REMARK  9 active torsions:
REMARK  status: ('A' for Active; 'I' for Inactive)
REMARK    1  A    between atoms: C2_2  and  C3_3 
REMARK    2  A    between atoms: C3_3  and  N1_4 
REMARK    3  A    between atoms: C5_12  and  N3_13 
REMARK    4  A    between atoms: C5_12  and  C6_17 
REMARK    5  A    between atoms: C6_17  and  C7_18 
REMARK    6  A    between atoms: C7_18  and  N4_19 
REMARK    7  A    between atoms: N4_19  and  C8_21 
REMARK    8  A    between atoms: C9_24  and  N6_25 
REMARK    9  A    between atoms: C12_28  and  O2_29 
ROOT
HETATM    1  C3  UNL     1      14.672 -24.858  20.414  1.00  0.00     0.364 C 
HETATM    2  N2  UNL     1      13.862 -25.821  19.700  1.00  0.00    -0.302 N 
ATOM      3  H2  UNL     1      13.537 -25.745  18.735  1.00  0.00     0.166 HD
HETATM    4  C4  UNL     1      13.605 -26.891  20.595  1.00  0.00     0.286 C 
HETATM    5  O1  UNL     1      12.769 -27.812  20.464  1.00  0.00    -0.269 OA
HETATM    6  C5  UNL     1      14.517 -26.719  21.729  1.00  0.00     0.369 C 
HETATM    7  N9  UNL     1      14.741 -25.309  21.773  1.00  0.00     0.022 N 
ATOM      8  H91 UNL     1      14.105 -24.814  22.398  1.00  0.00     0.286 HD
ATOM      9  H92 UNL     1      15.606 -25.048  22.246  1.00  0.00     0.286 HD
ENDROOT
BRANCH   6  10
HETATM   10  N3  UNL     1      15.766 -27.377  21.404  1.00  0.00    -0.035 N 
ATOM     11  H33 UNL     1      15.920 -27.454  20.399  1.00  0.00     0.278 HD
ATOM     12  H32 UNL     1      16.581 -26.806  21.625  1.00  0.00     0.278 HD
ATOM     13  H31 UNL     1      15.778 -28.282  21.875  1.00  0.00     0.278 HD
ENDBRANCH   6  10
BRANCH   6  14
HETATM   14  C6  UNL     1      13.996 -27.288  23.022  1.00  0.00     0.100 C 
BRANCH  14  15
HETATM   15  C7  UNL     1      13.649 -26.245  24.032  1.00  0.00     0.143 C 
BRANCH  15  16
HETATM   16  N4  UNL     1      12.257 -26.326  24.335  1.00  0.00    -0.226 N 
ATOM     17  H4  UNL     1      11.980 -26.148  25.300  1.00  0.00     0.177 HD
BRANCH  16  18
HETATM   18  C8  UNL     1      11.321 -26.604  23.501  1.00  0.00     0.681 A 
HETATM   19  N5  UNL     1      10.542 -27.661  23.788  1.00  0.00    -0.174 N 
HETATM   20  C9  UNL     1       9.519 -28.070  22.999  1.00  0.00     0.155 A 
ATOM     21  H5  UNL     1      10.731 -28.183  24.644  1.00  0.00     0.186 HD
HETATM   22  C12 UNL     1       9.310 -27.330  21.863  1.00  0.00     0.152 A 
HETATM   23  C13 UNL     1      10.096 -26.231  21.536  1.00  0.00     0.168 A 
HETATM   24  N7  UNL     1       9.831 -25.506  20.348  1.00  0.00    -0.079 NA
HETATM   25  N8  UNL     1      11.088 -25.906  22.384  1.00  0.00    -0.176 N 
ATOM     26  H8  UNL     1      11.680 -25.104  22.169  1.00  0.00     0.185 HD
BRANCH  20  27
HETATM   27  N6  UNL     1       8.732 -29.177  23.334  1.00  0.00    -0.373 N 
HETATM   28  C10 UNL     1       9.176 -30.504  22.872  1.00  0.00     0.150 C 
HETATM   29  C11 UNL     1       7.527 -29.103  24.096  1.00  0.00     0.150 C 
ENDBRANCH  20  27
BRANCH  22  30
HETATM   30  O2  UNL     1       8.303 -27.662  21.004  1.00  0.00    -0.354 OA
ATOM     31  H2  UNL     1       8.325 -28.490  20.539  1.00  0.00     0.218 HD
ENDBRANCH  22  30
ENDBRANCH  16  18
ENDBRANCH  15  16
ENDBRANCH  14  15
ENDBRANCH   6  14
BRANCH   1  32
HETATM   32  C2  UNL     1      16.018 -24.679  19.774  1.00  0.00     0.089 C 
HETATM   33  C1  UNL     1      16.023 -25.335  18.418  1.00  0.00     0.011 C 
ENDBRANCH   1  32
BRANCH   1  34
HETATM   34  N1  UNL     1      13.980 -23.567  20.311  1.00  0.00    -0.026 N 
ATOM     35  H13 UNL     1      14.601 -22.767  20.433  1.00  0.00     0.279 HD
ATOM     36  H12 UNL     1      13.675 -23.349  19.362  1.00  0.00     0.279 HD
ATOM     37  H11 UNL     1      13.215 -23.590  20.985  1.00  0.00     0.279 HD
ENDBRANCH   1  34
TORSDOF 9
ENDMDL
MODEL 2
REMARK VINA RESULT: -7.108434074      9.542     12.226
REMARK  9 active torsions:
REMARK  status: ('A' for Active; 'I' for Inactive)
REMARK    1  A    between atoms: C2_2  and  C3_3 
REMARK    2  A    between atoms: C3_3  and  N1_4 
REMARK    3  A    between atoms: C5_12  and  N3_13 
REMARK    4  A    between atoms: C5_12  and  C6_17 
REMARK    5  A    between atoms: C6_17  and  C7_18 
REMARK    6  A    between atoms: C7_18  and  N4_19 
REMARK    7  A    between atoms: N4_19  and  C8_21 
REMARK    8  A    between atoms: C9_24  and  N6_25 
REMARK    9  A    between atoms: C12_28  and  O2_29 
ROOT
HETATM    1  C3  UNL     1      22.071 -33.700  14.359  1.00  0.00     0.364 C 
HETATM    2  N2  UNL     1      22.846 -33.559  15.573  1.00  0.00    -0.302 N 
ATOM      3  H2  UNL     1      23.363 -34.296  16.052  1.00  0.00     0.166 HD
HETATM    4  C4  UNL     1      22.751 -32.200  15.969  1.00  0.00     0.286 C 
HETATM    5  O1  UNL     1      23.078 -31.701  17.069  1.00  0.00    -0.269 OA
HETATM    6  C5  UNL     1      22.186 -31.468  14.832  1.00  0.00     0.369 C 
HETATM    7  N9  UNL     1      21.400 -32.450  14.154  1.00  0.00     0.022 N 
ATOM      8  H91 UNL     1      20.423 -32.460  14.444  1.00  0.00     0.286 HD
ATOM      9  H92 UNL     1      21.235 -32.232  13.171  1.00  0.00     0.286 HD
ENDROOT
BRANCH   6  10
HETATM   10  N3  UNL     1      23.279 -31.072  13.967  1.00  0.00    -0.035 N 
ATOM     11  H33 UNL     1      23.487 -30.075  14.027  1.00  0.00     0.278 HD
ATOM     12  H32 UNL     1      24.182 -31.419  14.289  1.00  0.00     0.278 HD
ATOM     13  H31 UNL     1      23.056 -31.372  13.018  1.00  0.00     0.278 HD
ENDBRANCH   6  10
BRANCH   6  14
HETATM   14  C6  UNL     1      21.411 -30.238  15.222  1.00  0.00     0.100 C 
BRANCH  14  15
HETATM   15  C7  UNL     1      20.040 -30.537  15.730  1.00  0.00     0.143 C 
BRANCH  15  16
HETATM   16  N4  UNL     1      19.839 -29.862  16.971  1.00  0.00    -0.226 N 
ATOM     17  H4  UNL     1      19.202 -29.065  16.968  1.00  0.00     0.177 HD
BRANCH  16  18
HETATM   18  C8  UNL     1      20.388 -30.169  18.091  1.00  0.00     0.681 A 
HETATM   19  N5  UNL     1      19.831 -31.174  18.788  1.00  0.00    -0.174 N 
HETATM   20  C9  UNL     1      20.302 -31.603  19.983  1.00  0.00     0.155 A 
ATOM     21  H5  UNL     1      19.011 -31.638  18.397  1.00  0.00     0.186 HD
HETATM   22  C12 UNL     1      21.407 -30.944  20.460  1.00  0.00     0.152 A 
HETATM   23  C13 UNL     1      22.008 -29.901  19.765  1.00  0.00     0.168 A 
HETATM   24  N7  UNL     1      23.148 -29.259  20.309  1.00  0.00    -0.079 NA
HETATM   25  N8  UNL     1      21.464 -29.549  18.586  1.00  0.00    -0.176 N 
ATOM     26  H8  UNL     1      21.885 -28.787  18.055  1.00  0.00     0.185 HD
BRANCH  20  27
HETATM   27  N6  UNL     1      19.692 -32.653  20.677  1.00  0.00    -0.373 N 
HETATM   28  C10 UNL     1      18.562 -32.329  21.566  1.00  0.00     0.150 C 
HETATM   29  C11 UNL     1      20.095 -34.019  20.580  1.00  0.00     0.150 C 
ENDBRANCH  20  27
BRANCH  22  30
HETATM   30  O2  UNL     1      21.957 -31.303  21.656  1.00  0.00    -0.354 OA
ATOM     31  H2  UNL     1      22.052 -30.662  22.350  1.00  0.00     0.218 HD
ENDBRANCH  22  30
ENDBRANCH  16  18
ENDBRANCH  15  16
ENDBRANCH  14  15
ENDBRANCH   6  14
BRANCH   1  32
HETATM   32  C2  UNL     1      22.924 -34.119  13.198  1.00  0.00     0.089 C 
HETATM   33  C1  UNL     1      22.044 -34.476  12.029  1.00  0.00     0.011 C 
ENDBRANCH   1  32
BRANCH   1  34
HETATM   34  N1  UNL     1      21.115 -34.789  14.595  1.00  0.00    -0.026 N 
ATOM     35  H13 UNL     1      20.794 -35.237  13.735  1.00  0.00     0.279 HD
ATOM     36  H12 UNL     1      21.541 -35.614  15.018  1.00  0.00     0.279 HD
ATOM     37  H11 UNL     1      20.356 -34.398  15.152  1.00  0.00     0.279 HD
ENDBRANCH   1  34
TORSDOF 9
ENDMDL
MODEL 3
REMARK VINA RESULT: -6.989406111      1.858      3.246
REMARK  9 active torsions:
REMARK  status: ('A' for Active; 'I' for Inactive)
REMARK    1  A    between atoms: C2_2  and  C3_3 
REMARK    2  A    between atoms: C3_3  and  N1_4 
REMARK    3  A    between atoms: C5_12  and  N3_13 
REMARK    4  A    between atoms: C5_12  and  C6_17 
REMARK    5  A    between atoms: C6_17  and  C7_18 
REMARK    6  A    between atoms: C7_18  and  N4_19 
REMARK    7  A    between atoms: N4_19  and  C8_21 
REMARK    8  A    between atoms: C9_24  and  N6_25 
REMARK    9  A    between atoms: C12_28  and  O2_29 
ROOT
HETATM    1  C3  UNL     1      14.139 -26.640  22.975  1.00  0.00     0.364 C 
HETATM    2  N2  UNL     1      14.652 -25.446  22.339  1.00  0.00    -0.302 N 
ATOM      3  H2  UNL     1      14.757 -24.526  22.768  1.00  0.00     0.166 HD
HETATM    4  C4  UNL     1      14.983 -25.798  21.004  1.00  0.00     0.286 C 
HETATM    5  O1  UNL     1      15.243 -25.027  20.054  1.00  0.00    -0.269 OA
HETATM    6  C5  UNL     1      14.965 -27.262  20.938  1.00  0.00     0.369 C 
HETATM    7  N9  UNL     1      14.027 -27.635  21.949  1.00  0.00     0.022 N 
ATOM      8  H91 UNL     1      13.077 -27.754  21.599  1.00  0.00     0.286 HD
ATOM      9  H92 UNL     1      14.153 -28.588  22.290  1.00  0.00     0.286 HD
ENDROOT
BRANCH   6  10
HETATM   10  N3  UNL     1      16.276 -27.744  21.321  1.00  0.00    -0.035 N 
ATOM     11  H33 UNL     1      16.817 -28.088  20.528  1.00  0.00     0.278 HD
ATOM     12  H32 UNL     1      16.906 -26.993  21.602  1.00  0.00     0.278 HD
ATOM     13  H31 UNL     1      16.153 -28.448  22.049  1.00  0.00     0.278 HD
ENDBRANCH   6  10
BRANCH   6  14
HETATM   14  C6  UNL     1      14.632 -27.806  19.575  1.00  0.00     0.100 C 
BRANCH  14  15
HETATM   15  C7  UNL     1      13.255 -28.377  19.484  1.00  0.00     0.143 C 
BRANCH  15  16
HETATM   16  N4  UNL     1      12.315 -27.315  19.324  1.00  0.00    -0.226 N 
ATOM     17  H4  UNL     1      12.581 -26.548  18.707  1.00  0.00     0.177 HD
BRANCH  16  18
HETATM   18  C8  UNL     1      11.163 -27.239  19.888  1.00  0.00     0.681 A 
HETATM   19  N5  UNL     1      10.773 -28.296  20.621  1.00  0.00    -0.174 N 
HETATM   20  C9  UNL     1       9.585 -28.355  21.269  1.00  0.00     0.155 A 
ATOM     21  H5  UNL     1      11.403 -29.095  20.693  1.00  0.00     0.186 HD
HETATM   22  C12 UNL     1       8.779 -27.252  21.139  1.00  0.00     0.152 A 
HETATM   23  C13 UNL     1       9.152 -26.143  20.390  1.00  0.00     0.168 A 
HETATM   24  N7  UNL     1       8.276 -25.033  20.292  1.00  0.00    -0.079 NA
HETATM   25  N8  UNL     1      10.352 -26.182  19.783  1.00  0.00    -0.176 N 
ATOM     26  H8  UNL     1      10.651 -25.381  19.226  1.00  0.00     0.185 HD
BRANCH  20  27
HETATM   27  N6  UNL     1       9.216 -29.474  22.022  1.00  0.00    -0.373 N 
HETATM   28  C10 UNL     1       9.586 -29.500  23.449  1.00  0.00     0.150 C 
HETATM   29  C11 UNL     1       8.501 -30.593  21.497  1.00  0.00     0.150 C 
ENDBRANCH  20  27
BRANCH  22  30
HETATM   30  O2  UNL     1       7.562 -27.215  21.756  1.00  0.00    -0.354 OA
ATOM     31  H2  UNL     1       6.795 -26.917  21.282  1.00  0.00     0.218 HD
ENDBRANCH  22  30
ENDBRANCH  16  18
ENDBRANCH  15  16
ENDBRANCH  14  15
ENDBRANCH   6  14
BRANCH   1  32
HETATM   32  C2  UNL     1      14.994 -27.067  24.132  1.00  0.00     0.089 C 
HETATM   33  C1  UNL     1      15.059 -25.956  25.147  1.00  0.00     0.011 C 
ENDBRANCH   1  32
BRANCH   1  34
HETATM   34  N1  UNL     1      12.825 -26.289  23.528  1.00  0.00    -0.026 N 
ATOM     35  H13 UNL     1      12.773 -26.396  24.542  1.00  0.00     0.279 HD
ATOM     36  H12 UNL     1      12.627 -25.289  23.494  1.00  0.00     0.279 HD
ATOM     37  H11 UNL     1      12.137 -26.853  23.029  1.00  0.00     0.279 HD
ENDBRANCH   1  34
TORSDOF 9
ENDMDL
MODEL 4
REMARK VINA RESULT: -6.920361592      5.310      9.107
REMARK  9 active torsions:
REMARK  status: ('A' for Active; 'I' for Inactive)
REMARK    1  A    between atoms: C2_2  and  C3_3 
REMARK    2  A    between atoms: C3_3  and  N1_4 
REMARK    3  A    between atoms: C5_12  and  N3_13 
REMARK    4  A    between atoms: C5_12  and  C6_17 
REMARK    5  A    between atoms: C6_17  and  C7_18 
REMARK    6  A    between atoms: C7_18  and  N4_19 
REMARK    7  A    between atoms: N4_19  and  C8_21 
REMARK    8  A    between atoms: C9_24  and  N6_25 
REMARK    9  A    between atoms: C12_28  and  O2_29 
ROOT
HETATM    1  C3  UNL     1      14.091 -26.055  20.712  1.00  0.00     0.364 C 
HETATM    2  N2  UNL     1      15.057 -25.004  20.947  1.00  0.00    -0.302 N 
ATOM      3  H2  UNL     1      15.055 -24.340  21.721  1.00  0.00     0.166 HD
HETATM    4  C4  UNL     1      16.009 -25.074  19.896  1.00  0.00     0.286 C 
HETATM    5  O1  UNL     1      16.873 -24.223  19.592  1.00  0.00    -0.269 OA
HETATM    6  C5  UNL     1      15.792 -26.354  19.216  1.00  0.00     0.369 C 
HETATM    7  N9  UNL     1      14.405 -26.621  19.433  1.00  0.00     0.022 N 
ATOM      8  H91 UNL     1      13.804 -26.287  18.680  1.00  0.00     0.286 HD
ATOM      9  H92 UNL     1      14.163 -27.609  19.354  1.00  0.00     0.286 HD
ENDROOT
BRANCH   6  10
HETATM   10  N3  UNL     1      16.571 -27.364  19.902  1.00  0.00    -0.035 N 
ATOM     11  H33 UNL     1      16.987 -27.020  20.768  1.00  0.00     0.278 HD
ATOM     12  H32 UNL     1      15.993 -28.099  20.310  1.00  0.00     0.278 HD
ATOM     13  H31 UNL     1      17.266 -27.725  19.248  1.00  0.00     0.278 HD
ENDBRANCH   6  10
BRANCH   6  14
HETATM   14  C6  UNL     1      16.186 -26.347  17.764  1.00  0.00     0.100 C 
BRANCH  14  15
HETATM   15  C7  UNL     1      16.097 -27.689  17.118  1.00  0.00     0.143 C 
BRANCH  15  16
HETATM   16  N4  UNL     1      16.815 -27.668  15.885  1.00  0.00    -0.226 N 
ATOM     17  H4  UNL     1      16.544 -26.959  15.202  1.00  0.00     0.177 HD
BRANCH  16  18
HETATM   18  C8  UNL     1      17.771 -28.459  15.557  1.00  0.00     0.681 A 
HETATM   19  N5  UNL     1      18.303 -29.210  16.537  1.00  0.00    -0.174 N 
HETATM   20  C9  UNL     1      19.317 -30.087  16.337  1.00  0.00     0.155 A 
ATOM     21  H5  UNL     1      17.925 -29.115  17.479  1.00  0.00     0.186 HD
HETATM   22  C12 UNL     1      19.785 -30.174  15.050  1.00  0.00     0.152 A 
HETATM   23  C13 UNL     1      19.257 -29.413  14.014  1.00  0.00     0.168 A 
HETATM   24  N7  UNL     1      19.783 -29.548  12.705  1.00  0.00    -0.079 NA
HETATM   25  N8  UNL     1      18.253 -28.571  14.315  1.00  0.00    -0.176 N 
ATOM     26  H8  UNL     1      17.847 -28.000  13.573  1.00  0.00     0.185 HD
BRANCH  20  27
HETATM   27  N6  UNL     1      19.843 -30.850  17.385  1.00  0.00    -0.373 N 
HETATM   28  C10 UNL     1      20.955 -30.277  18.166  1.00  0.00     0.150 C 
HETATM   29  C11 UNL     1      19.372 -32.148  17.747  1.00  0.00     0.150 C 
ENDBRANCH  20  27
BRANCH  22  30
HETATM   30  O2  UNL     1      20.804 -31.030  14.748  1.00  0.00    -0.354 OA
ATOM     31  H2  UNL     1      20.812 -31.487  13.915  1.00  0.00     0.218 HD
ENDBRANCH  22  30
ENDBRANCH  16  18
ENDBRANCH  15  16
ENDBRANCH  14  15
ENDBRANCH   6  14
BRANCH   1  32
HETATM   32  C2  UNL     1      14.079 -27.061  21.825  1.00  0.00     0.089 C 
HETATM   33  C1  UNL     1      14.512 -26.399  23.107  1.00  0.00     0.011 C 
ENDBRANCH   1  32
BRANCH   1  34
HETATM   34  N1  UNL     1      12.769 -25.416  20.705  1.00  0.00    -0.026 N 
ATOM     35  H13 UNL     1      12.016 -26.051  20.436  1.00  0.00     0.279 HD
ATOM     36  H12 UNL     1      12.423 -25.196  21.639  1.00  0.00     0.279 HD
ATOM     37  H11 UNL     1      12.841 -24.599  20.099  1.00  0.00     0.279 HD
ENDBRANCH   1  34
TORSDOF 9
ENDMDL
MODEL 5
REMARK VINA RESULT: -6.869444029      6.095      9.807
REMARK  9 active torsions:
REMARK  status: ('A' for Active; 'I' for Inactive)
REMARK    1  A    between atoms: C2_2  and  C3_3 
REMARK    2  A    between atoms: C3_3  and  N1_4 
REMARK    3  A    between atoms: C5_12  and  N3_13 
REMARK    4  A    between atoms: C5_12  and  C6_17 
REMARK    5  A    between atoms: C6_17  and  C7_18 
REMARK    6  A    between atoms: C7_18  and  N4_19 
REMARK    7  A    between atoms: N4_19  and  C8_21 
REMARK    8  A    between atoms: C9_24  and  N6_25 
REMARK    9  A    between atoms: C12_28  and  O2_29 
ROOT
HETATM    1  C3  UNL     1      15.576 -25.310  19.711  1.00  0.00     0.364 C 
HETATM    2  N2  UNL     1      14.356 -25.969  19.297  1.00  0.00    -0.302 N 
ATOM      3  H2  UNL     1      13.428 -25.549  19.242  1.00  0.00     0.166 HD
HETATM    4  C4  UNL     1      14.697 -27.310  18.980  1.00  0.00     0.286 C 
HETATM    5  O1  UNL     1      13.918 -28.272  18.799  1.00  0.00    -0.269 OA
HETATM    6  C5  UNL     1      16.159 -27.366  18.902  1.00  0.00     0.369 C 
HETATM    7  N9  UNL     1      16.585 -26.326  19.784  1.00  0.00     0.022 N 
ATOM      8  H91 UNL     1      16.770 -26.648  20.734  1.00  0.00     0.286 HD
ATOM      9  H92 UNL     1      17.525 -25.983  19.586  1.00  0.00     0.286 HD
ENDROOT
BRANCH   6  10
HETATM   10  N3  UNL     1      16.549 -27.017  17.552  1.00  0.00    -0.035 N 
ATOM     11  H33 UNL     1      15.976 -27.477  16.844  1.00  0.00     0.278 HD
ATOM     12  H32 UNL     1      16.317 -26.053  17.311  1.00  0.00     0.278 HD
ATOM     13  H31 UNL     1      17.543 -27.221  17.447  1.00  0.00     0.278 HD
ENDBRANCH   6  10
BRANCH   6  14
HETATM   14  C6  UNL     1      16.736 -28.715  19.236  1.00  0.00     0.100 C 
BRANCH  14  15
HETATM   15  C7  UNL     1      17.753 -29.186  18.250  1.00  0.00     0.143 C 
BRANCH  15  16
HETATM   16  N4  UNL     1      18.357 -30.385  18.733  1.00  0.00    -0.226 N 
ATOM     17  H4  UNL     1      17.731 -31.122  19.059  1.00  0.00     0.177 HD
BRANCH  16  18
HETATM   18  C8  UNL     1      19.618 -30.620  18.794  1.00  0.00     0.681 A 
HETATM   19  N5  UNL     1      20.160 -31.307  17.774  1.00  0.00    -0.174 N 
HETATM   20  C9  UNL     1      21.475 -31.628  17.706  1.00  0.00     0.155 A 
ATOM     21  H5  UNL     1      19.551 -31.603  17.012  1.00  0.00     0.186 HD
HETATM   22  C12 UNL     1      22.247 -31.203  18.758  1.00  0.00     0.152 A 
HETATM   23  C13 UNL     1      21.719 -30.491  19.828  1.00  0.00     0.168 A 
HETATM   24  N7  UNL     1      22.568 -30.079  20.885  1.00  0.00    -0.079 NA
HETATM   25  N8  UNL     1      20.401 -30.223  19.803  1.00  0.00    -0.176 N 
ATOM     26  H8  UNL     1      19.988 -29.701  20.575  1.00  0.00     0.185 HD
BRANCH  20  27
HETATM   27  N6  UNL     1      22.000 -32.345  16.626  1.00  0.00    -0.373 N 
HETATM   28  C10 UNL     1      22.488 -31.583  15.463  1.00  0.00     0.150 C 
HETATM   29  C11 UNL     1      22.093 -33.769  16.579  1.00  0.00     0.150 C 
ENDBRANCH  20  27
BRANCH  22  30
HETATM   30  O2  UNL     1      23.584 -31.476  18.781  1.00  0.00    -0.354 OA
ATOM     31  H2  UNL     1      24.148 -31.047  19.413  1.00  0.00     0.218 HD
ENDBRANCH  22  30
ENDBRANCH  16  18
ENDBRANCH  15  16
ENDBRANCH  14  15
ENDBRANCH   6  14
BRANCH   1  32
HETATM   32  C2  UNL     1      15.935 -24.175  18.797  1.00  0.00     0.089 C 
HETATM   33  C1  UNL     1      14.813 -23.171  18.778  1.00  0.00     0.011 C 
ENDBRANCH   1  32
BRANCH   1  34
HETATM   34  N1  UNL     1      15.310 -24.723  21.030  1.00  0.00    -0.026 N 
ATOM     35  H13 UNL     1      15.949 -25.052  21.754  1.00  0.00     0.279 HD
ATOM     36  H12 UNL     1      15.551 -23.733  21.086  1.00  0.00     0.279 HD
ATOM     37  H11 UNL     1      14.330 -24.911  21.243  1.00  0.00     0.279 HD
ENDBRANCH   1  34
TORSDOF 9
ENDMDL
