MODEL 1
REMARK VINA RESULT: -7.048044913      0.000      0.000
REMARK  5 active torsions:
REMARK  status: ('A' for Active; 'I' for Inactive)
REMARK    1  A    between atoms: C2_3  and  C3_4 
REMARK    2  A    between atoms: C3_4  and  O1_5 
REMARK    3  A    between atoms: C3_4  and  O2_7 
REMARK    4  A    between atoms: C5_11  and  N2_12 
REMARK    5  A    between atoms: C8_15  and  N3_16 
ROOT
HETATM    1  N1  UNL     1     -24.742 -18.888 -20.563  1.00  0.00    -0.191 NA
HETATM    2  C1  UNL     1     -23.753 -18.349 -20.825  1.00  0.00     0.134 C 
HETATM    3  C2  UNL     1     -22.504 -17.675 -21.181  1.00  0.00     0.310 C 
HETATM    4  O3  UNL     1     -21.389 -18.302 -20.673  1.00  0.00    -0.335 OA
HETATM    5  C4  UNL     1     -20.853 -19.091 -21.702  1.00  0.00     0.227 C 
HETATM    6  C5  UNL     1     -21.930 -19.002 -22.772  1.00  0.00     0.260 C 
HETATM    7  O5  UNL     1     -22.407 -17.713 -22.571  1.00  0.00    -0.312 OA
ENDROOT
BRANCH   3   8
HETATM    8  C3  UNL     1     -22.558 -16.260 -20.655  1.00  0.00     0.334 C 
BRANCH   8   9
HETATM    9  O1  UNL     1     -23.041 -16.241 -19.347  1.00  0.00    -0.366 OA
ATOM     10  H1  UNL     1     -22.744 -17.006 -18.870  1.00  0.00     0.212 HD
ENDBRANCH   8   9
BRANCH   8  11
HETATM   11  O2  UNL     1     -23.466 -15.550 -21.438  1.00  0.00    -0.366 OA
ATOM     12  H2  UNL     1     -23.691 -14.754 -20.971  1.00  0.00     0.212 HD
ENDBRANCH   8  11
ENDBRANCH   3   8
BRANCH   6  13
HETATM   13  N2  UNL     1     -21.401 -19.194 -24.099  1.00  0.00    -0.280 N 
HETATM   14  C6  UNL     1     -20.295 -18.617 -24.550  1.00  0.00     0.102 A 
HETATM   15  C7  UNL     1     -19.851 -18.849 -25.835  1.00  0.00     0.065 A 
HETATM   16  C8  UNL     1     -20.548 -19.692 -26.689  1.00  0.00     0.103 A 
HETATM   17  N4  UNL     1     -21.664 -20.253 -26.185  1.00  0.00    -0.295 N 
HETATM   18  C9  UNL     1     -22.072 -20.007 -24.928  1.00  0.00     0.330 A 
ATOM     19  H4  UNL     1     -22.213 -20.880 -26.773  1.00  0.00     0.172 HD
HETATM   20  O4  UNL     1     -23.130 -20.579 -24.544  1.00  0.00    -0.246 OA
BRANCH  16  21
HETATM   21  N3  UNL     1     -20.171 -19.933 -27.885  1.00  0.00    -0.385 N 
ATOM     22  H32 UNL     1     -19.225 -19.709 -28.194  1.00  0.00     0.157 HD
ATOM     23  H31 UNL     1     -20.783 -20.354 -28.584  1.00  0.00     0.157 HD
ENDBRANCH  16  21
ENDBRANCH   6  13
TORSDOF 5
ENDMDL
MODEL 2
REMARK VINA RESULT: -6.511343247      1.408      1.735
REMARK  5 active torsions:
REMARK  status: ('A' for Active; 'I' for Inactive)
REMARK    1  A    between atoms: C2_3  and  C3_4 
REMARK    2  A    between atoms: C3_4  and  O1_5 
REMARK    3  A    between atoms: C3_4  and  O2_7 
REMARK    4  A    between atoms: C5_11  and  N2_12 
REMARK    5  A    between atoms: C8_15  and  N3_16 
ROOT
HETATM    1  N1  UNL     1     -24.134 -16.054 -21.529  1.00  0.00    -0.191 NA
HETATM    2  C1  UNL     1     -23.467 -16.991 -21.412  1.00  0.00     0.134 C 
HETATM    3  C2  UNL     1     -22.613 -18.172 -21.286  1.00  0.00     0.310 C 
HETATM    4  O3  UNL     1     -23.303 -19.355 -21.426  1.00  0.00    -0.335 OA
HETATM    5  C4  UNL     1     -23.119 -19.788 -22.748  1.00  0.00     0.227 C 
HETATM    6  C5  UNL     1     -22.432 -18.593 -23.388  1.00  0.00     0.260 C 
HETATM    7  O5  UNL     1     -21.682 -18.108 -22.323  1.00  0.00    -0.312 OA
ENDROOT
BRANCH   3   8
HETATM    8  C3  UNL     1     -21.952 -18.142 -19.929  1.00  0.00     0.334 C 
BRANCH   8   9
HETATM    9  O1  UNL     1     -21.731 -19.438 -19.463  1.00  0.00    -0.366 OA
ATOM     10  H1  UNL     1     -21.931 -19.498 -18.537  1.00  0.00     0.212 HD
ENDBRANCH   8   9
BRANCH   8  11
HETATM   11  O2  UNL     1     -22.835 -17.533 -19.039  1.00  0.00    -0.366 OA
ATOM     12  H2  UNL     1     -22.319 -17.056 -18.400  1.00  0.00     0.212 HD
ENDBRANCH   8  11
ENDBRANCH   3   8
BRANCH   6  13
HETATM   13  N2  UNL     1     -21.613 -18.969 -24.512  1.00  0.00    -0.280 N 
HETATM   14  C6  UNL     1     -20.359 -18.573 -24.685  1.00  0.00     0.102 A 
HETATM   15  C7  UNL     1     -19.637 -18.975 -25.790  1.00  0.00     0.065 A 
HETATM   16  C8  UNL     1     -20.203 -19.803 -26.748  1.00  0.00     0.103 A 
HETATM   17  N4  UNL     1     -21.477 -20.178 -26.528  1.00  0.00    -0.295 N 
HETATM   18  C9  UNL     1     -22.156 -19.770 -25.442  1.00  0.00     0.330 A 
ATOM     19  H4  UNL     1     -21.939 -20.787 -27.203  1.00  0.00     0.172 HD
HETATM   20  O4  UNL     1     -23.345 -20.173 -25.321  1.00  0.00    -0.246 OA
BRANCH  16  21
HETATM   21  N3  UNL     1     -19.569 -20.198 -27.785  1.00  0.00    -0.385 N 
ATOM     22  H32 UNL     1     -20.042 -20.306 -28.682  1.00  0.00     0.157 HD
ATOM     23  H31 UNL     1     -18.573 -20.422 -27.772  1.00  0.00     0.157 HD
ENDBRANCH  16  21
ENDBRANCH   6  13
TORSDOF 5
ENDMDL
MODEL 3
REMARK VINA RESULT: -6.491157926      1.829      2.008
REMARK  5 active torsions:
REMARK  status: ('A' for Active; 'I' for Inactive)
REMARK    1  A    between atoms: C2_3  and  C3_4 
REMARK    2  A    between atoms: C3_4  and  O1_5 
REMARK    3  A    between atoms: C3_4  and  O2_7 
REMARK    4  A    between atoms: C5_11  and  N2_12 
REMARK    5  A    between atoms: C8_15  and  N3_16 
ROOT
HETATM    1  N1  UNL     1     -21.918 -20.203 -18.357  1.00  0.00    -0.191 NA
HETATM    2  C1  UNL     1     -22.341 -19.411 -19.084  1.00  0.00     0.134 C 
HETATM    3  C2  UNL     1     -22.871 -18.423 -20.025  1.00  0.00     0.310 C 
HETATM    4  O3  UNL     1     -22.065 -17.315 -20.156  1.00  0.00    -0.335 OA
HETATM    5  C4  UNL     1     -21.296 -17.497 -21.315  1.00  0.00     0.227 C 
HETATM    6  C5  UNL     1     -21.610 -18.937 -21.689  1.00  0.00     0.260 C 
HETATM    7  O5  UNL     1     -22.931 -19.045 -21.272  1.00  0.00    -0.312 OA
ENDROOT
BRANCH   3   8
HETATM    8  C3  UNL     1     -24.235 -17.987 -19.543  1.00  0.00     0.334 C 
BRANCH   8   9
HETATM    9  O1  UNL     1     -24.391 -18.275 -18.188  1.00  0.00    -0.366 OA
ATOM     10  H1  UNL     1     -23.577 -18.131 -17.720  1.00  0.00     0.212 HD
ENDBRANCH   8   9
BRANCH   8  11
HETATM   11  O2  UNL     1     -25.188 -18.733 -20.233  1.00  0.00    -0.366 OA
ATOM     12  H2  UNL     1     -26.009 -18.663 -19.761  1.00  0.00     0.212 HD
ENDBRANCH   8  11
ENDBRANCH   3   8
BRANCH   6  13
HETATM   13  N2  UNL     1     -21.456 -19.183 -23.101  1.00  0.00    -0.280 N 
HETATM   14  C6  UNL     1     -20.469 -18.692 -23.838  1.00  0.00     0.102 A 
HETATM   15  C7  UNL     1     -20.388 -18.971 -25.187  1.00  0.00     0.065 A 
HETATM   16  C8  UNL     1     -21.336 -19.773 -25.806  1.00  0.00     0.103 A 
HETATM   17  N4  UNL     1     -22.317 -20.247 -25.016  1.00  0.00    -0.295 N 
HETATM   18  C9  UNL     1     -22.370 -19.958 -23.704  1.00  0.00     0.330 A 
ATOM     19  H4  UNL     1     -23.039 -20.842 -25.423  1.00  0.00     0.172 HD
HETATM   20  O4  UNL     1     -23.327 -20.448 -23.044  1.00  0.00    -0.246 OA
BRANCH  16  21
HETATM   21  N3  UNL     1     -21.297 -20.056 -27.051  1.00  0.00    -0.385 N 
ATOM     22  H32 UNL     1     -20.693 -19.539 -27.690  1.00  0.00     0.157 HD
ATOM     23  H31 UNL     1     -21.858 -20.800 -27.467  1.00  0.00     0.157 HD
ENDBRANCH  16  21
ENDBRANCH   6  13
TORSDOF 5
ENDMDL
MODEL 4
REMARK VINA RESULT: -6.166064703      2.441      6.024
REMARK  5 active torsions:
REMARK  status: ('A' for Active; 'I' for Inactive)
REMARK    1  A    between atoms: C2_3  and  C3_4 
REMARK    2  A    between atoms: C3_4  and  O1_5 
REMARK    3  A    between atoms: C3_4  and  O2_7 
REMARK    4  A    between atoms: C5_11  and  N2_12 
REMARK    5  A    between atoms: C8_15  and  N3_16 
ROOT
HETATM    1  N1  UNL     1     -18.268 -17.726 -25.152  1.00  0.00    -0.191 NA
HETATM    2  C1  UNL     1     -19.288 -18.268 -25.107  1.00  0.00     0.134 C 
HETATM    3  C2  UNL     1     -20.587 -18.938 -25.031  1.00  0.00     0.310 C 
HETATM    4  O3  UNL     1     -20.519 -20.182 -24.445  1.00  0.00    -0.335 OA
HETATM    5  C4  UNL     1     -20.907 -20.030 -23.105  1.00  0.00     0.227 C 
HETATM    6  C5  UNL     1     -20.982 -18.519 -22.959  1.00  0.00     0.260 C 
HETATM    7  O5  UNL     1     -21.405 -18.143 -24.228  1.00  0.00    -0.312 OA
ENDROOT
BRANCH   3   8
HETATM    8  C3  UNL     1     -21.134 -19.080 -26.431  1.00  0.00     0.334 C 
BRANCH   8   9
HETATM    9  O1  UNL     1     -21.490 -20.404 -26.686  1.00  0.00    -0.366 OA
ATOM     10  H1  UNL     1     -20.848 -20.820 -27.248  1.00  0.00     0.212 HD
ENDBRANCH   8   9
BRANCH   8  11
HETATM   11  O2  UNL     1     -20.114 -18.752 -27.322  1.00  0.00    -0.366 OA
ATOM     12  H2  UNL     1     -19.924 -19.523 -27.842  1.00  0.00     0.212 HD
ENDBRANCH   8  11
ENDBRANCH   3   8
BRANCH   6  13
HETATM   13  N2  UNL     1     -21.903 -18.113 -21.928  1.00  0.00    -0.280 N 
HETATM   14  C6  UNL     1     -23.120 -17.639 -22.162  1.00  0.00     0.102 A 
HETATM   15  C7  UNL     1     -23.947 -17.270 -21.121  1.00  0.00     0.065 A 
HETATM   16  C8  UNL     1     -23.528 -17.385 -19.803  1.00  0.00     0.103 A 
HETATM   17  N4  UNL     1     -22.286 -17.871 -19.617  1.00  0.00    -0.295 N 
HETATM   18  C9  UNL     1     -21.503 -18.222 -20.652  1.00  0.00     0.330 A 
ATOM     19  H4  UNL     1     -21.931 -17.975 -18.667  1.00  0.00     0.172 HD
HETATM   20  O4  UNL     1     -20.354 -18.668 -20.379  1.00  0.00    -0.246 OA
BRANCH  16  21
HETATM   21  N3  UNL     1     -24.262 -17.055 -18.811  1.00  0.00    -0.385 N 
ATOM     22  H32 UNL     1     -23.854 -16.850 -17.899  1.00  0.00     0.157 HD
ATOM     23  H31 UNL     1     -25.278 -16.978 -18.876  1.00  0.00     0.157 HD
ENDBRANCH  16  21
ENDBRANCH   6  13
TORSDOF 5
ENDMDL
MODEL 5
REMARK VINA RESULT: -5.896199806      2.901      6.156
REMARK  5 active torsions:
REMARK  status: ('A' for Active; 'I' for Inactive)
REMARK    1  A    between atoms: C2_3  and  C3_4 
REMARK    2  A    between atoms: C3_4  and  O1_5 
REMARK    3  A    between atoms: C3_4  and  O2_7 
REMARK    4  A    between atoms: C5_11  and  N2_12 
REMARK    5  A    between atoms: C8_15  and  N3_16 
ROOT
HETATM    1  N1  UNL     1     -23.876 -16.547 -23.622  1.00  0.00    -0.191 NA
HETATM    2  C1  UNL     1     -23.311 -17.523 -23.373  1.00  0.00     0.134 C 
HETATM    3  C2  UNL     1     -22.605 -18.760 -23.034  1.00  0.00     0.310 C 
HETATM    4  O3  UNL     1     -21.247 -18.585 -22.895  1.00  0.00    -0.335 OA
HETATM    5  C4  UNL     1     -20.982 -18.464 -21.523  1.00  0.00     0.227 C 
HETATM    6  C5  UNL     1     -22.379 -18.368 -20.931  1.00  0.00     0.260 C 
HETATM    7  O5  UNL     1     -23.099 -19.180 -21.799  1.00  0.00    -0.312 OA
ENDROOT
BRANCH   3   8
HETATM    8  C3  UNL     1     -22.864 -19.773 -24.123  1.00  0.00     0.334 C 
BRANCH   8   9
HETATM    9  O1  UNL     1     -23.450 -20.922 -23.594  1.00  0.00    -0.366 OA
ATOM     10  H1  UNL     1     -23.185 -21.689 -24.087  1.00  0.00     0.212 HD
ENDBRANCH   8   9
BRANCH   8  11
HETATM   11  O2  UNL     1     -21.633 -20.149 -24.656  1.00  0.00    -0.366 OA
ATOM     12  H2  UNL     1     -21.660 -21.084 -24.815  1.00  0.00     0.212 HD
ENDBRANCH   8  11
ENDBRANCH   3   8
BRANCH   6  13
HETATM   13  N2  UNL     1     -22.431 -18.835 -19.569  1.00  0.00    -0.280 N 
HETATM   14  C6  UNL     1     -21.552 -19.674 -19.036  1.00  0.00     0.102 A 
HETATM   15  C7  UNL     1     -21.668 -20.077 -17.721  1.00  0.00     0.065 A 
HETATM   16  C8  UNL     1     -22.705 -19.616 -16.923  1.00  0.00     0.103 A 
HETATM   17  N4  UNL     1     -23.571 -18.768 -17.510  1.00  0.00    -0.295 N 
HETATM   18  C9  UNL     1     -23.433 -18.393 -18.793  1.00  0.00     0.330 A 
ATOM     19  H4  UNL     1     -24.352 -18.401 -16.965  1.00  0.00     0.172 HD
HETATM   20  O4  UNL     1     -24.293 -17.594 -19.255  1.00  0.00    -0.246 OA
BRANCH  16  21
HETATM   21  N3  UNL     1     -22.848 -19.966 -15.703  1.00  0.00    -0.385 N 
ATOM     22  H32 UNL     1     -22.285 -20.715 -15.300  1.00  0.00     0.157 HD
ATOM     23  H31 UNL     1     -23.519 -19.522 -15.076  1.00  0.00     0.157 HD
ENDBRANCH  16  21
ENDBRANCH   6  13
TORSDOF 5
ENDMDL
