MODEL 1
REMARK VINA RESULT: -4.345629785      0.000      0.000
REMARK  4 active torsions:
REMARK  status: ('A' for Active; 'I' for Inactive)
REMARK    1  A    between atoms: O1_2  and  N1_3 
REMARK    2  A    between atoms: N1_3  and  C2_5 
REMARK    3  A    between atoms: C3_8  and  O2_9 
REMARK    4  A    between atoms: N3_14  and  N4_15 
ROOT
HETATM    1  C2  UNL     1     -21.632 -18.424 -20.791  1.00  0.00     0.729 A 
HETATM    2  N2  UNL     1     -21.117 -19.371 -19.985  1.00  0.00    -0.167 N 
ATOM      3  H2  UNL     1     -20.300 -19.911 -20.272  1.00  0.00     0.186 HD
HETATM    4  C3  UNL     1     -21.696 -19.588 -18.804  1.00  0.00     0.160 A 
HETATM    5  C4  UNL     1     -22.796 -18.892 -18.362  1.00  0.00     0.133 A 
HETATM    6  C5  UNL     1     -23.288 -17.923 -19.236  1.00  0.00     0.288 A 
HETATM    7  O3  UNL     1     -24.285 -17.233 -18.932  1.00  0.00    -0.265 OA
HETATM    8  N3  UNL     1     -22.705 -17.702 -20.431  1.00  0.00    -0.031 N 
ENDROOT
BRANCH   8   9
HETATM    9  N4  UNL     1     -23.252 -16.734 -21.266  1.00  0.00    -0.195 N 
HETATM   10  N5  UNL     1     -22.884 -15.423 -21.332  1.00  0.00    -0.076 NA
HETATM   11  C6  UNL     1     -23.862 -14.631 -22.002  1.00  0.00     0.363 C 
HETATM   12  N6  UNL     1     -23.811 -15.026 -23.403  1.00  0.00    -0.044 N 
HETATM   13  S1  UNL     1     -25.388 -15.608 -21.586  1.00  0.00    -0.088 SA
HETATM   14  C7  UNL     1     -23.941 -16.438 -23.495  1.00  0.00     0.274 C 
ATOM     15  H62 UNL     1     -24.504 -14.536 -23.969  1.00  0.00     0.280 HD
ATOM     16  H61 UNL     1     -22.972 -14.683 -23.872  1.00  0.00     0.280 HD
HETATM   17  C8  UNL     1     -24.351 -17.026 -22.193  1.00  0.00     0.214 C 
ENDBRANCH   8   9
BRANCH   1  18
HETATM   18  N1  UNL     1     -21.085 -18.172 -21.943  1.00  0.00    -0.095 N 
ATOM     19  H1  UNL     1     -20.752 -17.236 -22.175  1.00  0.00     0.213 HD
BRANCH  18  20
HETATM   20  O1  UNL     1     -20.969 -19.204 -22.837  1.00  0.00    -0.271 OA
HETATM   21  C1  UNL     1     -22.082 -19.678 -23.549  1.00  0.00     0.238 C 
ENDBRANCH  18  20
ENDBRANCH   1  18
BRANCH   4  22
HETATM   22  O2  UNL     1     -21.176 -20.572 -17.950  1.00  0.00    -0.346 OA
ATOM     23  H2  UNL     1     -21.749 -20.995 -17.321  1.00  0.00     0.219 HD
ENDBRANCH   4  22
TORSDOF 4
ENDMDL
MODEL 2
REMARK VINA RESULT: -3.459473231      2.120      3.539
REMARK  4 active torsions:
REMARK  status: ('A' for Active; 'I' for Inactive)
REMARK    1  A    between atoms: O1_2  and  N1_3 
REMARK    2  A    between atoms: N1_3  and  C2_5 
REMARK    3  A    between atoms: C3_8  and  O2_9 
REMARK    4  A    between atoms: N3_14  and  N4_15 
ROOT
HETATM    1  C2  UNL     1     -23.506 -18.632 -19.446  1.00  0.00     0.729 A 
HETATM    2  N2  UNL     1     -23.807 -18.853 -18.153  1.00  0.00    -0.167 N 
ATOM      3  H2  UNL     1     -24.710 -18.569 -17.772  1.00  0.00     0.186 HD
HETATM    4  C3  UNL     1     -22.901 -19.452 -17.379  1.00  0.00     0.160 A 
HETATM    5  C4  UNL     1     -21.669 -19.858 -17.834  1.00  0.00     0.133 A 
HETATM    6  C5  UNL     1     -21.410 -19.606 -19.181  1.00  0.00     0.288 A 
HETATM    7  O3  UNL     1     -20.320 -19.936 -19.697  1.00  0.00    -0.265 OA
HETATM    8  N3  UNL     1     -22.324 -19.000 -19.966  1.00  0.00    -0.031 N 
ENDROOT
BRANCH   8   9
HETATM    9  N4  UNL     1     -22.001 -18.760 -21.296  1.00  0.00    -0.195 N 
HETATM   10  N5  UNL     1     -21.491 -17.604 -21.808  1.00  0.00    -0.076 NA
HETATM   11  C6  UNL     1     -21.617 -17.551 -23.227  1.00  0.00     0.363 C 
HETATM   12  N6  UNL     1     -20.689 -18.544 -23.751  1.00  0.00    -0.044 N 
HETATM   13  S1  UNL     1     -23.144 -18.588 -23.441  1.00  0.00    -0.088 SA
HETATM   14  C7  UNL     1     -20.936 -19.793 -23.121  1.00  0.00     0.274 C 
ATOM     15  H62 UNL     1     -20.726 -18.609 -24.768  1.00  0.00     0.280 HD
ATOM     16  H61 UNL     1     -19.716 -18.251 -23.661  1.00  0.00     0.280 HD
HETATM   17  C8  UNL     1     -22.205 -19.763 -22.347  1.00  0.00     0.214 C 
ENDBRANCH   8   9
BRANCH   1  18
HETATM   18  N1  UNL     1     -24.371 -18.067 -20.235  1.00  0.00    -0.095 N 
ATOM     19  H1  UNL     1     -24.994 -18.624 -20.819  1.00  0.00     0.213 HD
BRANCH  18  20
HETATM   20  O1  UNL     1     -24.419 -16.698 -20.257  1.00  0.00    -0.271 OA
HETATM   21  C1  UNL     1     -24.593 -15.995 -21.459  1.00  0.00     0.238 C 
ENDBRANCH  18  20
ENDBRANCH   1  18
BRANCH   4  22
HETATM   22  O2  UNL     1     -23.193 -19.688 -16.029  1.00  0.00    -0.346 OA
ATOM     23  H2  UNL     1     -22.590 -20.200 -15.502  1.00  0.00     0.219 HD
ENDBRANCH   4  22
TORSDOF 4
ENDMDL
MODEL 3
REMARK VINA RESULT: -3.342994261      2.511      4.974
REMARK  4 active torsions:
REMARK  status: ('A' for Active; 'I' for Inactive)
REMARK    1  A    between atoms: O1_2  and  N1_3 
REMARK    2  A    between atoms: N1_3  and  C2_5 
REMARK    3  A    between atoms: C3_8  and  O2_9 
REMARK    4  A    between atoms: N3_14  and  N4_15 
ROOT
HETATM    1  C2  UNL     1     -24.191 -17.281 -21.233  1.00  0.00     0.729 A 
HETATM    2  N2  UNL     1     -25.066 -16.370 -20.767  1.00  0.00    -0.167 N 
ATOM      3  H2  UNL     1     -25.530 -16.506 -19.869  1.00  0.00     0.186 HD
HETATM    4  C3  UNL     1     -25.313 -15.286 -21.503  1.00  0.00     0.160 A 
HETATM    5  C4  UNL     1     -24.719 -15.048 -22.719  1.00  0.00     0.133 A 
HETATM    6  C5  UNL     1     -23.821 -16.022 -23.155  1.00  0.00     0.288 A 
HETATM    7  O3  UNL     1     -23.225 -15.902 -24.247  1.00  0.00    -0.265 OA
HETATM    8  N3  UNL     1     -23.569 -17.119 -22.412  1.00  0.00    -0.031 N 
ENDROOT
BRANCH   8   9
HETATM    9  N4  UNL     1     -22.678 -18.064 -22.907  1.00  0.00    -0.195 N 
HETATM   10  N5  UNL     1     -23.001 -19.211 -23.570  1.00  0.00    -0.076 NA
HETATM   11  C6  UNL     1     -21.907 -20.123 -23.616  1.00  0.00     0.363 C 
HETATM   12  N6  UNL     1     -20.922 -19.529 -24.510  1.00  0.00    -0.044 N 
HETATM   13  S1  UNL     1     -21.043 -19.648 -22.041  1.00  0.00    -0.088 SA
HETATM   14  C7  UNL     1     -20.647 -18.202 -24.084  1.00  0.00     0.274 C 
ATOM     15  H62 UNL     1     -20.077 -20.095 -24.585  1.00  0.00     0.280 HD
ATOM     16  H61 UNL     1     -21.211 -19.570 -25.487  1.00  0.00     0.280 HD
HETATM   17  C8  UNL     1     -21.226 -17.936 -22.741  1.00  0.00     0.214 C 
ENDBRANCH   8   9
BRANCH   1  18
HETATM   18  N1  UNL     1     -23.912 -18.342 -20.536  1.00  0.00    -0.095 N 
ATOM     19  H1  UNL     1     -24.235 -19.264 -20.828  1.00  0.00     0.213 HD
BRANCH  18  20
HETATM   20  O1  UNL     1     -23.169 -18.182 -19.396  1.00  0.00    -0.271 OA
HETATM   21  C1  UNL     1     -23.074 -19.205 -18.440  1.00  0.00     0.238 C 
ENDBRANCH  18  20
ENDBRANCH   1  18
BRANCH   4  22
HETATM   22  O2  UNL     1     -26.223 -14.327 -21.036  1.00  0.00    -0.346 OA
ATOM     23  H2  UNL     1     -25.969 -13.747 -20.328  1.00  0.00     0.219 HD
ENDBRANCH   4  22
TORSDOF 4
ENDMDL
MODEL 4
REMARK VINA RESULT: -3.219643165      2.393      3.719
REMARK  4 active torsions:
REMARK  status: ('A' for Active; 'I' for Inactive)
REMARK    1  A    between atoms: O1_2  and  N1_3 
REMARK    2  A    between atoms: N1_3  and  C2_5 
REMARK    3  A    between atoms: C3_8  and  O2_9 
REMARK    4  A    between atoms: N3_14  and  N4_15 
ROOT
HETATM    1  C2  UNL     1     -23.585 -18.686 -18.980  1.00  0.00     0.729 A 
HETATM    2  N2  UNL     1     -23.678 -18.847 -17.646  1.00  0.00    -0.167 N 
ATOM      3  H2  UNL     1     -24.487 -18.492 -17.135  1.00  0.00     0.186 HD
HETATM    4  C3  UNL     1     -22.693 -19.478 -17.008  1.00  0.00     0.160 A 
HETATM    5  C4  UNL     1     -21.581 -19.978 -17.642  1.00  0.00     0.133 A 
HETATM    6  C5  UNL     1     -21.535 -19.786 -19.023  1.00  0.00     0.288 A 
HETATM    7  O3  UNL     1     -20.568 -20.202 -19.697  1.00  0.00    -0.265 OA
HETATM    8  N3  UNL     1     -22.530 -19.147 -19.671  1.00  0.00    -0.031 N 
ENDROOT
BRANCH   8   9
HETATM    9  N4  UNL     1     -22.420 -18.970 -21.045  1.00  0.00    -0.195 N 
HETATM   10  N5  UNL     1     -23.182 -19.575 -22.001  1.00  0.00    -0.076 NA
HETATM   11  C6  UNL     1     -22.591 -19.473 -23.294  1.00  0.00     0.363 C 
HETATM   12  N6  UNL     1     -22.691 -18.070 -23.674  1.00  0.00    -0.044 N 
HETATM   13  S1  UNL     1     -20.797 -19.408 -22.808  1.00  0.00    -0.088 SA
HETATM   14  C7  UNL     1     -22.141 -17.265 -22.640  1.00  0.00     0.274 C 
ATOM     15  H62 UNL     1     -22.261 -17.883 -24.580  1.00  0.00     0.280 HD
ATOM     16  H61 UNL     1     -23.646 -17.799 -23.909  1.00  0.00     0.280 HD
HETATM   17  C8  UNL     1     -21.409 -18.093 -21.646  1.00  0.00     0.214 C 
ENDBRANCH   8   9
BRANCH   1  18
HETATM   18  N1  UNL     1     -24.535 -18.091 -19.638  1.00  0.00    -0.095 N 
ATOM     19  H1  UNL     1     -25.379 -18.592 -19.915  1.00  0.00     0.213 HD
BRANCH  18  20
HETATM   20  O1  UNL     1     -24.365 -16.767 -19.950  1.00  0.00    -0.271 OA
HETATM   21  C1  UNL     1     -24.834 -16.240 -21.163  1.00  0.00     0.238 C 
ENDBRANCH  18  20
ENDBRANCH   1  18
BRANCH   4  22
HETATM   22  O2  UNL     1     -22.770 -19.653 -15.619  1.00  0.00    -0.346 OA
ATOM     23  H2  UNL     1     -22.287 -20.361 -15.209  1.00  0.00     0.219 HD
ENDBRANCH   4  22
TORSDOF 4
ENDMDL
MODEL 5
REMARK VINA RESULT: -3.180397212      2.355      4.981
REMARK  4 active torsions:
REMARK  status: ('A' for Active; 'I' for Inactive)
REMARK    1  A    between atoms: O1_2  and  N1_3 
REMARK    2  A    between atoms: N1_3  and  C2_5 
REMARK    3  A    between atoms: C3_8  and  O2_9 
REMARK    4  A    between atoms: N3_14  and  N4_15 
ROOT
HETATM    1  C2  UNL     1     -24.370 -17.168 -21.185  1.00  0.00     0.729 A 
HETATM    2  N2  UNL     1     -25.310 -16.274 -20.824  1.00  0.00    -0.167 N 
ATOM      3  H2  UNL     1     -25.880 -16.425 -19.991  1.00  0.00     0.186 HD
HETATM    4  C3  UNL     1     -25.481 -15.187 -21.577  1.00  0.00     0.160 A 
HETATM    5  C4  UNL     1     -24.744 -14.928 -22.708  1.00  0.00     0.133 A 
HETATM    6  C5  UNL     1     -23.784 -15.885 -23.036  1.00  0.00     0.288 A 
HETATM    7  O3  UNL     1     -23.059 -15.747 -24.045  1.00  0.00    -0.265 OA
HETATM    8  N3  UNL     1     -23.610 -16.986 -22.277  1.00  0.00    -0.031 N 
ENDROOT
BRANCH   8   9
HETATM    9  N4  UNL     1     -22.649 -17.913 -22.664  1.00  0.00    -0.195 N 
HETATM   10  N5  UNL     1     -21.468 -18.164 -22.032  1.00  0.00    -0.076 NA
HETATM   11  C6  UNL     1     -20.563 -18.885 -22.864  1.00  0.00     0.363 C 
HETATM   12  N6  UNL     1     -21.120 -20.225 -23.001  1.00  0.00    -0.044 N 
HETATM   13  S1  UNL     1     -21.125 -18.278 -24.529  1.00  0.00    -0.088 SA
HETATM   14  C7  UNL     1     -22.470 -20.127 -23.435  1.00  0.00     0.274 C 
ATOM     15  H62 UNL     1     -20.559 -20.817 -23.613  1.00  0.00     0.280 HD
ATOM     16  H61 UNL     1     -21.028 -20.772 -22.145  1.00  0.00     0.280 HD
HETATM   17  C8  UNL     1     -22.798 -18.742 -23.865  1.00  0.00     0.214 C 
ENDBRANCH   8   9
BRANCH   1  18
HETATM   18  N1  UNL     1     -24.164 -18.231 -20.467  1.00  0.00    -0.095 N 
ATOM     19  H1  UNL     1     -24.266 -19.164 -20.865  1.00  0.00     0.213 HD
BRANCH  18  20
HETATM   20  O1  UNL     1     -23.804 -18.059 -19.156  1.00  0.00    -0.271 OA
HETATM   21  C1  UNL     1     -23.097 -19.051 -18.460  1.00  0.00     0.238 C 
ENDBRANCH  18  20
ENDBRANCH   1  18
BRANCH   4  22
HETATM   22  O2  UNL     1     -26.456 -14.245 -21.220  1.00  0.00    -0.346 OA
ATOM     23  H2  UNL     1     -27.052 -14.437 -20.505  1.00  0.00     0.219 HD
ENDBRANCH   4  22
TORSDOF 4
ENDMDL
