MODEL 1
REMARK VINA RESULT: -6.745669925      0.000      0.000
REMARK  4 active torsions:
REMARK  status: ('A' for Active; 'I' for Inactive)
REMARK    1  A    between atoms: C2_3  and  N2_4 
REMARK    2  A    between atoms: C5_12  and  C6_13 
REMARK       I    between atoms: C6_13  and  N4_15 
REMARK    3  A    between atoms: N4_15  and  N5_17 
REMARK    4  A    between atoms: C7_22  and  N7_23 
ROOT
HETATM    1  C1  UNL     1     -23.932 -16.301 -23.960  1.00  0.00     0.177 C 
HETATM    2  N1  UNL     1     -23.588 -16.766 -22.621  1.00  0.00    -0.168 N 
HETATM    3  C2  UNL     1     -22.604 -17.638 -22.340  1.00  0.00     0.187 A 
HETATM    4  C5  UNL     1     -22.601 -17.816 -20.972  1.00  0.00     0.165 A 
HETATM    5  N6  UNL     1     -23.599 -17.030 -20.488  1.00  0.00    -0.182 N 
ATOM      6  H6  UNL     1     -23.848 -16.944 -19.503  1.00  0.00     0.184 HD
HETATM    7  C7  UNL     1     -24.208 -16.382 -21.497  1.00  0.00     0.680 A 
ENDROOT
BRANCH   3   8
HETATM    8  N2  UNL     1     -21.738 -18.250 -23.304  1.00  0.00    -0.164 N 
HETATM    9  O1  UNL     1     -20.609 -17.764 -23.701  1.00  0.00    -0.169 OA
HETATM   10  C3  UNL     1     -20.036 -18.550 -24.593  1.00  0.00     0.389 A 
HETATM   11  O2  UNL     1     -18.928 -18.328 -25.152  1.00  0.00    -0.236 OA
HETATM   12  N3  UNL     1     -20.850 -19.613 -24.784  1.00  0.00    -0.276 N 
HETATM   13  C4  UNL     1     -21.902 -19.405 -23.973  1.00  0.00     0.209 A 
ATOM     14  H3  UNL     1     -20.698 -20.403 -25.410  1.00  0.00     0.173 HD
HETATM   15  S1  UNL     1     -23.202 -20.377 -23.793  1.00  0.00    -0.038 SA
ENDBRANCH   3   8
BRANCH   4  16
HETATM   16  C6  UNL     1     -21.698 -18.679 -20.229  1.00  0.00     0.290 C 
HETATM   17  O3  UNL     1     -20.505 -18.796 -20.591  1.00  0.00    -0.264 OA
HETATM   18  N4  UNL     1     -22.191 -19.391 -19.080  1.00  0.00    -0.271 N 
ATOM     19  H4  UNL     1     -23.165 -19.288 -18.796  1.00  0.00     0.189 HD
BRANCH  18  20
HETATM   20  N5  UNL     1     -21.345 -20.215 -18.364  1.00  0.00    -0.342 N 
ATOM     21  H52 UNL     1     -20.805 -20.924 -18.861  1.00  0.00     0.176 HD
ATOM     22  H51 UNL     1     -21.268 -20.111 -17.352  1.00  0.00     0.176 HD
ENDBRANCH  18  20
ENDBRANCH   4  16
BRANCH   7  23
HETATM   23  N7  UNL     1     -25.196 -15.556 -21.394  1.00  0.00    -0.234 N 
ATOM     24  H72 UNL     1     -25.812 -15.250 -22.148  1.00  0.00     0.174 HD
ATOM     25  H71 UNL     1     -25.516 -15.081 -20.551  1.00  0.00     0.174 HD
ENDBRANCH   7  23
TORSDOF 4
ENDMDL
MODEL 2
REMARK VINA RESULT: -5.696867108      1.358      3.556
REMARK  4 active torsions:
REMARK  status: ('A' for Active; 'I' for Inactive)
REMARK    1  A    between atoms: C2_3  and  N2_4 
REMARK    2  A    between atoms: C5_12  and  C6_13 
REMARK       I    between atoms: C6_13  and  N4_15 
REMARK    3  A    between atoms: N4_15  and  N5_17 
REMARK    4  A    between atoms: C7_22  and  N7_23 
ROOT
HETATM    1  C1  UNL     1     -20.899 -19.433 -20.234  1.00  0.00     0.177 C 
HETATM    2  N1  UNL     1     -21.940 -18.481 -20.601  1.00  0.00    -0.168 N 
HETATM    3  C2  UNL     1     -22.171 -18.038 -21.849  1.00  0.00     0.187 A 
HETATM    4  C5  UNL     1     -23.231 -17.158 -21.776  1.00  0.00     0.165 A 
HETATM    5  N6  UNL     1     -23.593 -17.113 -20.467  1.00  0.00    -0.182 N 
ATOM      6  H6  UNL     1     -24.353 -16.546 -20.091  1.00  0.00     0.184 HD
HETATM    7  C7  UNL     1     -22.803 -17.923 -19.740  1.00  0.00     0.680 A 
ENDROOT
BRANCH   3   8
HETATM    8  N2  UNL     1     -21.436 -18.428 -23.016  1.00  0.00    -0.164 N 
HETATM    9  O1  UNL     1     -20.332 -17.886 -23.413  1.00  0.00    -0.169 OA
HETATM   10  C3  UNL     1     -19.889 -18.456 -24.518  1.00  0.00     0.389 A 
HETATM   11  O2  UNL     1     -18.835 -18.132 -25.129  1.00  0.00    -0.236 OA
HETATM   12  N3  UNL     1     -20.765 -19.429 -24.856  1.00  0.00    -0.276 N 
HETATM   13  C4  UNL     1     -21.718 -19.394 -23.909  1.00  0.00     0.209 A 
ATOM     14  H3  UNL     1     -20.712 -20.056 -25.658  1.00  0.00     0.173 HD
HETATM   15  S1  UNL     1     -23.036 -20.355 -23.814  1.00  0.00    -0.038 SA
ENDBRANCH   3   8
BRANCH   4  16
HETATM   16  C6  UNL     1     -23.819 -16.441 -22.895  1.00  0.00     0.290 C 
HETATM   17  O3  UNL     1     -23.921 -16.999 -24.012  1.00  0.00    -0.264 OA
HETATM   18  N4  UNL     1     -24.277 -15.091 -22.702  1.00  0.00    -0.271 N 
ATOM     19  H4  UNL     1     -24.188 -14.648 -21.788  1.00  0.00     0.189 HD
BRANCH  18  20
HETATM   20  N5  UNL     1     -24.838 -14.395 -23.756  1.00  0.00    -0.342 N 
ATOM     21  H52 UNL     1     -24.736 -14.763 -24.702  1.00  0.00     0.176 HD
ATOM     22  H51 UNL     1     -25.344 -13.527 -23.582  1.00  0.00     0.176 HD
ENDBRANCH  18  20
ENDBRANCH   4  16
BRANCH   7  23
HETATM   23  N7  UNL     1     -22.869 -18.119 -18.465  1.00  0.00    -0.234 N 
ATOM     24  H72 UNL     1     -23.693 -18.001 -17.875  1.00  0.00     0.174 HD
ATOM     25  H71 UNL     1     -22.115 -18.421 -17.849  1.00  0.00     0.174 HD
ENDBRANCH   7  23
TORSDOF 4
ENDMDL
MODEL 3
REMARK VINA RESULT: -4.577253097      2.144      2.194
REMARK  4 active torsions:
REMARK  status: ('A' for Active; 'I' for Inactive)
REMARK    1  A    between atoms: C2_3  and  N2_4 
REMARK    2  A    between atoms: C5_12  and  C6_13 
REMARK       I    between atoms: C6_13  and  N4_15 
REMARK    3  A    between atoms: N4_15  and  N5_17 
REMARK    4  A    between atoms: C7_22  and  N7_23 
ROOT
HETATM    1  C1  UNL     1     -23.899 -15.781 -23.831  1.00  0.00     0.177 C 
HETATM    2  N1  UNL     1     -24.120 -16.233 -22.463  1.00  0.00    -0.168 N 
HETATM    3  C2  UNL     1     -23.602 -17.355 -21.931  1.00  0.00     0.187 A 
HETATM    4  C5  UNL     1     -24.044 -17.424 -20.625  1.00  0.00     0.165 A 
HETATM    5  N6  UNL     1     -24.819 -16.324 -20.431  1.00  0.00    -0.182 N 
ATOM      6  H6  UNL     1     -25.293 -16.091 -19.559  1.00  0.00     0.184 HD
HETATM    7  C7  UNL     1     -24.869 -15.589 -21.557  1.00  0.00     0.680 A 
ENDROOT
BRANCH   3   8
HETATM    8  N2  UNL     1     -22.753 -18.283 -22.618  1.00  0.00    -0.164 N 
HETATM    9  O1  UNL     1     -23.040 -18.861 -23.738  1.00  0.00    -0.169 OA
HETATM   10  C3  UNL     1     -22.064 -19.662 -24.126  1.00  0.00     0.389 A 
HETATM   11  O2  UNL     1     -22.069 -20.353 -25.180  1.00  0.00    -0.236 OA
HETATM   12  N3  UNL     1     -21.085 -19.594 -23.196  1.00  0.00    -0.276 N 
HETATM   13  C4  UNL     1     -21.535 -18.732 -22.268  1.00  0.00     0.209 A 
ATOM     14  H3  UNL     1     -20.195 -20.092 -23.198  1.00  0.00     0.173 HD
HETATM   15  S1  UNL     1     -20.758 -18.269 -20.908  1.00  0.00    -0.038 SA
ENDBRANCH   3   8
BRANCH   4  16
HETATM   16  C6  UNL     1     -23.726 -18.477 -19.675  1.00  0.00     0.290 C 
HETATM   17  O3  UNL     1     -23.905 -19.676 -19.988  1.00  0.00    -0.264 OA
HETATM   18  N4  UNL     1     -23.208 -18.123 -18.381  1.00  0.00    -0.271 N 
ATOM     19  H4  UNL     1     -23.067 -17.142 -18.139  1.00  0.00     0.189 HD
BRANCH  18  20
HETATM   20  N5  UNL     1     -22.901 -19.112 -17.466  1.00  0.00    -0.342 N 
ATOM     21  H52 UNL     1     -22.931 -20.087 -17.763  1.00  0.00     0.176 HD
ATOM     22  H51 UNL     1     -22.650 -18.861 -16.510  1.00  0.00     0.176 HD
ENDBRANCH  18  20
ENDBRANCH   4  16
BRANCH   7  23
HETATM   23  N7  UNL     1     -25.514 -14.483 -21.724  1.00  0.00    -0.234 N 
ATOM     24  H72 UNL     1     -25.392 -13.818 -22.488  1.00  0.00     0.174 HD
ATOM     25  H71 UNL     1     -26.243 -14.099 -21.123  1.00  0.00     0.174 HD
ENDBRANCH   7  23
TORSDOF 4
ENDMDL
MODEL 4
REMARK VINA RESULT: -4.025901376      1.862      2.136
REMARK  4 active torsions:
REMARK  status: ('A' for Active; 'I' for Inactive)
REMARK    1  A    between atoms: C2_3  and  N2_4 
REMARK    2  A    between atoms: C5_12  and  C6_13 
REMARK       I    between atoms: C6_13  and  N4_15 
REMARK    3  A    between atoms: N4_15  and  N5_17 
REMARK    4  A    between atoms: C7_22  and  N7_23 
ROOT
HETATM    1  C1  UNL     1     -24.186 -16.253 -23.920  1.00  0.00     0.177 C 
HETATM    2  N1  UNL     1     -23.548 -16.477 -22.628  1.00  0.00    -0.168 N 
HETATM    3  C2  UNL     1     -22.874 -17.590 -22.286  1.00  0.00     0.187 A 
HETATM    4  C5  UNL     1     -22.429 -17.412 -20.993  1.00  0.00     0.165 A 
HETATM    5  N6  UNL     1     -22.863 -16.181 -20.612  1.00  0.00    -0.182 N 
ATOM      6  H6  UNL     1     -22.691 -15.758 -19.700  1.00  0.00     0.184 HD
HETATM    7  C7  UNL     1     -23.551 -15.603 -21.612  1.00  0.00     0.680 A 
ENDROOT
BRANCH   3   8
HETATM    8  N2  UNL     1     -22.674 -18.730 -23.132  1.00  0.00    -0.164 N 
HETATM    9  O1  UNL     1     -23.489 -19.727 -23.237  1.00  0.00    -0.169 OA
HETATM   10  C3  UNL     1     -23.037 -20.626 -24.093  1.00  0.00     0.389 A 
HETATM   11  O2  UNL     1     -23.624 -21.700 -24.394  1.00  0.00    -0.236 OA
HETATM   12  N3  UNL     1     -21.854 -20.178 -24.569  1.00  0.00    -0.276 N 
HETATM   13  C4  UNL     1     -21.648 -18.999 -23.958  1.00  0.00     0.209 A 
ATOM     14  H3  UNL     1     -21.247 -20.638 -25.248  1.00  0.00     0.173 HD
HETATM   15  S1  UNL     1     -20.364 -18.008 -24.156  1.00  0.00    -0.038 SA
ENDBRANCH   3   8
BRANCH   4  16
HETATM   16  C6  UNL     1     -21.653 -18.368 -20.221  1.00  0.00     0.290 C 
HETATM   17  O3  UNL     1     -20.444 -18.555 -20.491  1.00  0.00    -0.264 OA
HETATM   18  N4  UNL     1     -22.290 -19.092 -19.153  1.00  0.00    -0.271 N 
ATOM     19  H4  UNL     1     -23.275 -18.931 -18.945  1.00  0.00     0.189 HD
BRANCH  18  20
HETATM   20  N5  UNL     1     -21.566 -20.005 -18.411  1.00  0.00    -0.342 N 
ATOM     21  H52 UNL     1     -20.705 -20.389 -18.801  1.00  0.00     0.176 HD
ATOM     22  H51 UNL     1     -21.895 -20.286 -17.488  1.00  0.00     0.176 HD
ENDBRANCH  18  20
ENDBRANCH   4  16
BRANCH   7  23
HETATM   23  N7  UNL     1     -24.103 -14.435 -21.591  1.00  0.00    -0.234 N 
ATOM     24  H72 UNL     1     -23.854 -13.658 -20.979  1.00  0.00     0.174 HD
ATOM     25  H71 UNL     1     -24.870 -14.106 -22.176  1.00  0.00     0.174 HD
ENDBRANCH   7  23
TORSDOF 4
ENDMDL
MODEL 5
REMARK VINA RESULT: -3.613371036      2.053      2.203
REMARK  4 active torsions:
REMARK  status: ('A' for Active; 'I' for Inactive)
REMARK    1  A    between atoms: C2_3  and  N2_4 
REMARK    2  A    between atoms: C5_12  and  C6_13 
REMARK       I    between atoms: C6_13  and  N4_15 
REMARK    3  A    between atoms: N4_15  and  N5_17 
REMARK    4  A    between atoms: C7_22  and  N7_23 
ROOT
HETATM    1  C1  UNL     1     -24.168 -16.170 -23.936  1.00  0.00     0.177 C 
HETATM    2  N1  UNL     1     -23.893 -16.569 -22.560  1.00  0.00    -0.168 N 
HETATM    3  C2  UNL     1     -23.288 -17.715 -22.199  1.00  0.00     0.187 A 
HETATM    4  C5  UNL     1     -23.216 -17.717 -20.821  1.00  0.00     0.165 A 
HETATM    5  N6  UNL     1     -23.791 -16.555 -20.413  1.00  0.00    -0.182 N 
ATOM      6  H6  UNL     1     -23.890 -16.263 -19.441  1.00  0.00     0.184 HD
HETATM    7  C7  UNL     1     -24.209 -15.846 -21.477  1.00  0.00     0.680 A 
ENDROOT
BRANCH   3   8
HETATM    8  N2  UNL     1     -22.817 -18.723 -23.102  1.00  0.00    -0.164 N 
HETATM    9  O1  UNL     1     -23.503 -19.745 -23.495  1.00  0.00    -0.169 OA
HETATM   10  C3  UNL     1     -22.805 -20.499 -24.325  1.00  0.00     0.389 A 
HETATM   11  O2  UNL     1     -23.221 -21.559 -24.867  1.00  0.00    -0.236 OA
HETATM   12  N3  UNL     1     -21.591 -19.925 -24.476  1.00  0.00    -0.276 N 
HETATM   13  C4  UNL     1     -21.620 -18.823 -23.707  1.00  0.00     0.209 A 
ATOM     14  H3  UNL     1     -20.817 -20.257 -25.052  1.00  0.00     0.173 HD
HETATM   15  S1  UNL     1     -20.413 -17.742 -23.505  1.00  0.00    -0.038 SA
ENDBRANCH   3   8
BRANCH   4  16
HETATM   16  C6  UNL     1     -22.636 -18.767 -20.002  1.00  0.00     0.290 C 
HETATM   17  O3  UNL     1     -23.381 -19.549 -19.367  1.00  0.00    -0.264 OA
HETATM   18  N4  UNL     1     -21.205 -18.894 -19.931  1.00  0.00    -0.271 N 
ATOM     19  H4  UNL     1     -20.609 -18.251 -20.452  1.00  0.00     0.189 HD
BRANCH  18  20
HETATM   20  N5  UNL     1     -20.638 -19.887 -19.156  1.00  0.00    -0.342 N 
ATOM     21  H52 UNL     1     -20.833 -19.907 -18.155  1.00  0.00     0.176 HD
ATOM     22  H51 UNL     1     -20.033 -20.587 -19.586  1.00  0.00     0.176 HD
ENDBRANCH  18  20
ENDBRANCH   4  16
BRANCH   7  23
HETATM   23  N7  UNL     1     -24.798 -14.696 -21.451  1.00  0.00    -0.234 N 
ATOM     24  H72 UNL     1     -24.355 -13.785 -21.573  1.00  0.00     0.174 HD
ATOM     25  H71 UNL     1     -25.791 -14.517 -21.306  1.00  0.00     0.174 HD
ENDBRANCH   7  23
TORSDOF 4
ENDMDL
