MODEL 1
REMARK VINA RESULT: -7.176243711      0.000      0.000
REMARK  7 active torsions:
REMARK  status: ('A' for Active; 'I' for Inactive)
REMARK    1  A    between atoms: N3_4  and  C2_6 
REMARK    2  A    between atoms: C2_6  and  C3_7 
REMARK    3  A    between atoms: C3_7  and  N4_8 
REMARK    4  A    between atoms: N4_8  and  C4_10 
REMARK    5  A    between atoms: C4_10  and  C5_11 
REMARK    6  A    between atoms: C6_14  and  N6_15 
REMARK    7  A    between atoms: N6_15  and  C7_17 
ROOT
HETATM    1  C5  UNL     1      27.237  16.209  60.357  1.00  0.00     0.194 A 
HETATM    2  N5  UNL     1      27.920  16.821  61.455  1.00  0.00    -0.347 N 
ATOM      3  H5  UNL     1      28.187  16.326  62.306  1.00  0.00     0.163 HD
HETATM    4  C6  UNL     1      28.160  18.082  61.247  1.00  0.00     0.184 A 
HETATM    5  N9  UNL     1      27.632  18.455  59.956  1.00  0.00    -0.297 N 
ATOM      6  H9  UNL     1      27.677  19.381  59.530  1.00  0.00     0.172 HD
HETATM    7  C11 UNL     1      27.039  17.296  59.391  1.00  0.00     0.248 A 
HETATM    8  O1  UNL     1      26.461  17.203  58.291  1.00  0.00    -0.271 OA
ENDROOT
BRANCH   1   9
HETATM    9  C4  UNL     1      25.914  15.664  60.843  1.00  0.00     0.153 C 
BRANCH   9  10
HETATM   10  N4  UNL     1      24.844  16.527  60.434  1.00  0.00    -0.398 N 
ATOM     11  H4  UNL     1      24.870  17.043  59.555  1.00  0.00     0.158 HD
BRANCH  10  12
HETATM   12  C3  UNL     1      23.754  16.617  61.323  1.00  0.00     0.075 C 
BRANCH  12  13
HETATM   13  C2  UNL     1      24.040  16.563  62.782  1.00  0.00     0.166 C 
BRANCH  13  14
HETATM   14  N3  UNL     1      23.266  17.623  63.397  1.00  0.00    -0.362 N 
HETATM   15  C1  UNL     1      23.638  18.279  64.436  1.00  0.00     0.197 C 
HETATM   16  N1  UNL     1      24.862  18.051  65.123  1.00  0.00    -0.067 NA
HETATM   17  N2  UNL     1      22.749  19.282  64.898  1.00  0.00    -0.067 NA
ATOM     18  H3  UNL     1      22.367  17.863  62.977  1.00  0.00     0.162 HD
ENDBRANCH  13  14
ENDBRANCH  12  13
ENDBRANCH  10  12
ENDBRANCH   9  10
ENDBRANCH   1   9
BRANCH   4  19
HETATM   19  N6  UNL     1      28.823  18.877  62.185  1.00  0.00    -0.313 N 
ATOM     20  H6  UNL     1      29.834  18.752  62.239  1.00  0.00     0.170 HD
BRANCH  19  21
HETATM   21  C7  UNL     1      28.331  19.729  62.973  1.00  0.00     0.123 A 
HETATM   22  C8  UNL     1      29.117  20.685  63.557  1.00  0.00     0.136 A 
HETATM   23  N7  UNL     1      28.564  21.589  64.417  1.00  0.00    -0.371 N 
HETATM   24  C9  UNL     1      27.250  21.581  64.722  1.00  0.00     0.104 A 
ATOM     25  H7  UNL     1      29.166  22.294  64.843  1.00  0.00     0.164 HD
HETATM   26  C10 UNL     1      26.492  20.596  64.108  1.00  0.00     0.106 A 
HETATM   27  N8  UNL     1      26.990  19.693  63.262  1.00  0.00    -0.350 N 
ATOM     28  H8  UNL     1      26.386  18.990  62.838  1.00  0.00     0.166 HD
ENDBRANCH  19  21
ENDBRANCH   4  19
TORSDOF 7
ENDMDL
MODEL 2
REMARK VINA RESULT: -6.998175259      1.680      2.283
REMARK  7 active torsions:
REMARK  status: ('A' for Active; 'I' for Inactive)
REMARK    1  A    between atoms: N3_4  and  C2_6 
REMARK    2  A    between atoms: C2_6  and  C3_7 
REMARK    3  A    between atoms: C3_7  and  N4_8 
REMARK    4  A    between atoms: N4_8  and  C4_10 
REMARK    5  A    between atoms: C4_10  and  C5_11 
REMARK    6  A    between atoms: C6_14  and  N6_15 
REMARK    7  A    between atoms: N6_15  and  C7_17 
ROOT
HETATM    1  C5  UNL     1      27.204  16.179  60.157  1.00  0.00     0.194 A 
HETATM    2  N5  UNL     1      27.807  16.832  61.278  1.00  0.00    -0.347 N 
ATOM      3  H5  UNL     1      28.060  16.357  62.145  1.00  0.00     0.163 HD
HETATM    4  C6  UNL     1      27.996  18.101  61.067  1.00  0.00     0.184 A 
HETATM    5  N9  UNL     1      27.509  18.438  59.751  1.00  0.00    -0.297 N 
ATOM      6  H9  UNL     1      27.528  19.361  59.318  1.00  0.00     0.172 HD
HETATM    7  C11 UNL     1      26.998  17.247  59.171  1.00  0.00     0.248 A 
HETATM    8  O1  UNL     1      26.474  17.118  58.048  1.00  0.00    -0.271 OA
ENDROOT
BRANCH   1   9
HETATM    9  C4  UNL     1      25.888  15.575  60.589  1.00  0.00     0.153 C 
BRANCH   9  10
HETATM   10  N4  UNL     1      24.809  16.466  60.278  1.00  0.00    -0.398 N 
ATOM     11  H4  UNL     1      24.820  17.062  59.450  1.00  0.00     0.158 HD
BRANCH  10  12
HETATM   12  C3  UNL     1      23.732  16.468  61.187  1.00  0.00     0.075 C 
BRANCH  12  13
HETATM   13  C2  UNL     1      24.047  16.531  62.639  1.00  0.00     0.166 C 
BRANCH  13  14
HETATM   14  N3  UNL     1      24.484  17.885  62.912  1.00  0.00    -0.362 N 
HETATM   15  C1  UNL     1      25.534  18.183  63.589  1.00  0.00     0.197 C 
HETATM   16  N1  UNL     1      26.408  17.219  64.163  1.00  0.00    -0.067 NA
HETATM   17  N2  UNL     1      25.805  19.564  63.754  1.00  0.00    -0.067 NA
ATOM     18  H3  UNL     1      23.922  18.652  62.542  1.00  0.00     0.162 HD
ENDBRANCH  13  14
ENDBRANCH  12  13
ENDBRANCH  10  12
ENDBRANCH   9  10
ENDBRANCH   1   9
BRANCH   4  19
HETATM   19  N6  UNL     1      28.578  18.934  62.025  1.00  0.00    -0.313 N 
ATOM     20  H6  UNL     1      28.311  19.918  61.981  1.00  0.00     0.170 HD
BRANCH  19  21
HETATM   21  C7  UNL     1      29.391  18.626  62.938  1.00  0.00     0.123 A 
HETATM   22  C8  UNL     1      30.610  18.082  62.641  1.00  0.00     0.136 A 
HETATM   23  N7  UNL     1      31.469  17.744  63.646  1.00  0.00    -0.371 N 
HETATM   24  C9  UNL     1      31.162  17.929  64.947  1.00  0.00     0.104 A 
ATOM     25  H7  UNL     1      32.374  17.339  63.406  1.00  0.00     0.164 HD
HETATM   26  C10 UNL     1      29.917  18.483  65.202  1.00  0.00     0.106 A 
HETATM   27  N8  UNL     1      29.047  18.827  64.251  1.00  0.00    -0.350 N 
ATOM     28  H8  UNL     1      28.144  19.232  64.495  1.00  0.00     0.166 HD
ENDBRANCH  19  21
ENDBRANCH   4  19
TORSDOF 7
ENDMDL
MODEL 3
REMARK VINA RESULT: -6.958222175      1.426      1.926
REMARK  7 active torsions:
REMARK  status: ('A' for Active; 'I' for Inactive)
REMARK    1  A    between atoms: N3_4  and  C2_6 
REMARK    2  A    between atoms: C2_6  and  C3_7 
REMARK    3  A    between atoms: C3_7  and  N4_8 
REMARK    4  A    between atoms: N4_8  and  C4_10 
REMARK    5  A    between atoms: C4_10  and  C5_11 
REMARK    6  A    between atoms: C6_14  and  N6_15 
REMARK    7  A    between atoms: N6_15  and  C7_17 
ROOT
HETATM    1  C5  UNL     1      27.883  16.173  60.644  1.00  0.00     0.194 A 
HETATM    2  N5  UNL     1      27.859  16.538  62.028  1.00  0.00    -0.347 N 
ATOM      3  H5  UNL     1      28.352  16.025  62.759  1.00  0.00     0.163 HD
HETATM    4  C6  UNL     1      27.137  17.596  62.247  1.00  0.00     0.184 A 
HETATM    5  N9  UNL     1      26.575  18.050  60.998  1.00  0.00    -0.297 N 
ATOM      6  H9  UNL     1      25.968  18.860  60.867  1.00  0.00     0.172 HD
HETATM    7  C11 UNL     1      27.022  17.162  59.985  1.00  0.00     0.248 A 
HETATM    8  O1  UNL     1      26.747  17.202  58.770  1.00  0.00    -0.271 OA
ENDROOT
BRANCH   1   9
HETATM    9  C4  UNL     1      27.323  14.778  60.495  1.00  0.00     0.153 C 
BRANCH   9  10
HETATM   10  N4  UNL     1      25.892  14.806  60.583  1.00  0.00    -0.398 N 
ATOM     11  H4  UNL     1      25.318  15.304  59.903  1.00  0.00     0.158 HD
BRANCH  10  12
HETATM   12  C3  UNL     1      25.329  14.104  61.668  1.00  0.00     0.075 C 
BRANCH  12  13
HETATM   13  C2  UNL     1      23.895  14.344  61.982  1.00  0.00     0.166 C 
BRANCH  13  14
HETATM   14  N3  UNL     1      23.852  15.466  62.897  1.00  0.00    -0.362 N 
HETATM   15  C1  UNL     1      23.707  16.689  62.534  1.00  0.00     0.197 C 
HETATM   16  N1  UNL     1      23.570  17.104  61.180  1.00  0.00    -0.067 NA
HETATM   17  N2  UNL     1      23.687  17.655  63.571  1.00  0.00    -0.067 NA
ATOM     18  H3  UNL     1      23.942  15.272  63.895  1.00  0.00     0.162 HD
ENDBRANCH  13  14
ENDBRANCH  12  13
ENDBRANCH  10  12
ENDBRANCH   9  10
ENDBRANCH   1   9
BRANCH   4  19
HETATM   19  N6  UNL     1      26.977  18.135  63.526  1.00  0.00    -0.313 N 
ATOM     20  H6  UNL     1      26.933  17.461  64.291  1.00  0.00     0.170 HD
BRANCH  19  21
HETATM   21  C7  UNL     1      26.882  19.348  63.856  1.00  0.00     0.123 A 
HETATM   22  C8  UNL     1      27.997  20.119  64.038  1.00  0.00     0.136 A 
HETATM   23  N7  UNL     1      27.869  21.426  64.407  1.00  0.00    -0.371 N 
HETATM   24  C9  UNL     1      26.665  22.003  64.605  1.00  0.00     0.104 A 
ATOM     25  H7  UNL     1      28.712  21.986  64.539  1.00  0.00     0.164 HD
HETATM   26  C10 UNL     1      25.563  21.185  64.410  1.00  0.00     0.106 A 
HETATM   27  N8  UNL     1      25.642  19.903  64.049  1.00  0.00    -0.350 N 
ATOM     28  H8  UNL     1      24.797  19.347  63.919  1.00  0.00     0.166 HD
ENDBRANCH  19  21
ENDBRANCH   4  19
TORSDOF 7
ENDMDL
MODEL 4
REMARK VINA RESULT: -6.939987018      2.052      5.252
REMARK  7 active torsions:
REMARK  status: ('A' for Active; 'I' for Inactive)
REMARK    1  A    between atoms: N3_4  and  C2_6 
REMARK    2  A    between atoms: C2_6  and  C3_7 
REMARK    3  A    between atoms: C3_7  and  N4_8 
REMARK    4  A    between atoms: N4_8  and  C4_10 
REMARK    5  A    between atoms: C4_10  and  C5_11 
REMARK    6  A    between atoms: C6_14  and  N6_15 
REMARK    7  A    between atoms: N6_15  and  C7_17 
ROOT
HETATM    1  C5  UNL     1      29.893  18.730  62.369  1.00  0.00     0.194 A 
HETATM    2  N5  UNL     1      28.659  18.843  61.652  1.00  0.00    -0.347 N 
ATOM      3  H5  UNL     1      28.229  19.733  61.398  1.00  0.00     0.163 HD
HETATM    4  C6  UNL     1      28.149  17.683  61.362  1.00  0.00     0.184 A 
HETATM    5  N9  UNL     1      29.007  16.647  61.885  1.00  0.00    -0.297 N 
ATOM      6  H9  UNL     1      28.856  15.641  61.806  1.00  0.00     0.172 HD
HETATM    7  C11 UNL     1      30.098  17.286  62.529  1.00  0.00     0.248 A 
HETATM    8  O1  UNL     1      31.051  16.742  63.120  1.00  0.00    -0.271 OA
ENDROOT
BRANCH   1   9
HETATM    9  C4  UNL     1      29.747  19.413  63.708  1.00  0.00     0.153 C 
BRANCH   9  10
HETATM   10  N4  UNL     1      29.063  20.663  63.555  1.00  0.00    -0.398 N 
ATOM     11  H4  UNL     1      28.963  21.118  62.647  1.00  0.00     0.158 HD
BRANCH  10  12
HETATM   12  C3  UNL     1      28.538  21.226  64.735  1.00  0.00     0.075 C 
BRANCH  12  13
HETATM   13  C2  UNL     1      27.071  21.463  64.800  1.00  0.00     0.166 C 
BRANCH  13  14
HETATM   14  N3  UNL     1      26.448  20.169  64.986  1.00  0.00    -0.362 N 
HETATM   15  C1  UNL     1      25.928  19.474  64.039  1.00  0.00     0.197 C 
HETATM   16  N1  UNL     1      25.896  19.886  62.678  1.00  0.00    -0.067 NA
HETATM   17  N2  UNL     1      25.363  18.228  64.410  1.00  0.00    -0.067 NA
ATOM     18  H3  UNL     1      26.420  19.784  65.931  1.00  0.00     0.162 HD
ENDBRANCH  13  14
ENDBRANCH  12  13
ENDBRANCH  10  12
ENDBRANCH   9  10
ENDBRANCH   1   9
BRANCH   4  19
HETATM   19  N6  UNL     1      26.949  17.555  60.660  1.00  0.00    -0.313 N 
ATOM     20  H6  UNL     1      26.794  18.234  59.914  1.00  0.00     0.170 HD
BRANCH  19  21
HETATM   21  C7  UNL     1      26.032  16.707  60.829  1.00  0.00     0.123 A 
HETATM   22  C8  UNL     1      26.134  15.445  60.311  1.00  0.00     0.136 A 
HETATM   23  N7  UNL     1      25.124  14.547  60.497  1.00  0.00    -0.371 N 
HETATM   24  C9  UNL     1      24.004  14.857  61.183  1.00  0.00     0.104 A 
ATOM     25  H7  UNL     1      25.218  13.611  60.103  1.00  0.00     0.164 HD
HETATM   26  C10 UNL     1      23.942  16.146  61.690  1.00  0.00     0.106 A 
HETATM   27  N8  UNL     1      24.906  17.054  61.533  1.00  0.00    -0.350 N 
ATOM     28  H8  UNL     1      24.808  17.989  61.928  1.00  0.00     0.166 HD
ENDBRANCH  19  21
ENDBRANCH   4  19
TORSDOF 7
ENDMDL
MODEL 5
REMARK VINA RESULT: -6.925478598      2.286      5.107
REMARK  7 active torsions:
REMARK  status: ('A' for Active; 'I' for Inactive)
REMARK    1  A    between atoms: N3_4  and  C2_6 
REMARK    2  A    between atoms: C2_6  and  C3_7 
REMARK    3  A    between atoms: C3_7  and  N4_8 
REMARK    4  A    between atoms: N4_8  and  C4_10 
REMARK    5  A    between atoms: C4_10  and  C5_11 
REMARK    6  A    between atoms: C6_14  and  N6_15 
REMARK    7  A    between atoms: N6_15  and  C7_17 
ROOT
HETATM    1  C5  UNL     1      29.870  18.720  62.413  1.00  0.00     0.194 A 
HETATM    2  N5  UNL     1      28.676  18.798  61.627  1.00  0.00    -0.347 N 
ATOM      3  H5  UNL     1      28.256  19.674  61.317  1.00  0.00     0.163 HD
HETATM    4  C6  UNL     1      28.186  17.625  61.355  1.00  0.00     0.184 A 
HETATM    5  N9  UNL     1      29.019  16.614  61.962  1.00  0.00    -0.297 N 
ATOM      6  H9  UNL     1      28.877  15.605  61.913  1.00  0.00     0.172 HD
HETATM    7  C11 UNL     1      30.072  17.284  62.639  1.00  0.00     0.248 A 
HETATM    8  O1  UNL     1      30.994  16.768  63.300  1.00  0.00    -0.271 OA
ENDROOT
BRANCH   1   9
HETATM    9  C4  UNL     1      29.650  19.451  63.715  1.00  0.00     0.153 C 
BRANCH   9  10
HETATM   10  N4  UNL     1      29.378  18.517  64.768  1.00  0.00    -0.398 N 
ATOM     11  H4  UNL     1      29.980  17.713  64.948  1.00  0.00     0.158 HD
BRANCH  10  12
HETATM   12  C3  UNL     1      28.227  18.776  65.539  1.00  0.00     0.075 C 
BRANCH  12  13
HETATM   13  C2  UNL     1      26.903  18.463  64.939  1.00  0.00     0.166 C 
BRANCH  13  14
HETATM   14  N3  UNL     1      26.142  19.696  64.945  1.00  0.00    -0.362 N 
HETATM   15  C1  UNL     1      25.764  20.317  63.886  1.00  0.00     0.197 C 
HETATM   16  N1  UNL     1      26.045  19.875  62.563  1.00  0.00    -0.067 NA
HETATM   17  N2  UNL     1      25.026  21.510  64.086  1.00  0.00    -0.067 NA
ATOM     18  H3  UNL     1      25.889  20.097  65.848  1.00  0.00     0.162 HD
ENDBRANCH  13  14
ENDBRANCH  12  13
ENDBRANCH  10  12
ENDBRANCH   9  10
ENDBRANCH   1   9
BRANCH   4  19
HETATM   19  N6  UNL     1      27.026  17.462  60.595  1.00  0.00    -0.313 N 
ATOM     20  H6  UNL     1      26.936  18.073  59.783  1.00  0.00     0.170 HD
BRANCH  19  21
HETATM   21  C7  UNL     1      26.075  16.657  60.785  1.00  0.00     0.123 A 
HETATM   22  C8  UNL     1      26.130  15.376  60.309  1.00  0.00     0.136 A 
HETATM   23  N7  UNL     1      25.083  14.526  60.516  1.00  0.00    -0.371 N 
HETATM   24  C9  UNL     1      23.972  14.902  61.183  1.00  0.00     0.104 A 
ATOM     25  H7  UNL     1      25.141  13.574  60.153  1.00  0.00     0.164 HD
HETATM   26  C10 UNL     1      23.959  16.208  61.648  1.00  0.00     0.106 A 
HETATM   27  N8  UNL     1      24.959  17.072  61.468  1.00  0.00    -0.350 N 
ATOM     28  H8  UNL     1      24.897  18.023  61.832  1.00  0.00     0.166 HD
ENDBRANCH  19  21
ENDBRANCH   4  19
TORSDOF 7
ENDMDL
