MODEL 1
REMARK VINA RESULT: -7.363127601      0.000      0.000
REMARK  6 active torsions:
REMARK  status: ('A' for Active; 'I' for Inactive)
REMARK    1  A    between atoms: C3_5  and  C4_6 
REMARK    2  A    between atoms: C4_6  and  N2_7 
REMARK    3  A    between atoms: C4_6  and  C5_13 
REMARK    4  A    between atoms: N2_7  and  S1_9 
REMARK    5  A    between atoms: C10_21  and  N4_22 
REMARK    6  A    between atoms: N4_22  and  N5_24 
ROOT
HETATM    1  C1  UNL     1      27.160  14.202  59.643  1.00  0.00     0.155 C 
HETATM    2  N1  UNL     1      26.835  15.024  60.811  1.00  0.00    -0.334 N 
HETATM    3  C2  UNL     1      26.941  16.472  60.851  1.00  0.00     0.227 C 
HETATM    4  O1  UNL     1      26.915  17.177  59.843  1.00  0.00    -0.273 OA
HETATM    5  C3  UNL     1      27.071  16.748  62.317  1.00  0.00     0.107 C 
HETATM    6  C9  UNL     1      25.885  15.856  62.746  1.00  0.00     0.064 C 
HETATM    7  C10 UNL     1      26.364  14.546  62.090  1.00  0.00     0.204 C 
ENDROOT
BRANCH   5   8
HETATM    8  C4  UNL     1      26.965  18.143  62.731  1.00  0.00     0.131 C 
BRANCH   8   9
HETATM    9  N2  UNL     1      28.281  18.693  63.183  1.00  0.00    -0.293 N 
ATOM     10  H2  UNL     1      28.763  18.462  64.053  1.00  0.00     0.175 HD
BRANCH   9  11
HETATM   11  S1  UNL     1      28.833  19.777  61.980  1.00  0.00     0.204 S 
HETATM   12  O2  UNL     1      29.999  19.162  61.203  1.00  0.00    -0.578 OA
HETATM   13  O3  UNL     1      27.774  20.013  60.923  1.00  0.00    -0.578 OA
HETATM   14  O4  UNL     1      29.368  21.241  62.532  1.00  0.00    -0.578 OA
ENDBRANCH   9  11
ENDBRANCH   8   9
BRANCH   8  15
HETATM   15  C5  UNL     1      26.010  18.448  63.865  1.00  0.00     0.109 C 
HETATM   16  C6  UNL     1      26.473  18.496  65.253  1.00  0.00     0.036 C 
HETATM   17  C7  UNL     1      25.055  18.617  65.923  1.00  0.00     0.105 C 
HETATM   18  C8  UNL     1      24.531  19.701  65.006  1.00  0.00     0.218 C 
HETATM   19  O5  UNL     1      23.614  20.473  65.343  1.00  0.00    -0.274 OA
HETATM   20  N3  UNL     1      25.260  19.657  63.757  1.00  0.00    -0.354 N 
ATOM     21  H3  UNL     1      25.243  20.327  62.988  1.00  0.00     0.162 HD
ENDBRANCH   8  15
ENDBRANCH   5   8
BRANCH   7  22
HETATM   22  N4  UNL     1      25.220  13.698  61.992  1.00  0.00    -0.299 N 
ATOM     23  H4  UNL     1      25.318  12.691  62.116  1.00  0.00     0.184 HD
BRANCH  22  24
HETATM   24  N5  UNL     1      23.975  14.250  61.727  1.00  0.00    -0.252 N 
HETATM   25  N6  UNL     1      23.439  14.255  60.567  1.00  0.00    -0.331 N 
ATOM     26  H62 UNL     1      23.968  13.827  59.807  1.00  0.00     0.178 HD
ATOM     27  H61 UNL     1      22.524  14.661  60.372  1.00  0.00     0.178 HD
ATOM     28  H5  UNL     1      23.460  14.674  62.499  1.00  0.00     0.207 HD
ENDBRANCH  22  24
ENDBRANCH   7  22
TORSDOF 6
ENDMDL
MODEL 2
REMARK VINA RESULT: -7.269388657      2.280      4.021
REMARK  6 active torsions:
REMARK  status: ('A' for Active; 'I' for Inactive)
REMARK    1  A    between atoms: C3_5  and  C4_6 
REMARK    2  A    between atoms: C4_6  and  N2_7 
REMARK    3  A    between atoms: C4_6  and  C5_13 
REMARK    4  A    between atoms: N2_7  and  S1_9 
REMARK    5  A    between atoms: C10_21  and  N4_22 
REMARK    6  A    between atoms: N4_22  and  N5_24 
ROOT
HETATM    1  C1  UNL     1      27.560  17.526  59.974  1.00  0.00     0.155 C 
HETATM    2  N1  UNL     1      26.789  17.468  61.218  1.00  0.00    -0.334 N 
HETATM    3  C2  UNL     1      26.735  18.537  62.201  1.00  0.00     0.227 C 
HETATM    4  O1  UNL     1      26.975  19.713  61.930  1.00  0.00    -0.273 OA
HETATM    5  C3  UNL     1      26.345  17.810  63.450  1.00  0.00     0.107 C 
HETATM    6  C9  UNL     1      25.176  17.026  62.813  1.00  0.00     0.064 C 
HETATM    7  C10 UNL     1      25.970  16.367  61.668  1.00  0.00     0.204 C 
ENDROOT
BRANCH   5   8
HETATM    8  C4  UNL     1      25.973  18.632  64.596  1.00  0.00     0.131 C 
BRANCH   8   9
HETATM    9  N2  UNL     1      24.928  19.643  64.243  1.00  0.00    -0.293 N 
ATOM     10  H2  UNL     1      24.927  20.246  63.420  1.00  0.00     0.175 HD
BRANCH   9  11
HETATM   11  S1  UNL     1      23.733  19.606  65.467  1.00  0.00     0.204 S 
HETATM   12  O2  UNL     1      22.359  19.944  64.882  1.00  0.00    -0.578 OA
HETATM   13  O3  UNL     1      23.558  18.208  66.024  1.00  0.00    -0.578 OA
HETATM   14  O4  UNL     1      23.969  20.653  66.725  1.00  0.00    -0.578 OA
ENDBRANCH   9  11
ENDBRANCH   8   9
BRANCH   8  15
HETATM   15  C5  UNL     1      27.078  19.433  65.250  1.00  0.00     0.109 C 
HETATM   16  C6  UNL     1      28.454  18.933  65.288  1.00  0.00     0.036 C 
HETATM   17  C7  UNL     1      29.033  20.040  66.244  1.00  0.00     0.105 C 
HETATM   18  C8  UNL     1      28.417  21.220  65.523  1.00  0.00     0.218 C 
HETATM   19  O5  UNL     1      28.891  22.368  65.600  1.00  0.00    -0.274 OA
HETATM   20  N3  UNL     1      27.257  20.769  64.784  1.00  0.00    -0.354 N 
ATOM     21  H3  UNL     1      26.704  21.281  64.098  1.00  0.00     0.162 HD
ENDBRANCH   8  15
ENDBRANCH   5   8
BRANCH   7  22
HETATM   22  N4  UNL     1      25.011  15.942  60.700  1.00  0.00    -0.299 N 
ATOM     23  H4  UNL     1      24.589  16.620  60.066  1.00  0.00     0.184 HD
BRANCH  22  24
HETATM   24  N5  UNL     1      24.653  14.603  60.626  1.00  0.00    -0.252 N 
HETATM   25  N6  UNL     1      23.442  14.200  60.571  1.00  0.00    -0.331 N 
ATOM     26  H62 UNL     1      22.712  14.912  60.583  1.00  0.00     0.178 HD
ATOM     27  H61 UNL     1      23.179  13.216  60.517  1.00  0.00     0.178 HD
ATOM     28  H5  UNL     1      25.396  13.905  60.616  1.00  0.00     0.207 HD
ENDBRANCH  22  24
ENDBRANCH   7  22
TORSDOF 6
ENDMDL
MODEL 3
REMARK VINA RESULT: -7.238243438      2.808      4.391
REMARK  6 active torsions:
REMARK  status: ('A' for Active; 'I' for Inactive)
REMARK    1  A    between atoms: C3_5  and  C4_6 
REMARK    2  A    between atoms: C4_6  and  N2_7 
REMARK    3  A    between atoms: C4_6  and  C5_13 
REMARK    4  A    between atoms: N2_7  and  S1_9 
REMARK    5  A    between atoms: C10_21  and  N4_22 
REMARK    6  A    between atoms: N4_22  and  N5_24 
ROOT
HETATM    1  C1  UNL     1      26.865  17.191  58.195  1.00  0.00     0.155 C 
HETATM    2  N1  UNL     1      27.071  17.115  59.644  1.00  0.00    -0.334 N 
HETATM    3  C2  UNL     1      27.808  18.097  60.420  1.00  0.00     0.227 C 
HETATM    4  O1  UNL     1      27.979  19.258  60.049  1.00  0.00    -0.273 OA
HETATM    5  C3  UNL     1      28.214  17.317  61.631  1.00  0.00     0.107 C 
HETATM    6  C9  UNL     1      26.815  16.723  61.906  1.00  0.00     0.064 C 
HETATM    7  C10 UNL     1      26.589  16.078  60.524  1.00  0.00     0.204 C 
ENDROOT
BRANCH   5   8
HETATM    8  C4  UNL     1      28.782  18.077  62.739  1.00  0.00     0.131 C 
BRANCH   8   9
HETATM    9  N2  UNL     1      28.687  19.553  62.511  1.00  0.00    -0.293 N 
ATOM     10  H2  UNL     1      29.216  20.091  61.824  1.00  0.00     0.175 HD
BRANCH   9  11
HETATM   11  S1  UNL     1      27.531  20.176  63.608  1.00  0.00     0.204 S 
HETATM   12  O2  UNL     1      26.131  20.126  62.992  1.00  0.00    -0.578 OA
HETATM   13  O3  UNL     1      27.418  19.306  64.843  1.00  0.00    -0.578 OA
HETATM   14  O4  UNL     1      27.771  21.742  64.081  1.00  0.00    -0.578 OA
ENDBRANCH   9  11
ENDBRANCH   8   9
BRANCH   8  15
HETATM   15  C5  UNL     1      30.239  17.829  63.062  1.00  0.00     0.109 C 
HETATM   16  C6  UNL     1      30.632  16.916  64.137  1.00  0.00     0.036 C 
HETATM   17  C7  UNL     1      32.168  17.254  64.123  1.00  0.00     0.105 C 
HETATM   18  C8  UNL     1      32.343  17.166  62.622  1.00  0.00     0.218 C 
HETATM   19  O5  UNL     1      33.444  16.929  62.093  1.00  0.00    -0.274 OA
HETATM   20  N3  UNL     1      31.065  17.396  61.983  1.00  0.00    -0.354 N 
ATOM     21  H3  UNL     1      30.816  17.276  61.001  1.00  0.00     0.162 HD
ENDBRANCH   8  15
ENDBRANCH   5   8
BRANCH   7  22
HETATM   22  N4  UNL     1      25.186  15.844  60.410  1.00  0.00    -0.299 N 
ATOM     23  H4  UNL     1      24.556  16.613  60.179  1.00  0.00     0.184 HD
BRANCH  22  24
HETATM   24  N5  UNL     1      24.681  14.567  60.613  1.00  0.00    -0.252 N 
HETATM   25  N6  UNL     1      23.434  14.291  60.587  1.00  0.00    -0.331 N 
ATOM     26  H62 UNL     1      22.789  15.060  60.405  1.00  0.00     0.178 HD
ATOM     27  H61 UNL     1      23.063  13.352  60.736  1.00  0.00     0.178 HD
ATOM     28  H5  UNL     1      25.340  13.810  60.793  1.00  0.00     0.207 HD
ENDBRANCH  22  24
ENDBRANCH   7  22
TORSDOF 6
ENDMDL
MODEL 4
REMARK VINA RESULT: -7.174906561      1.114      1.253
REMARK  6 active torsions:
REMARK  status: ('A' for Active; 'I' for Inactive)
REMARK    1  A    between atoms: C3_5  and  C4_6 
REMARK    2  A    between atoms: C4_6  and  N2_7 
REMARK    3  A    between atoms: C4_6  and  C5_13 
REMARK    4  A    between atoms: N2_7  and  S1_9 
REMARK    5  A    between atoms: C10_21  and  N4_22 
REMARK    6  A    between atoms: N4_22  and  N5_24 
ROOT
HETATM    1  C1  UNL     1      27.479  13.775  61.261  1.00  0.00     0.155 C 
HETATM    2  N1  UNL     1      26.802  15.036  61.574  1.00  0.00    -0.334 N 
HETATM    3  C2  UNL     1      27.485  16.293  61.830  1.00  0.00     0.227 C 
HETATM    4  O1  UNL     1      28.622  16.535  61.426  1.00  0.00    -0.273 OA
HETATM    5  C3  UNL     1      26.473  17.056  62.626  1.00  0.00     0.107 C 
HETATM    6  C9  UNL     1      25.288  16.779  61.674  1.00  0.00     0.064 C 
HETATM    7  C10 UNL     1      25.376  15.240  61.678  1.00  0.00     0.204 C 
ENDROOT
BRANCH   5   8
HETATM    8  C4  UNL     1      26.752  18.470  62.854  1.00  0.00     0.131 C 
BRANCH   8   9
HETATM    9  N2  UNL     1      28.197  18.711  63.161  1.00  0.00    -0.293 N 
ATOM     10  H2  UNL     1      28.725  18.303  63.933  1.00  0.00     0.175 HD
BRANCH   9  11
HETATM   11  S1  UNL     1      28.805  19.794  61.983  1.00  0.00     0.204 S 
HETATM   12  O2  UNL     1      30.089  19.239  61.362  1.00  0.00    -0.578 OA
HETATM   13  O3  UNL     1      27.856  19.921  60.810  1.00  0.00    -0.578 OA
HETATM   14  O4  UNL     1      29.176  21.309  62.533  1.00  0.00    -0.578 OA
ENDBRANCH   9  11
ENDBRANCH   8   9
BRANCH   8  15
HETATM   15  C5  UNL     1      26.001  19.141  63.984  1.00  0.00     0.109 C 
HETATM   16  C6  UNL     1      26.140  20.576  64.237  1.00  0.00     0.036 C 
HETATM   17  C7  UNL     1      25.345  20.608  65.594  1.00  0.00     0.105 C 
HETATM   18  C8  UNL     1      24.168  19.786  65.116  1.00  0.00     0.218 C 
HETATM   19  O5  UNL     1      23.046  19.856  65.650  1.00  0.00    -0.274 OA
HETATM   20  N3  UNL     1      24.586  18.969  63.996  1.00  0.00    -0.354 N 
ATOM     21  H3  UNL     1      24.008  18.408  63.370  1.00  0.00     0.162 HD
ENDBRANCH   8  15
ENDBRANCH   5   8
BRANCH   7  22
HETATM   22  N4  UNL     1      24.654  14.789  60.533  1.00  0.00    -0.299 N 
ATOM     23  H4  UNL     1      25.043  14.917  59.599  1.00  0.00     0.184 HD
BRANCH  22  24
HETATM   24  N5  UNL     1      23.420  14.174  60.695  1.00  0.00    -0.252 N 
HETATM   25  N6  UNL     1      23.104  13.490  61.727  1.00  0.00    -0.331 N 
ATOM     26  H62 UNL     1      23.807  13.401  62.461  1.00  0.00     0.178 HD
ATOM     27  H61 UNL     1      22.197  13.039  61.846  1.00  0.00     0.178 HD
ATOM     28  H5  UNL     1      22.730  14.274  59.951  1.00  0.00     0.207 HD
ENDBRANCH  22  24
ENDBRANCH   7  22
TORSDOF 6
ENDMDL
MODEL 5
REMARK VINA RESULT: -7.161390584      3.081      4.718
REMARK  6 active torsions:
REMARK  status: ('A' for Active; 'I' for Inactive)
REMARK    1  A    between atoms: C3_5  and  C4_6 
REMARK    2  A    between atoms: C4_6  and  N2_7 
REMARK    3  A    between atoms: C4_6  and  C5_13 
REMARK    4  A    between atoms: N2_7  and  S1_9 
REMARK    5  A    between atoms: C10_21  and  N4_22 
REMARK    6  A    between atoms: N4_22  and  N5_24 
ROOT
HETATM    1  C1  UNL     1      26.766  16.803  59.518  1.00  0.00     0.155 C 
HETATM    2  N1  UNL     1      27.018  17.267  60.884  1.00  0.00    -0.334 N 
HETATM    3  C2  UNL     1      28.188  18.028  61.290  1.00  0.00     0.227 C 
HETATM    4  O1  UNL     1      28.860  18.698  60.506  1.00  0.00    -0.273 OA
HETATM    5  C3  UNL     1      28.263  17.750  62.758  1.00  0.00     0.107 C 
HETATM    6  C9  UNL     1      26.774  18.043  63.047  1.00  0.00     0.064 C 
HETATM    7  C10 UNL     1      26.169  17.054  62.031  1.00  0.00     0.204 C 
ENDROOT
BRANCH   5   8
HETATM    8  C4  UNL     1      29.203  18.557  63.529  1.00  0.00     0.131 C 
BRANCH   8   9
HETATM    9  N2  UNL     1      29.261  19.969  63.038  1.00  0.00    -0.293 N 
ATOM     10  H2  UNL     1      29.462  20.266  62.083  1.00  0.00     0.175 HD
BRANCH   9  11
HETATM   11  S1  UNL     1      28.930  20.996  64.366  1.00  0.00     0.204 S 
HETATM   12  O2  UNL     1      28.503  20.173  65.583  1.00  0.00    -0.578 OA
HETATM   13  O3  UNL     1      30.180  21.714  64.831  1.00  0.00    -0.578 OA
HETATM   14  O4  UNL     1      27.735  22.113  64.121  1.00  0.00    -0.578 OA
ENDBRANCH   9  11
ENDBRANCH   8   9
BRANCH   8  15
HETATM   15  C5  UNL     1      30.644  18.095  63.549  1.00  0.00     0.109 C 
HETATM   16  C6  UNL     1      31.098  17.072  64.492  1.00  0.00     0.036 C 
HETATM   17  C7  UNL     1      32.636  17.200  64.187  1.00  0.00     0.105 C 
HETATM   18  C8  UNL     1      32.507  17.182  62.679  1.00  0.00     0.218 C 
HETATM   19  O5  UNL     1      33.440  16.831  61.934  1.00  0.00    -0.274 OA
HETATM   20  N3  UNL     1      31.177  17.621  62.314  1.00  0.00    -0.354 N 
ATOM     21  H3  UNL     1      30.730  17.597  61.397  1.00  0.00     0.162 HD
ENDBRANCH   8  15
ENDBRANCH   5   8
BRANCH   7  22
HETATM   22  N4  UNL     1      24.818  17.463  61.821  1.00  0.00    -0.299 N 
ATOM     23  H4  UNL     1      24.613  18.265  61.224  1.00  0.00     0.184 HD
BRANCH  22  24
HETATM   24  N5  UNL     1      23.784  16.768  62.430  1.00  0.00    -0.252 N 
HETATM   25  N6  UNL     1      23.021  17.277  63.321  1.00  0.00    -0.331 N 
ATOM     26  H62 UNL     1      23.196  18.246  63.586  1.00  0.00     0.178 HD
ATOM     27  H61 UNL     1      22.261  16.765  63.770  1.00  0.00     0.178 HD
ATOM     28  H5  UNL     1      23.624  15.799  62.154  1.00  0.00     0.207 HD
ENDBRANCH  22  24
ENDBRANCH   7  22
TORSDOF 6
ENDMDL
