MODEL 1
REMARK VINA RESULT: -10.208010704      0.000      0.000
REMARK  5 active torsions:
REMARK  status: ('A' for Active; 'I' for Inactive)
REMARK       I    between atoms: C1_2  and  N1_3 
REMARK    1  A    between atoms: C1_2  and  O3_14 
REMARK    2  A    between atoms: N1_3  and  C2_4 
REMARK    3  A    between atoms: O3_14  and  C11_15 
REMARK    4  A    between atoms: C11_15  and  C12_16 
REMARK    5  A    between atoms: C15_19  and  C16_20 
ROOT
HETATM    1  O3  UNL     1      96.611  60.318  18.716  1.00  0.00    -0.290 OA
ENDROOT
BRANCH   1   2
HETATM    2  C1  UNL     1      95.771  61.388  19.144  1.00  0.00     0.440 C 
HETATM    3  O1  UNL     1      94.597  61.242  18.712  1.00  0.00    -0.221 OA
HETATM    4  N1  UNL     1      96.224  62.396  19.914  1.00  0.00    -0.346 NA
BRANCH   4   5
HETATM    5  C2  UNL     1      96.677  63.405  20.684  1.00  0.00     0.116 A 
HETATM    6  C3  UNL     1      96.815  64.647  19.991  1.00  0.00     0.045 A 
HETATM    7  C4  UNL     1      97.228  65.792  20.609  1.00  0.00     0.013 A 
HETATM    8  C5  UNL     1      97.531  65.785  21.938  1.00  0.00    -0.025 A 
HETATM    9  C6  UNL     1      97.420  64.628  22.653  1.00  0.00     0.078 A 
HETATM   10  C10 UNL     1      97.988  66.983  22.678  1.00  0.00     0.043 C 
HETATM   11  C7  UNL     1      96.998  63.482  22.007  1.00  0.00     0.082 A 
HETATM   12  O2  UNL     1      97.739  64.670  24.001  1.00  0.00    -0.350 OA
HETATM   13  C8  UNL     1      98.737  65.539  24.516  1.00  0.00     0.176 C 
HETATM   14  C9  UNL     1      99.146  66.606  23.547  1.00  0.00     0.031 C 
ENDBRANCH   4   5
ENDBRANCH   1   2
BRANCH   1  15
HETATM   15  C11 UNL     1      96.256  59.061  18.339  1.00  0.00     0.216 C 
BRANCH  15  16
HETATM   16  C12 UNL     1      96.657  57.879  19.125  1.00  0.00     0.184 C 
HETATM   17  C13 UNL     1      97.484  58.195  20.360  1.00  0.00     0.040 C 
HETATM   18  C14 UNL     1      97.233  57.018  21.321  1.00  0.00     0.038 C 
HETATM   19  C15 UNL     1      97.414  55.774  20.453  1.00  0.00     0.164 C 
HETATM   20  O4  UNL     1      98.025  56.161  19.288  1.00  0.00    -0.235 OA
HETATM   21  O5  UNL     1      97.201  56.807  18.485  1.00  0.00    -0.233 OA
BRANCH  19  22
HETATM   22  C16 UNL     1      98.222  54.765  21.221  1.00  0.00     0.018 C 
HETATM   23  C17 UNL     1      98.222  53.423  20.519  1.00  0.00     0.007 C 
HETATM   24  C18 UNL     1      98.584  52.370  21.529  1.00  0.00     0.000 C 
HETATM   25  C19 UNL     1      97.358  52.087  22.376  1.00  0.00     0.000 C 
HETATM   26  C20 UNL     1      96.569  53.384  22.512  1.00  0.00     0.000 C 
HETATM   27  C21 UNL     1      97.513  54.589  22.561  1.00  0.00     0.007 C 
ENDBRANCH  19  22
ENDBRANCH  15  16
ENDBRANCH   1  15
TORSDOF 5
ENDMDL
MODEL 2
REMARK VINA RESULT: -10.036954959      1.419      2.050
REMARK  5 active torsions:
REMARK  status: ('A' for Active; 'I' for Inactive)
REMARK       I    between atoms: C1_2  and  N1_3 
REMARK    1  A    between atoms: C1_2  and  O3_14 
REMARK    2  A    between atoms: N1_3  and  C2_4 
REMARK    3  A    between atoms: O3_14  and  C11_15 
REMARK    4  A    between atoms: C11_15  and  C12_16 
REMARK    5  A    between atoms: C15_19  and  C16_20 
ROOT
HETATM    1  O3  UNL     1      95.979  61.704  17.233  1.00  0.00    -0.290 OA
ENDROOT
BRANCH   1   2
HETATM    2  C1  UNL     1      95.352  62.078  18.458  1.00  0.00     0.440 C 
HETATM    3  O1  UNL     1      94.247  61.492  18.596  1.00  0.00    -0.221 OA
HETATM    4  N1  UNL     1      95.915  62.946  19.320  1.00  0.00    -0.346 NA
BRANCH   4   5
HETATM    5  C2  UNL     1      96.478  63.814  20.184  1.00  0.00     0.116 A 
HETATM    6  C3  UNL     1      96.768  65.093  19.615  1.00  0.00     0.045 A 
HETATM    7  C4  UNL     1      97.309  66.115  20.340  1.00  0.00     0.013 A 
HETATM    8  C5  UNL     1      97.598  65.942  21.661  1.00  0.00    -0.025 A 
HETATM    9  C6  UNL     1      97.344  64.743  22.260  1.00  0.00     0.078 A 
HETATM   10  C10 UNL     1      98.188  67.000  22.513  1.00  0.00     0.043 C 
HETATM   11  C7  UNL     1      96.795  63.723  21.506  1.00  0.00     0.082 A 
HETATM   12  O2  UNL     1      97.655  64.615  23.605  1.00  0.00    -0.350 OA
HETATM   13  C8  UNL     1      98.745  65.305  24.199  1.00  0.00     0.176 C 
HETATM   14  C9  UNL     1      99.286  66.405  23.337  1.00  0.00     0.031 C 
ENDBRANCH   4   5
ENDBRANCH   1   2
BRANCH   1  15
HETATM   15  C11 UNL     1      95.889  60.527  16.559  1.00  0.00     0.216 C 
BRANCH  15  16
HETATM   16  C12 UNL     1      96.454  59.279  17.107  1.00  0.00     0.184 C 
HETATM   17  C13 UNL     1      97.767  59.457  17.851  1.00  0.00     0.040 C 
HETATM   18  C14 UNL     1      97.828  58.279  18.841  1.00  0.00     0.038 C 
HETATM   19  C15 UNL     1      97.467  57.056  17.999  1.00  0.00     0.164 C 
HETATM   20  O4  UNL     1      97.549  57.417  16.678  1.00  0.00    -0.235 OA
HETATM   21  O5  UNL     1      96.537  58.179  16.308  1.00  0.00    -0.233 OA
BRANCH  19  22
HETATM   22  C16 UNL     1      98.408  55.937  18.350  1.00  0.00     0.018 C 
HETATM   23  C17 UNL     1      97.658  54.632  18.520  1.00  0.00     0.007 C 
HETATM   24  C18 UNL     1      98.517  53.705  19.335  1.00  0.00     0.000 C 
HETATM   25  C19 UNL     1      98.410  54.121  20.790  1.00  0.00     0.000 C 
HETATM   26  C20 UNL     1      98.235  55.635  20.837  1.00  0.00     0.000 C 
HETATM   27  C21 UNL     1      99.015  56.304  19.701  1.00  0.00     0.007 C 
ENDBRANCH  19  22
ENDBRANCH  15  16
ENDBRANCH   1  15
TORSDOF 5
ENDMDL
MODEL 3
REMARK VINA RESULT: -9.991936558      1.059      1.736
REMARK  5 active torsions:
REMARK  status: ('A' for Active; 'I' for Inactive)
REMARK       I    between atoms: C1_2  and  N1_3 
REMARK    1  A    between atoms: C1_2  and  O3_14 
REMARK    2  A    between atoms: N1_3  and  C2_4 
REMARK    3  A    between atoms: O3_14  and  C11_15 
REMARK    4  A    between atoms: C11_15  and  C12_16 
REMARK    5  A    between atoms: C15_19  and  C16_20 
ROOT
HETATM    1  O3  UNL     1      96.283  61.081  17.680  1.00  0.00    -0.290 OA
ENDROOT
BRANCH   1   2
HETATM    2  C1  UNL     1      95.506  61.747  18.673  1.00  0.00     0.440 C 
HETATM    3  O1  UNL     1      94.314  61.340  18.662  1.00  0.00    -0.221 OA
HETATM    4  N1  UNL     1      96.029  62.681  19.491  1.00  0.00    -0.346 NA
BRANCH   4   5
HETATM    5  C2  UNL     1      96.552  63.614  20.311  1.00  0.00     0.116 A 
HETATM    6  C3  UNL     1      96.761  64.883  19.687  1.00  0.00     0.045 A 
HETATM    7  C4  UNL     1      97.252  65.963  20.363  1.00  0.00     0.013 A 
HETATM    8  C5  UNL     1      97.567  65.860  21.685  1.00  0.00    -0.025 A 
HETATM    9  C6  UNL     1      97.391  64.674  22.335  1.00  0.00     0.078 A 
HETATM   10  C10 UNL     1      98.106  66.984  22.484  1.00  0.00     0.043 C 
HETATM   11  C7  UNL     1      96.891  63.595  21.631  1.00  0.00     0.082 A 
HETATM   12  O2  UNL     1      97.726  64.619  23.679  1.00  0.00    -0.350 OA
HETATM   13  C8  UNL     1      98.781  65.394  24.228  1.00  0.00     0.176 C 
HETATM   14  C9  UNL     1      99.247  66.486  23.315  1.00  0.00     0.031 C 
ENDBRANCH   4   5
ENDBRANCH   1   2
BRANCH   1  15
HETATM   15  C11 UNL     1      97.420  60.354  17.841  1.00  0.00     0.216 C 
BRANCH  15  16
HETATM   16  C12 UNL     1      97.396  59.007  18.443  1.00  0.00     0.184 C 
HETATM   17  C13 UNL     1      96.991  57.898  17.486  1.00  0.00     0.040 C 
HETATM   18  C14 UNL     1      97.638  56.622  18.057  1.00  0.00     0.038 C 
HETATM   19  C15 UNL     1      97.291  56.653  19.545  1.00  0.00     0.164 C 
HETATM   20  O4  UNL     1      96.304  57.589  19.725  1.00  0.00    -0.235 OA
HETATM   21  O5  UNL     1      96.766  58.822  19.635  1.00  0.00    -0.233 OA
BRANCH  19  22
HETATM   22  C16 UNL     1      96.863  55.275  19.967  1.00  0.00     0.018 C 
HETATM   23  C17 UNL     1      97.243  55.008  21.408  1.00  0.00     0.007 C 
HETATM   24  C18 UNL     1      97.263  53.519  21.615  1.00  0.00     0.000 C 
HETATM   25  C19 UNL     1      98.552  52.978  21.026  1.00  0.00     0.000 C 
HETATM   26  C20 UNL     1      98.913  53.832  19.816  1.00  0.00     0.000 C 
HETATM   27  C21 UNL     1      97.648  54.303  19.091  1.00  0.00     0.007 C 
ENDBRANCH  19  22
ENDBRANCH  15  16
ENDBRANCH   1  15
TORSDOF 5
ENDMDL
MODEL 4
REMARK VINA RESULT: -9.986636880      7.695     10.656
REMARK  5 active torsions:
REMARK  status: ('A' for Active; 'I' for Inactive)
REMARK       I    between atoms: C1_2  and  N1_3 
REMARK    1  A    between atoms: C1_2  and  O3_14 
REMARK    2  A    between atoms: N1_3  and  C2_4 
REMARK    3  A    between atoms: O3_14  and  C11_15 
REMARK    4  A    between atoms: C11_15  and  C12_16 
REMARK    5  A    between atoms: C15_19  and  C16_20 
ROOT
HETATM    1  O3  UNL     1      97.749  68.101  16.989  1.00  0.00    -0.290 OA
ENDROOT
BRANCH   1   2
HETATM    2  C1  UNL     1      96.718  68.746  16.244  1.00  0.00     0.440 C 
HETATM    3  O1  UNL     1      96.783  69.997  16.376  1.00  0.00    -0.221 OA
HETATM    4  N1  UNL     1      95.821  68.060  15.510  1.00  0.00    -0.346 NA
BRANCH   4   5
HETATM    5  C2  UNL     1      94.924  67.374  14.775  1.00  0.00     0.116 A 
HETATM    6  C3  UNL     1      93.571  67.548  15.200  1.00  0.00     0.045 A 
HETATM    7  C4  UNL     1      92.517  66.961  14.560  1.00  0.00     0.013 A 
HETATM    8  C5  UNL     1      92.730  66.170  13.471  1.00  0.00    -0.025 A 
HETATM    9  C6  UNL     1      94.001  65.966  13.018  1.00  0.00     0.078 A 
HETATM   10  C10 UNL     1      91.641  65.498  12.726  1.00  0.00     0.043 C 
HETATM   11  C7  UNL     1      95.051  66.572  13.680  1.00  0.00     0.082 A 
HETATM   12  O2  UNL     1      94.166  65.154  11.907  1.00  0.00    -0.350 OA
HETATM   13  C8  UNL     1      93.303  64.059  11.634  1.00  0.00     0.176 C 
HETATM   14  C9  UNL     1      92.044  64.085  12.446  1.00  0.00     0.031 C 
ENDBRANCH   4   5
ENDBRANCH   1   2
BRANCH   1  15
HETATM   15  C11 UNL     1      97.779  66.829  17.468  1.00  0.00     0.216 C 
BRANCH  15  16
HETATM   16  C12 UNL     1      97.869  66.551  18.914  1.00  0.00     0.184 C 
HETATM   17  C13 UNL     1      96.577  66.052  19.539  1.00  0.00     0.040 C 
HETATM   18  C14 UNL     1      97.017  65.239  20.770  1.00  0.00     0.038 C 
HETATM   19  C15 UNL     1      98.030  66.138  21.477  1.00  0.00     0.164 C 
HETATM   20  O4  UNL     1      97.915  67.397  20.946  1.00  0.00    -0.235 OA
HETATM   21  O5  UNL     1      98.435  67.477  19.736  1.00  0.00    -0.233 OA
BRANCH  19  22
HETATM   22  C16 UNL     1      97.753  66.107  22.954  1.00  0.00     0.018 C 
HETATM   23  C17 UNL     1      98.210  67.389  23.618  1.00  0.00     0.007 C 
HETATM   24  C18 UNL     1      98.381  67.116  25.087  1.00  0.00     0.000 C 
HETATM   25  C19 UNL     1      99.693  66.381  25.281  1.00  0.00     0.000 C 
HETATM   26  C20 UNL     1      99.924  65.499  24.059  1.00  0.00     0.000 C 
HETATM   27  C21 UNL     1      98.594  64.965  23.517  1.00  0.00     0.007 C 
ENDBRANCH  19  22
ENDBRANCH  15  16
ENDBRANCH   1  15
TORSDOF 5
ENDMDL
MODEL 5
REMARK VINA RESULT: -9.911674278      7.786     10.293
REMARK  5 active torsions:
REMARK  status: ('A' for Active; 'I' for Inactive)
REMARK       I    between atoms: C1_2  and  N1_3 
REMARK    1  A    between atoms: C1_2  and  O3_14 
REMARK    2  A    between atoms: N1_3  and  C2_4 
REMARK    3  A    between atoms: O3_14  and  C11_15 
REMARK    4  A    between atoms: C11_15  and  C12_16 
REMARK    5  A    between atoms: C15_19  and  C16_20 
ROOT
HETATM    1  O3  UNL     1      97.410  69.110  17.378  1.00  0.00    -0.290 OA
ENDROOT
BRANCH   1   2
HETATM    2  C1  UNL     1      96.428  69.069  16.345  1.00  0.00     0.440 C 
HETATM    3  O1  UNL     1      96.528  70.070  15.587  1.00  0.00    -0.221 OA
HETATM    4  N1  UNL     1      95.537  68.065  16.237  1.00  0.00    -0.346 NA
BRANCH   4   5
HETATM    5  C2  UNL     1      94.645  67.060  16.128  1.00  0.00     0.116 A 
HETATM    6  C3  UNL     1      94.319  66.437  17.372  1.00  0.00     0.045 A 
HETATM    7  C4  UNL     1      93.410  65.423  17.470  1.00  0.00     0.013 A 
HETATM    8  C5  UNL     1      92.773  64.961  16.358  1.00  0.00    -0.025 A 
HETATM    9  C6  UNL     1      93.044  65.516  15.140  1.00  0.00     0.078 A 
HETATM   10  C10 UNL     1      91.779  63.864  16.382  1.00  0.00     0.043 C 
HETATM   11  C7  UNL     1      93.966  66.543  15.066  1.00  0.00     0.082 A 
HETATM   12  O2  UNL     1      92.371  65.012  14.038  1.00  0.00    -0.350 OA
HETATM   13  C8  UNL     1      91.983  63.650  13.945  1.00  0.00     0.176 C 
HETATM   14  C9  UNL     1      92.064  62.924  15.254  1.00  0.00     0.031 C 
ENDBRANCH   4   5
ENDBRANCH   1   2
BRANCH   1  15
HETATM   15  C11 UNL     1      98.300  68.149  17.741  1.00  0.00     0.216 C 
BRANCH  15  16
HETATM   16  C12 UNL     1      98.243  67.506  19.067  1.00  0.00     0.184 C 
HETATM   17  C13 UNL     1      96.847  67.403  19.657  1.00  0.00     0.040 C 
HETATM   18  C14 UNL     1      96.908  66.204  20.621  1.00  0.00     0.038 C 
HETATM   19  C15 UNL     1      98.178  66.436  21.437  1.00  0.00     0.164 C 
HETATM   20  O4  UNL     1      98.577  67.732  21.232  1.00  0.00    -0.235 OA
HETATM   21  O5  UNL     1      99.111  67.905  20.038  1.00  0.00    -0.233 OA
BRANCH  19  22
HETATM   22  C16 UNL     1      97.880  66.146  22.882  1.00  0.00     0.018 C 
HETATM   23  C17 UNL     1      98.153  67.359  23.745  1.00  0.00     0.007 C 
HETATM   24  C18 UNL     1      98.332  66.891  25.163  1.00  0.00     0.000 C 
HETATM   25  C19 UNL     1      99.725  66.308  25.295  1.00  0.00     0.000 C 
HETATM   26  C20 UNL     1     100.093  65.659  23.966  1.00  0.00     0.000 C 
HETATM   27  C21 UNL     1      98.855  65.049  23.301  1.00  0.00     0.007 C 
ENDBRANCH  19  22
ENDBRANCH  15  16
ENDBRANCH   1  15
TORSDOF 5
ENDMDL
