MODEL 1
REMARK VINA RESULT: -7.518370042      0.000      0.000
REMARK  14 active torsions:
REMARK  status: ('A' for Active; 'I' for Inactive)
REMARK    1  A    between atoms: N3_5  and  C2_6 
REMARK    2  A    between atoms: C2_6  and  C3_7 
REMARK    3  A    between atoms: C3_7  and  N4_8 
REMARK    4  A    between atoms: N4_8  and  S1_10 
REMARK    5  A    between atoms: S1_10  and  C4_13 
REMARK    6  A    between atoms: C7_16  and  C8_17 
REMARK       I    between atoms: C8_17  and  N5_19 
REMARK    7  A    between atoms: N5_19  and  C9_21 
REMARK    8  A    between atoms: C9_21  and  C10_22 
REMARK    9  A    between atoms: C10_22  and  O4_23 
REMARK   10  A    between atoms: C11_25  and  O5_26 
REMARK   11  A    between atoms: C12_30  and  O6_31 
REMARK   12  A    between atoms: C13_33  and  O7_34 
REMARK   13  A    between atoms: O7_34  and  S2_35 
REMARK   14  A    between atoms: C14_39  and  O11_40 
ROOT
HETATM    1  C4  UNL     1      17.218 -13.953 -10.733  1.00  0.00     0.079 A 
HETATM    2  C5  UNL     1      16.598 -13.011  -9.959  1.00  0.00     0.026 A 
HETATM    3  C6  UNL     1      17.311 -12.059  -9.234  1.00  0.00     0.018 A 
HETATM    4  C7  UNL     1      18.673 -12.070  -9.302  1.00  0.00     0.032 A 
HETATM    5  C15 UNL     1      19.344 -13.021 -10.085  1.00  0.00     0.018 A 
HETATM    6  C16 UNL     1      18.592 -13.937 -10.779  1.00  0.00     0.026 A 
ENDROOT
BRANCH   4   7
HETATM    7  C8  UNL     1      19.454 -11.079  -8.559  1.00  0.00     0.251 C 
HETATM    8  O3  UNL     1      19.021 -10.659  -7.430  1.00  0.00    -0.268 OA
HETATM    9  N5  UNL     1      20.673 -10.585  -9.067  1.00  0.00    -0.354 N 
ATOM     10  H5  UNL     1      21.039 -10.905  -9.963  1.00  0.00     0.162 HD
BRANCH   9  11
HETATM   11  C9  UNL     1      21.391  -9.603  -8.268  1.00  0.00     0.168 C 
BRANCH  11  12
HETATM   12  C10 UNL     1      22.356 -10.207  -7.295  1.00  0.00     0.145 C 
HETATM   13  C11 UNL     1      22.732 -11.604  -7.624  1.00  0.00     0.254 C 
HETATM   14  N6  UNL     1      23.832 -12.134  -6.897  1.00  0.00    -0.367 N 
HETATM   15  C12 UNL     1      24.833 -11.179  -6.529  1.00  0.00     0.248 C 
ATOM     16  H6  UNL     1      23.903 -13.123  -6.654  1.00  0.00     0.158 HD
HETATM   17  C13 UNL     1      24.808  -9.945  -7.408  1.00  0.00     0.225 C 
HETATM   18  C14 UNL     1      23.492  -9.248  -7.130  1.00  0.00     0.193 C 
BRANCH  12  19
HETATM   19  O4  UNL     1      21.679 -10.247  -6.050  1.00  0.00    -0.381 OA
ATOM     20  H4  UNL     1      22.040 -10.990  -5.581  1.00  0.00     0.211 HD
ENDBRANCH  12  19
BRANCH  13  21
HETATM   21  O5  UNL     1      22.961 -11.818  -8.980  1.00  0.00    -0.374 OA
ATOM     22  H5  UNL     1      23.603 -12.496  -9.156  1.00  0.00     0.212 HD
ENDBRANCH  13  21
BRANCH  15  23
HETATM   23  O6  UNL     1      26.116 -11.673  -6.460  1.00  0.00    -0.374 OA
ATOM     24  H6  UNL     1      26.324 -12.144  -5.661  1.00  0.00     0.212 HD
ENDBRANCH  15  23
BRANCH  17  25
HETATM   25  O7  UNL     1      25.876  -9.144  -7.028  1.00  0.00    -0.244 OA
BRANCH  25  26
HETATM   26  S2  UNL     1      26.875  -8.804  -8.335  1.00  0.00     0.252 S 
HETATM   27  O8  UNL     1      27.585 -10.061  -8.778  1.00  0.00    -0.572 OA
HETATM   28  O9  UNL     1      26.034  -8.361  -9.520  1.00  0.00    -0.572 OA
HETATM   29  O10 UNL     1      27.979  -7.595  -7.976  1.00  0.00    -0.572 OA
ENDBRANCH  25  26
ENDBRANCH  17  25
BRANCH  18  30
HETATM   30  O11 UNL     1      23.345  -8.108  -7.925  1.00  0.00    -0.390 OA
ATOM     31  H11 UNL     1      23.953  -7.419  -7.683  1.00  0.00     0.210 HD
ENDBRANCH  18  30
ENDBRANCH  11  12
ENDBRANCH   9  11
ENDBRANCH   4   7
BRANCH   1  32
HETATM   32  S1  UNL     1      16.311 -15.134 -11.635  1.00  0.00     0.258 S 
HETATM   33  O1  UNL     1      15.134 -14.442 -12.294  1.00  0.00    -0.201 OA
HETATM   34  O2  UNL     1      17.207 -15.723 -12.687  1.00  0.00    -0.201 OA
BRANCH  32  35
HETATM   35  N4  UNL     1      15.700 -16.309 -10.567  1.00  0.00    -0.314 N 
ATOM     36  H4  UNL     1      14.738 -16.643 -10.612  1.00  0.00     0.172 HD
BRANCH  35  37
HETATM   37  C3  UNL     1      16.636 -16.791  -9.603  1.00  0.00     0.154 C 
BRANCH  37  38
HETATM   38  C2  UNL     1      15.968 -16.927  -8.244  1.00  0.00     0.174 C 
BRANCH  38  39
HETATM   39  N3  UNL     1      16.288 -15.738  -7.494  1.00  0.00    -0.239 N 
HETATM   40  N2  UNL     1      17.556 -15.479  -7.237  1.00  0.00    -0.233 N 
HETATM   41  N1  UNL     1      17.902 -14.404  -6.556  1.00  0.00    -0.245 N 
ATOM     42  H2  UNL     1      18.278 -16.119  -7.570  1.00  0.00     0.209 HD
HETATM   43  C1  UNL     1      19.293 -14.129  -6.281  1.00  0.00     0.183 C 
HETATM   44  C19 UNL     1      16.998 -13.519  -6.088  1.00  0.00     0.294 A 
HETATM   45  C18 UNL     1      15.666 -13.763  -6.341  1.00  0.00     0.166 A 
HETATM   46  O13 UNL     1      17.323 -12.487  -5.435  1.00  0.00    -0.264 OA
HETATM   47  C17 UNL     1      15.333 -14.901  -7.058  1.00  0.00     0.295 A 
HETATM   48  N7  UNL     1      14.801 -12.925  -5.899  1.00  0.00    -0.390 N 
HETATM   49  O12 UNL     1      14.135 -15.141  -7.298  1.00  0.00    -0.264 OA
ATOM     50  H72 UNL     1      13.816 -13.107  -6.086  1.00  0.00     0.156 HD
ATOM     51  H71 UNL     1      15.046 -12.088  -5.370  1.00  0.00     0.156 HD
ENDBRANCH  38  39
ENDBRANCH  37  38
ENDBRANCH  35  37
ENDBRANCH  32  35
ENDBRANCH   1  32
TORSDOF 14
ENDMDL
MODEL 2
REMARK VINA RESULT: -7.410830876      0.957      1.686
REMARK  14 active torsions:
REMARK  status: ('A' for Active; 'I' for Inactive)
REMARK    1  A    between atoms: N3_5  and  C2_6 
REMARK    2  A    between atoms: C2_6  and  C3_7 
REMARK    3  A    between atoms: C3_7  and  N4_8 
REMARK    4  A    between atoms: N4_8  and  S1_10 
REMARK    5  A    between atoms: S1_10  and  C4_13 
REMARK    6  A    between atoms: C7_16  and  C8_17 
REMARK       I    between atoms: C8_17  and  N5_19 
REMARK    7  A    between atoms: N5_19  and  C9_21 
REMARK    8  A    between atoms: C9_21  and  C10_22 
REMARK    9  A    between atoms: C10_22  and  O4_23 
REMARK   10  A    between atoms: C11_25  and  O5_26 
REMARK   11  A    between atoms: C12_30  and  O6_31 
REMARK   12  A    between atoms: C13_33  and  O7_34 
REMARK   13  A    between atoms: O7_34  and  S2_35 
REMARK   14  A    between atoms: C14_39  and  O11_40 
ROOT
HETATM    1  C4  UNL     1      17.119 -13.948 -10.737  1.00  0.00     0.079 A 
HETATM    2  C5  UNL     1      18.483 -14.033 -10.681  1.00  0.00     0.026 A 
HETATM    3  C6  UNL     1      19.253 -13.151  -9.927  1.00  0.00     0.018 A 
HETATM    4  C7  UNL     1      18.622 -12.171  -9.221  1.00  0.00     0.032 A 
HETATM    5  C15 UNL     1      17.224 -12.051  -9.253  1.00  0.00     0.018 A 
HETATM    6  C16 UNL     1      16.514 -12.947 -10.013  1.00  0.00     0.026 A 
ENDROOT
BRANCH   4   7
HETATM    7  C8  UNL     1      19.399 -11.231  -8.412  1.00  0.00     0.251 C 
HETATM    8  O3  UNL     1      19.027 -10.982  -7.212  1.00  0.00    -0.268 OA
HETATM    9  N5  UNL     1      20.547 -10.599  -8.933  1.00  0.00    -0.354 N 
ATOM     10  H5  UNL     1      20.862 -10.782  -9.885  1.00  0.00     0.162 HD
BRANCH   9  11
HETATM   11  C9  UNL     1      21.266  -9.677  -8.065  1.00  0.00     0.168 C 
BRANCH  11  12
HETATM   12  C10 UNL     1      22.280 -10.344  -7.187  1.00  0.00     0.145 C 
HETATM   13  C11 UNL     1      22.671 -11.697  -7.655  1.00  0.00     0.254 C 
HETATM   14  N6  UNL     1      23.809 -12.264  -7.021  1.00  0.00    -0.367 N 
HETATM   15  C12 UNL     1      24.804 -11.322  -6.605  1.00  0.00     0.248 C 
ATOM     16  H6  UNL     1      23.910 -13.268  -6.872  1.00  0.00     0.158 HD
HETATM   17  C13 UNL     1      24.720 -10.015  -7.366  1.00  0.00     0.225 C 
HETATM   18  C14 UNL     1      23.402  -9.377  -6.977  1.00  0.00     0.193 C 
BRANCH  12  19
HETATM   19  O4  UNL     1      21.653 -10.512  -5.927  1.00  0.00    -0.381 OA
ATOM     20  H4  UNL     1      22.339 -10.407  -5.279  1.00  0.00     0.211 HD
ENDBRANCH  12  19
BRANCH  13  21
HETATM   21  O5  UNL     1      22.851 -11.782  -9.033  1.00  0.00    -0.374 OA
ATOM     22  H5  UNL     1      22.376 -12.499  -9.436  1.00  0.00     0.212 HD
ENDBRANCH  13  21
BRANCH  15  23
HETATM   23  O6  UNL     1      26.098 -11.790  -6.628  1.00  0.00    -0.374 OA
ATOM     24  H6  UNL     1      26.557 -11.666  -7.451  1.00  0.00     0.212 HD
ENDBRANCH  15  23
BRANCH  17  25
HETATM   25  O7  UNL     1      25.785  -9.226  -6.954  1.00  0.00    -0.244 OA
BRANCH  25  26
HETATM   26  S2  UNL     1      26.721  -8.739  -8.262  1.00  0.00     0.252 S 
HETATM   27  O8  UNL     1      27.483  -9.919  -8.815  1.00  0.00    -0.572 OA
HETATM   28  O9  UNL     1      25.818  -8.263  -9.388  1.00  0.00    -0.572 OA
HETATM   29  O10 UNL     1      27.768  -7.497  -7.850  1.00  0.00    -0.572 OA
ENDBRANCH  25  26
ENDBRANCH  17  25
BRANCH  18  30
HETATM   30  O11 UNL     1      23.201  -8.174  -7.659  1.00  0.00    -0.390 OA
ATOM     31  H11 UNL     1      23.505  -8.214  -8.559  1.00  0.00     0.210 HD
ENDBRANCH  18  30
ENDBRANCH  11  12
ENDBRANCH   9  11
ENDBRANCH   4   7
BRANCH   1  32
HETATM   32  S1  UNL     1      16.172 -15.061 -11.682  1.00  0.00     0.258 S 
HETATM   33  O1  UNL     1      14.749 -14.545 -11.757  1.00  0.00    -0.201 OA
HETATM   34  O2  UNL     1      16.758 -15.134 -13.064  1.00  0.00    -0.201 OA
BRANCH  32  35
HETATM   35  N4  UNL     1      16.144 -16.574 -10.906  1.00  0.00    -0.314 N 
ATOM     36  H4  UNL     1      16.505 -17.422 -11.344  1.00  0.00     0.172 HD
BRANCH  35  37
HETATM   37  C3  UNL     1      15.577 -16.569  -9.596  1.00  0.00     0.154 C 
BRANCH  37  38
HETATM   38  C2  UNL     1      16.634 -16.926  -8.564  1.00  0.00     0.174 C 
BRANCH  38  39
HETATM   39  N3  UNL     1      16.777 -15.786  -7.692  1.00  0.00    -0.239 N 
HETATM   40  N2  UNL     1      15.697 -15.098  -7.377  1.00  0.00    -0.233 N 
HETATM   41  N1  UNL     1      15.773 -14.048  -6.582  1.00  0.00    -0.245 N 
ATOM     42  H2  UNL     1      14.792 -15.381  -7.751  1.00  0.00     0.209 HD
HETATM   43  C1  UNL     1      14.584 -13.301  -6.241  1.00  0.00     0.183 C 
HETATM   44  C19 UNL     1      16.938 -13.620  -6.053  1.00  0.00     0.294 A 
HETATM   45  C18 UNL     1      18.082 -14.319  -6.365  1.00  0.00     0.166 A 
HETATM   46  O13 UNL     1      17.017 -12.615  -5.291  1.00  0.00    -0.264 OA
HETATM   47  C17 UNL     1      17.971 -15.418  -7.203  1.00  0.00     0.295 A 
HETATM   48  N7  UNL     1      19.194 -13.918  -5.866  1.00  0.00    -0.390 N 
HETATM   49  O12 UNL     1      18.994 -16.064  -7.498  1.00  0.00    -0.264 OA
ATOM     50  H72 UNL     1      20.041 -14.437  -6.097  1.00  0.00     0.156 HD
ATOM     51  H71 UNL     1      19.276 -13.110  -5.249  1.00  0.00     0.156 HD
ENDBRANCH  38  39
ENDBRANCH  37  38
ENDBRANCH  35  37
ENDBRANCH  32  35
ENDBRANCH   1  32
TORSDOF 14
ENDMDL
MODEL 3
REMARK VINA RESULT: -7.393876751      1.574      2.481
REMARK  14 active torsions:
REMARK  status: ('A' for Active; 'I' for Inactive)
REMARK    1  A    between atoms: N3_5  and  C2_6 
REMARK    2  A    between atoms: C2_6  and  C3_7 
REMARK    3  A    between atoms: C3_7  and  N4_8 
REMARK    4  A    between atoms: N4_8  and  S1_10 
REMARK    5  A    between atoms: S1_10  and  C4_13 
REMARK    6  A    between atoms: C7_16  and  C8_17 
REMARK       I    between atoms: C8_17  and  N5_19 
REMARK    7  A    between atoms: N5_19  and  C9_21 
REMARK    8  A    between atoms: C9_21  and  C10_22 
REMARK    9  A    between atoms: C10_22  and  O4_23 
REMARK   10  A    between atoms: C11_25  and  O5_26 
REMARK   11  A    between atoms: C12_30  and  O6_31 
REMARK   12  A    between atoms: C13_33  and  O7_34 
REMARK   13  A    between atoms: O7_34  and  S2_35 
REMARK   14  A    between atoms: C14_39  and  O11_40 
ROOT
HETATM    1  C4  UNL     1      16.737 -14.041 -10.632  1.00  0.00     0.079 A 
HETATM    2  C5  UNL     1      16.254 -12.903 -10.048  1.00  0.00     0.026 A 
HETATM    3  C6  UNL     1      17.064 -12.048  -9.305  1.00  0.00     0.018 A 
HETATM    4  C7  UNL     1      18.384 -12.359  -9.158  1.00  0.00     0.032 A 
HETATM    5  C15 UNL     1      18.915 -13.518  -9.743  1.00  0.00     0.018 A 
HETATM    6  C16 UNL     1      18.072 -14.326 -10.465  1.00  0.00     0.026 A 
ENDROOT
BRANCH   4   7
HETATM    7  C8  UNL     1      19.266 -11.479  -8.390  1.00  0.00     0.251 C 
HETATM    8  O3  UNL     1      19.051 -11.315  -7.138  1.00  0.00    -0.268 OA
HETATM    9  N5  UNL     1      20.345 -10.814  -9.007  1.00  0.00    -0.354 N 
ATOM     10  H5  UNL     1      20.536 -10.929 -10.001  1.00  0.00     0.162 HD
BRANCH   9  11
HETATM   11  C9  UNL     1      21.177  -9.956  -8.174  1.00  0.00     0.168 C 
BRANCH  11  12
HETATM   12  C10 UNL     1      22.549  -9.727  -8.729  1.00  0.00     0.145 C 
HETATM   13  C11 UNL     1      23.098  -8.384  -8.414  1.00  0.00     0.254 C 
HETATM   14  N6  UNL     1      24.482  -8.205  -8.682  1.00  0.00    -0.367 N 
HETATM   15  C12 UNL     1      25.288  -9.376  -8.519  1.00  0.00     0.248 C 
ATOM     16  H6  UNL     1      24.873  -7.308  -8.971  1.00  0.00     0.158 HD
HETATM   17  C13 UNL     1      24.643 -10.402  -7.609  1.00  0.00     0.225 C 
HETATM   18  C14 UNL     1      23.400 -10.889  -8.326  1.00  0.00     0.193 C 
BRANCH  12  19
HETATM   19  O4  UNL     1      22.416  -9.795 -10.138  1.00  0.00    -0.381 OA
ATOM     20  H4  UNL     1      23.096 -10.388 -10.436  1.00  0.00     0.211 HD
ENDBRANCH  12  19
BRANCH  13  21
HETATM   21  O5  UNL     1      22.848  -7.969  -7.110  1.00  0.00    -0.374 OA
ATOM     22  H5  UNL     1      21.951  -8.105  -6.831  1.00  0.00     0.212 HD
ENDBRANCH  13  21
BRANCH  15  23
HETATM   23  O6  UNL     1      26.582  -9.144  -8.112  1.00  0.00    -0.374 OA
ATOM     24  H6  UNL     1      27.148  -9.907  -8.112  1.00  0.00     0.212 HD
ENDBRANCH  15  23
BRANCH  17  25
HETATM   25  O7  UNL     1      25.551 -11.439  -7.445  1.00  0.00    -0.244 OA
BRANCH  25  26
HETATM   26  S2  UNL     1      25.642 -11.917  -5.837  1.00  0.00     0.252 S 
HETATM   27  O8  UNL     1      24.407 -12.702  -5.464  1.00  0.00    -0.572 OA
HETATM   28  O9  UNL     1      26.812 -12.869  -5.652  1.00  0.00    -0.572 OA
HETATM   29  O10 UNL     1      25.845 -10.609  -4.809  1.00  0.00    -0.572 OA
ENDBRANCH  25  26
ENDBRANCH  17  25
BRANCH  18  30
HETATM   30  O11 UNL     1      22.700 -11.817  -7.551  1.00  0.00    -0.390 OA
ATOM     31  H11 UNL     1      21.847 -12.022  -7.917  1.00  0.00     0.210 HD
ENDBRANCH  18  30
ENDBRANCH  11  12
ENDBRANCH   9  11
ENDBRANCH   4   7
BRANCH   1  32
HETATM   32  S1  UNL     1      15.711 -15.098 -11.561  1.00  0.00     0.258 S 
HETATM   33  O1  UNL     1      15.039 -14.287 -12.650  1.00  0.00    -0.201 OA
HETATM   34  O2  UNL     1      16.563 -16.170 -12.179  1.00  0.00    -0.201 OA
BRANCH  32  35
HETATM   35  N4  UNL     1      14.498 -15.731 -10.551  1.00  0.00    -0.314 N 
ATOM     36  H4  UNL     1      13.506 -15.549 -10.705  1.00  0.00     0.172 HD
BRANCH  35  37
HETATM   37  C3  UNL     1      14.972 -16.537  -9.472  1.00  0.00     0.154 C 
BRANCH  37  38
HETATM   38  C2  UNL     1      14.501 -15.967  -8.144  1.00  0.00     0.174 C 
BRANCH  38  39
HETATM   39  N3  UNL     1      15.665 -15.454  -7.466  1.00  0.00    -0.239 N 
HETATM   40  N2  UNL     1      16.780 -16.158  -7.512  1.00  0.00    -0.233 N 
HETATM   41  N1  UNL     1      17.874 -15.731  -6.910  1.00  0.00    -0.245 N 
ATOM     42  H2  UNL     1      16.797 -17.042  -8.019  1.00  0.00     0.209 HD
HETATM   43  C1  UNL     1      19.090 -16.509  -6.967  1.00  0.00     0.183 C 
HETATM   44  C19 UNL     1      17.920 -14.571  -6.223  1.00  0.00     0.294 A 
HETATM   45  C18 UNL     1      16.771 -13.815  -6.159  1.00  0.00     0.166 A 
HETATM   46  O13 UNL     1      18.965 -14.157  -5.645  1.00  0.00    -0.264 OA
HETATM   47  C17 UNL     1      15.637 -14.289  -6.800  1.00  0.00     0.295 A 
HETATM   48  N7  UNL     1      16.807 -12.710  -5.507  1.00  0.00    -0.390 N 
HETATM   49  O12 UNL     1      14.587 -13.620  -6.754  1.00  0.00    -0.264 OA
ATOM     50  H72 UNL     1      15.956 -12.151  -5.460  1.00  0.00     0.156 HD
ATOM     51  H71 UNL     1      17.641 -12.362  -5.035  1.00  0.00     0.156 HD
ENDBRANCH  38  39
ENDBRANCH  37  38
ENDBRANCH  35  37
ENDBRANCH  32  35
ENDBRANCH   1  32
TORSDOF 14
ENDMDL
MODEL 4
REMARK VINA RESULT: -7.190927120      0.973      1.408
REMARK  14 active torsions:
REMARK  status: ('A' for Active; 'I' for Inactive)
REMARK    1  A    between atoms: N3_5  and  C2_6 
REMARK    2  A    between atoms: C2_6  and  C3_7 
REMARK    3  A    between atoms: C3_7  and  N4_8 
REMARK    4  A    between atoms: N4_8  and  S1_10 
REMARK    5  A    between atoms: S1_10  and  C4_13 
REMARK    6  A    between atoms: C7_16  and  C8_17 
REMARK       I    between atoms: C8_17  and  N5_19 
REMARK    7  A    between atoms: N5_19  and  C9_21 
REMARK    8  A    between atoms: C9_21  and  C10_22 
REMARK    9  A    between atoms: C10_22  and  O4_23 
REMARK   10  A    between atoms: C11_25  and  O5_26 
REMARK   11  A    between atoms: C12_30  and  O6_31 
REMARK   12  A    between atoms: C13_33  and  O7_34 
REMARK   13  A    between atoms: O7_34  and  S2_35 
REMARK   14  A    between atoms: C14_39  and  O11_40 
ROOT
HETATM    1  C4  UNL     1      16.954 -14.088 -10.680  1.00  0.00     0.079 A 
HETATM    2  C5  UNL     1      18.318 -14.088 -10.777  1.00  0.00     0.026 A 
HETATM    3  C6  UNL     1      19.113 -13.175 -10.089  1.00  0.00     0.018 A 
HETATM    4  C7  UNL     1      18.506 -12.250  -9.292  1.00  0.00     0.032 A 
HETATM    5  C15 UNL     1      17.108 -12.217  -9.168  1.00  0.00     0.018 A 
HETATM    6  C16 UNL     1      16.373 -13.141  -9.868  1.00  0.00     0.026 A 
ENDROOT
BRANCH   4   7
HETATM    7  C8  UNL     1      19.310 -11.279  -8.549  1.00  0.00     0.251 C 
HETATM    8  O3  UNL     1      18.891 -10.855  -7.415  1.00  0.00    -0.268 OA
HETATM    9  N5  UNL     1      20.536 -10.806  -9.060  1.00  0.00    -0.354 N 
ATOM     10  H5  UNL     1      20.891 -11.129  -9.960  1.00  0.00     0.162 HD
BRANCH   9  11
HETATM   11  C9  UNL     1      21.277  -9.841  -8.261  1.00  0.00     0.168 C 
BRANCH  11  12
HETATM   12  C10 UNL     1      22.244 -10.468  -7.304  1.00  0.00     0.145 C 
HETATM   13  C11 UNL     1      22.682 -11.827  -7.710  1.00  0.00     0.254 C 
HETATM   14  N6  UNL     1      23.786 -12.360  -6.990  1.00  0.00    -0.367 N 
HETATM   15  C12 UNL     1      24.739 -11.392  -6.539  1.00  0.00     0.248 C 
ATOM     16  H6  UNL     1      23.891 -13.358  -6.808  1.00  0.00     0.158 HD
HETATM   17  C13 UNL     1      24.685 -10.107  -7.340  1.00  0.00     0.225 C 
HETATM   18  C14 UNL     1      23.337  -9.479  -7.051  1.00  0.00     0.193 C 
BRANCH  12  19
HETATM   19  O4  UNL     1      21.541 -10.613  -6.081  1.00  0.00    -0.381 OA
ATOM     20  H4  UNL     1      20.821  -9.994  -6.120  1.00  0.00     0.211 HD
ENDBRANCH  12  19
BRANCH  13  21
HETATM   21  O5  UNL     1      22.948 -11.946  -9.070  1.00  0.00    -0.374 OA
ATOM     22  H5  UNL     1      23.561 -12.642  -9.280  1.00  0.00     0.212 HD
ENDBRANCH  13  21
BRANCH  15  23
HETATM   23  O6  UNL     1      26.039 -11.841  -6.470  1.00  0.00    -0.374 OA
ATOM     24  H6  UNL     1      26.597 -11.574  -7.191  1.00  0.00     0.212 HD
ENDBRANCH  15  23
BRANCH  17  25
HETATM   25  O7  UNL     1      25.712  -9.291  -6.885  1.00  0.00    -0.244 OA
BRANCH  25  26
HETATM   26  S2  UNL     1      26.689  -8.781  -8.152  1.00  0.00     0.252 S 
HETATM   27  O8  UNL     1      27.467  -9.953  -8.703  1.00  0.00    -0.572 OA
HETATM   28  O9  UNL     1      25.824  -8.282  -9.297  1.00  0.00    -0.572 OA
HETATM   29  O10 UNL     1      27.725  -7.550  -7.683  1.00  0.00    -0.572 OA
ENDBRANCH  25  26
ENDBRANCH  17  25
BRANCH  18  30
HETATM   30  O11 UNL     1      23.162  -8.298  -7.777  1.00  0.00    -0.390 OA
ATOM     31  H11 UNL     1      23.963  -7.790  -7.838  1.00  0.00     0.210 HD
ENDBRANCH  18  30
ENDBRANCH  11  12
ENDBRANCH   9  11
ENDBRANCH   4   7
BRANCH   1  32
HETATM   32  S1  UNL     1      15.976 -15.240 -11.544  1.00  0.00     0.258 S 
HETATM   33  O1  UNL     1      14.890 -14.491 -12.290  1.00  0.00    -0.201 OA
HETATM   34  O2  UNL     1      16.851 -15.971 -12.523  1.00  0.00    -0.201 OA
BRANCH  32  35
HETATM   35  N4  UNL     1      15.227 -16.286 -10.433  1.00  0.00    -0.314 N 
ATOM     36  H4  UNL     1      14.224 -16.476 -10.448  1.00  0.00     0.172 HD
BRANCH  35  37
HETATM   37  C3  UNL     1      16.105 -16.879  -9.477  1.00  0.00     0.154 C 
BRANCH  37  38
HETATM   38  C2  UNL     1      15.761 -16.397  -8.077  1.00  0.00     0.174 C 
BRANCH  38  39
HETATM   39  N3  UNL     1      16.941 -15.761  -7.546  1.00  0.00    -0.239 N 
HETATM   40  N2  UNL     1      18.122 -16.205  -7.932  1.00  0.00    -0.233 N 
HETATM   41  N1  UNL     1      19.232 -15.657  -7.477  1.00  0.00    -0.245 N 
ATOM     42  H2  UNL     1      18.177 -16.982  -8.590  1.00  0.00     0.209 HD
HETATM   43  C1  UNL     1      20.520 -16.150  -7.907  1.00  0.00     0.183 C 
HETATM   44  C19 UNL     1      19.230 -14.628  -6.605  1.00  0.00     0.294 A 
HETATM   45  C18 UNL     1      18.011 -14.143  -6.184  1.00  0.00     0.166 A 
HETATM   46  O13 UNL     1      20.290 -14.099  -6.166  1.00  0.00    -0.264 OA
HETATM   47  C17 UNL     1      16.862 -14.740  -6.678  1.00  0.00     0.295 A 
HETATM   48  N7  UNL     1      18.001 -13.165  -5.355  1.00  0.00    -0.390 N 
HETATM   49  O12 UNL     1      15.750 -14.317  -6.310  1.00  0.00    -0.264 OA
ATOM     50  H72 UNL     1      17.099 -12.806  -5.043  1.00  0.00     0.156 HD
ATOM     51  H71 UNL     1      18.847 -12.726  -4.990  1.00  0.00     0.156 HD
ENDBRANCH  38  39
ENDBRANCH  37  38
ENDBRANCH  35  37
ENDBRANCH  32  35
ENDBRANCH   1  32
TORSDOF 14
ENDMDL
MODEL 5
REMARK VINA RESULT: -7.173193298      2.619      4.594
REMARK  14 active torsions:
REMARK  status: ('A' for Active; 'I' for Inactive)
REMARK    1  A    between atoms: N3_5  and  C2_6 
REMARK    2  A    between atoms: C2_6  and  C3_7 
REMARK    3  A    between atoms: C3_7  and  N4_8 
REMARK    4  A    between atoms: N4_8  and  S1_10 
REMARK    5  A    between atoms: S1_10  and  C4_13 
REMARK    6  A    between atoms: C7_16  and  C8_17 
REMARK       I    between atoms: C8_17  and  N5_19 
REMARK    7  A    between atoms: N5_19  and  C9_21 
REMARK    8  A    between atoms: C9_21  and  C10_22 
REMARK    9  A    between atoms: C10_22  and  O4_23 
REMARK   10  A    between atoms: C11_25  and  O5_26 
REMARK   11  A    between atoms: C12_30  and  O6_31 
REMARK   12  A    between atoms: C13_33  and  O7_34 
REMARK   13  A    between atoms: O7_34  and  S2_35 
REMARK   14  A    between atoms: C14_39  and  O11_40 
ROOT
HETATM    1  C4  UNL     1      16.012 -14.097 -10.065  1.00  0.00     0.079 A 
HETATM    2  C5  UNL     1      15.529 -14.683  -8.928  1.00  0.00     0.026 A 
HETATM    3  C6  UNL     1      16.104 -14.466  -7.678  1.00  0.00     0.018 A 
HETATM    4  C7  UNL     1      17.185 -13.640  -7.590  1.00  0.00     0.032 A 
HETATM    5  C15 UNL     1      17.709 -13.021  -8.735  1.00  0.00     0.018 A 
HETATM    6  C16 UNL     1      17.103 -13.270  -9.942  1.00  0.00     0.026 A 
ENDROOT
BRANCH   4   7
HETATM    7  C8  UNL     1      17.811 -13.384  -6.292  1.00  0.00     0.251 C 
HETATM    8  O3  UNL     1      17.168 -12.717  -5.408  1.00  0.00    -0.268 OA
HETATM    9  N5  UNL     1      19.106 -13.860  -6.002  1.00  0.00    -0.354 N 
ATOM     10  H5  UNL     1      19.637 -14.393  -6.690  1.00  0.00     0.162 HD
BRANCH   9  11
HETATM   11  C9  UNL     1      19.659 -13.564  -4.688  1.00  0.00     0.168 C 
BRANCH  11  12
HETATM   12  C10 UNL     1      21.049 -13.008  -4.731  1.00  0.00     0.145 C 
HETATM   13  C11 UNL     1      21.999 -13.849  -5.503  1.00  0.00     0.254 C 
HETATM   14  N6  UNL     1      23.253 -13.249  -5.798  1.00  0.00    -0.367 N 
HETATM   15  C12 UNL     1      23.218 -11.831  -5.986  1.00  0.00     0.248 C 
ATOM     16  H6  UNL     1      24.115 -13.789  -5.871  1.00  0.00     0.158 HD
HETATM   17  C13 UNL     1      21.838 -11.328  -6.359  1.00  0.00     0.225 C 
HETATM   18  C14 UNL     1      20.952 -11.577  -5.154  1.00  0.00     0.193 C 
BRANCH  12  19
HETATM   19  O4  UNL     1      21.506 -13.002  -3.389  1.00  0.00    -0.381 OA
ATOM     20  H4  UNL     1      22.451 -13.092  -3.436  1.00  0.00     0.211 HD
ENDBRANCH  12  19
BRANCH  13  21
HETATM   21  O5  UNL     1      21.466 -14.353  -6.686  1.00  0.00    -0.374 OA
ATOM     22  H5  UNL     1      21.961 -15.078  -7.049  1.00  0.00     0.212 HD
ENDBRANCH  13  21
BRANCH  15  23
HETATM   23  O6  UNL     1      24.146 -11.335  -6.873  1.00  0.00    -0.374 OA
ATOM     24  H6  UNL     1      23.997 -10.440  -7.155  1.00  0.00     0.212 HD
ENDBRANCH  15  23
BRANCH  17  25
HETATM   25  O7  UNL     1      21.946  -9.968  -6.612  1.00  0.00    -0.244 OA
BRANCH  25  26
HETATM   26  S2  UNL     1      21.364  -9.588  -8.142  1.00  0.00     0.252 S 
HETATM   27  O8  UNL     1      20.142 -10.422  -8.448  1.00  0.00    -0.572 OA
HETATM   28  O9  UNL     1      20.897  -8.142  -8.167  1.00  0.00    -0.572 OA
HETATM   29  O10 UNL     1      22.534  -9.796  -9.323  1.00  0.00    -0.572 OA
ENDBRANCH  25  26
ENDBRANCH  17  25
BRANCH  18  30
HETATM   30  O11 UNL     1      19.635 -11.186  -5.405  1.00  0.00    -0.390 OA
ATOM     31  H11 UNL     1      19.201 -11.758  -6.027  1.00  0.00     0.210 HD
ENDBRANCH  18  30
ENDBRANCH  11  12
ENDBRANCH   9  11
ENDBRANCH   4   7
BRANCH   1  32
HETATM   32  S1  UNL     1      15.278 -14.377 -11.619  1.00  0.00     0.258 S 
HETATM   33  O1  UNL     1      14.359 -15.577 -11.513  1.00  0.00    -0.201 OA
HETATM   34  O2  UNL     1      14.481 -13.160 -11.997  1.00  0.00    -0.201 OA
BRANCH  32  35
HETATM   35  N4  UNL     1      16.490 -14.740 -12.755  1.00  0.00    -0.314 N 
ATOM     36  H4  UNL     1      16.645 -14.175 -13.591  1.00  0.00     0.172 HD
BRANCH  35  37
HETATM   37  C3  UNL     1      17.274 -15.893 -12.452  1.00  0.00     0.154 C 
BRANCH  37  38
HETATM   38  C2  UNL     1      18.653 -15.772 -13.082  1.00  0.00     0.174 C 
BRANCH  38  39
HETATM   39  N3  UNL     1      19.509 -15.138 -12.111  1.00  0.00    -0.239 N 
HETATM   40  N2  UNL     1      19.800 -13.861 -12.268  1.00  0.00    -0.233 N 
HETATM   41  N1  UNL     1      20.577 -13.234 -11.406  1.00  0.00    -0.245 N 
ATOM     42  H2  UNL     1      19.418 -13.352 -13.065  1.00  0.00     0.209 HD
HETATM   43  C1  UNL     1      20.889 -11.835 -11.586  1.00  0.00     0.183 C 
HETATM   44  C19 UNL     1      21.114 -13.847 -10.331  1.00  0.00     0.294 A 
HETATM   45  C18 UNL     1      20.827 -15.181 -10.142  1.00  0.00     0.166 A 
HETATM   46  O13 UNL     1      21.859 -13.252  -9.502  1.00  0.00    -0.264 OA
HETATM   47  C17 UNL     1      20.008 -15.813 -11.063  1.00  0.00     0.295 A 
HETATM   48  N7  UNL     1      21.334 -15.771  -9.122  1.00  0.00    -0.390 N 
HETATM   49  O12 UNL     1      19.737 -17.020 -10.911  1.00  0.00    -0.264 OA
ATOM     50  H72 UNL     1      21.122 -16.759  -8.981  1.00  0.00     0.156 HD
ATOM     51  H71 UNL     1      21.937 -15.306  -8.443  1.00  0.00     0.156 HD
ENDBRANCH  38  39
ENDBRANCH  37  38
ENDBRANCH  35  37
ENDBRANCH  32  35
ENDBRANCH   1  32
TORSDOF 14
ENDMDL
