MODEL 1
REMARK VINA RESULT: -8.155517073      0.000      0.000
REMARK  12 active torsions:
REMARK  status: ('A' for Active; 'I' for Inactive)
REMARK    1  A    between atoms: C4_4  and  O1_5 
REMARK    2  A    between atoms: O1_5  and  C5_6 
REMARK    3  A    between atoms: C7_8  and  N1_9 
REMARK    4  A    between atoms: C8_13  and  O2_14 
REMARK    5  A    between atoms: C9_16  and  C10_17 
REMARK    6  A    between atoms: C10_17  and  O3_18 
REMARK    7  A    between atoms: C11_21  and  O5_22 
REMARK    8  A    between atoms: O5_22  and  C12_23 
REMARK    9  A    between atoms: C15_27  and  O7_28 
REMARK   10  A    between atoms: C16_30  and  N2_31 
REMARK   11  A    between atoms: N2_31  and  C17_33 
REMARK   12  A    between atoms: C18_35  and  O9_36 
ROOT
HETATM    1  C1  UNL     1       7.424  48.334  25.414  1.00  0.00     0.010 C 
HETATM    2  C2  UNL     1       7.589  49.093  24.122  1.00  0.00    -0.012 C 
HETATM    3  C3  UNL     1       8.296  48.297  23.066  1.00  0.00     0.039 C 
HETATM    4  C4  UNL     1       9.778  48.194  23.247  1.00  0.00     0.154 C 
HETATM    5  C11 UNL     1      10.448  49.440  23.761  1.00  0.00     0.154 C 
HETATM    6  C19 UNL     1       9.467  50.600  23.526  1.00  0.00     0.039 C 
HETATM    7  C20 UNL     1       8.303  50.385  24.443  1.00  0.00    -0.012 C 
HETATM    8  C21 UNL     1       7.386  51.592  24.277  1.00  0.00     0.010 C 
ENDROOT
BRANCH   4   9
HETATM    9  O1  UNL     1      10.029  47.111  24.138  1.00  0.00    -0.353 OA
BRANCH   9  10
HETATM   10  C5  UNL     1      11.211  46.471  23.912  1.00  0.00     0.263 C 
HETATM   11  C6  UNL     1      11.118  44.961  24.097  1.00  0.00     0.096 C 
HETATM   12  C7  UNL     1      10.957  44.527  25.511  1.00  0.00     0.219 C 
HETATM   13  C8  UNL     1      12.030  45.174  26.352  1.00  0.00     0.179 C 
HETATM   14  C9  UNL     1      12.160  46.628  26.042  1.00  0.00     0.178 C 
HETATM   15  O4  UNL     1      12.245  46.909  24.699  1.00  0.00    -0.351 OA
BRANCH  12  16
HETATM   16  N1  UNL     1      11.119  43.073  25.523  1.00  0.00    -0.072 N 
ATOM     17  H13 UNL     1      11.938  42.763  26.045  1.00  0.00     0.274 HD
ATOM     18  H12 UNL     1      10.418  42.594  26.090  1.00  0.00     0.274 HD
ATOM     19  H11 UNL     1      11.123  42.771  24.549  1.00  0.00     0.274 HD
ENDBRANCH  12  16
BRANCH  13  20
HETATM   20  O2  UNL     1      13.204  44.464  26.126  1.00  0.00    -0.391 OA
ATOM     21  H2  UNL     1      13.444  44.610  25.219  1.00  0.00     0.210 HD
ENDBRANCH  13  20
BRANCH  14  22
HETATM   22  C10 UNL     1      13.338  47.221  26.747  1.00  0.00     0.198 C 
BRANCH  22  23
HETATM   23  O3  UNL     1      14.459  47.349  25.944  1.00  0.00    -0.398 OA
ATOM     24  H3  UNL     1      14.674  46.561  25.460  1.00  0.00     0.209 HD
ENDBRANCH  22  23
ENDBRANCH  14  22
ENDBRANCH   9  10
ENDBRANCH   4   9
BRANCH   5  25
HETATM   25  O5  UNL     1      11.662  49.709  23.349  1.00  0.00    -0.351 OA
BRANCH  25  26
HETATM   26  C12 UNL     1      12.141  50.744  22.684  1.00  0.00     0.291 C 
HETATM   27  O6  UNL     1      12.137  50.330  21.338  1.00  0.00    -0.351 OA
HETATM   28  C13 UNL     1      12.771  51.101  20.439  1.00  0.00     0.151 C 
HETATM   29  C14 UNL     1      13.820  50.385  19.605  1.00  0.00     0.042 C 
HETATM   30  C15 UNL     1      13.379  52.357  20.953  1.00  0.00     0.172 C 
HETATM   31  C16 UNL     1      14.262  52.010  22.140  1.00  0.00     0.148 C 
HETATM   32  C18 UNL     1      13.517  51.183  23.135  1.00  0.00     0.198 C 
BRANCH  30  33
HETATM   33  O7  UNL     1      14.193  52.908  19.956  1.00  0.00    -0.391 OA
ATOM     34  H7  UNL     1      13.672  53.042  19.172  1.00  0.00     0.210 HD
ENDBRANCH  30  33
BRANCH  31  35
HETATM   35  N2  UNL     1      14.640  53.323  22.677  1.00  0.00    -0.358 N 
ATOM     36  H2  UNL     1      15.301  53.915  22.174  1.00  0.00     0.162 HD
BRANCH  35  37
HETATM   37  C17 UNL     1      14.079  53.756  23.894  1.00  0.00     0.349 C 
HETATM   38  O8  UNL     1      13.203  54.671  23.935  1.00  0.00    -0.284 OA
ENDBRANCH  35  37
ENDBRANCH  31  35
BRANCH  32  39
HETATM   39  O9  UNL     1      14.209  50.136  23.677  1.00  0.00    -0.388 OA
ATOM     40  H9  UNL     1      14.041  49.333  23.197  1.00  0.00     0.210 HD
ENDBRANCH  32  39
ENDBRANCH  25  26
ENDBRANCH   5  25
TORSDOF 12
ENDMDL
MODEL 2
REMARK VINA RESULT: -8.093707451      1.174      1.475
REMARK  12 active torsions:
REMARK  status: ('A' for Active; 'I' for Inactive)
REMARK    1  A    between atoms: C4_4  and  O1_5 
REMARK    2  A    between atoms: O1_5  and  C5_6 
REMARK    3  A    between atoms: C7_8  and  N1_9 
REMARK    4  A    between atoms: C8_13  and  O2_14 
REMARK    5  A    between atoms: C9_16  and  C10_17 
REMARK    6  A    between atoms: C10_17  and  O3_18 
REMARK    7  A    between atoms: C11_21  and  O5_22 
REMARK    8  A    between atoms: O5_22  and  C12_23 
REMARK    9  A    between atoms: C15_27  and  O7_28 
REMARK   10  A    between atoms: C16_30  and  N2_31 
REMARK   11  A    between atoms: N2_31  and  C17_33 
REMARK   12  A    between atoms: C18_35  and  O9_36 
ROOT
HETATM    1  C1  UNL     1       7.529  48.329  25.571  1.00  0.00     0.010 C 
HETATM    2  C2  UNL     1       7.669  49.044  24.251  1.00  0.00    -0.012 C 
HETATM    3  C3  UNL     1       8.365  48.218  23.212  1.00  0.00     0.039 C 
HETATM    4  C4  UNL     1       9.850  48.130  23.373  1.00  0.00     0.154 C 
HETATM    5  C11 UNL     1      10.520  49.397  23.834  1.00  0.00     0.154 C 
HETATM    6  C19 UNL     1       9.528  50.542  23.575  1.00  0.00     0.039 C 
HETATM    7  C20 UNL     1       8.380  50.351  24.517  1.00  0.00    -0.012 C 
HETATM    8  C21 UNL     1       7.452  51.547  24.324  1.00  0.00     0.010 C 
ENDROOT
BRANCH   4   9
HETATM    9  O1  UNL     1      10.122  47.079  24.296  1.00  0.00    -0.353 OA
BRANCH   9  10
HETATM   10  C5  UNL     1      11.299  47.222  24.966  1.00  0.00     0.263 C 
HETATM   11  C6  UNL     1      12.406  46.321  24.431  1.00  0.00     0.096 C 
HETATM   12  C7  UNL     1      12.215  44.875  24.729  1.00  0.00     0.219 C 
HETATM   13  C8  UNL     1      11.958  44.705  26.207  1.00  0.00     0.179 C 
HETATM   14  C9  UNL     1      10.956  45.695  26.702  1.00  0.00     0.178 C 
HETATM   15  O4  UNL     1      11.209  46.989  26.315  1.00  0.00    -0.351 OA
BRANCH  12  16
HETATM   16  N1  UNL     1      13.459  44.203  24.356  1.00  0.00    -0.072 N 
ATOM     17  H13 UNL     1      13.557  44.065  23.350  1.00  0.00     0.274 HD
ATOM     18  H12 UNL     1      14.287  44.785  24.487  1.00  0.00     0.274 HD
ATOM     19  H11 UNL     1      13.492  43.332  24.887  1.00  0.00     0.274 HD
ENDBRANCH  12  16
BRANCH  13  20
HETATM   20  O2  UNL     1      13.189  44.814  26.846  1.00  0.00    -0.391 OA
ATOM     21  H2  UNL     1      13.475  45.713  26.742  1.00  0.00     0.210 HD
ENDBRANCH  13  20
BRANCH  14  22
HETATM   22  C10 UNL     1      10.840  45.637  28.192  1.00  0.00     0.198 C 
BRANCH  22  23
HETATM   23  O3  UNL     1       9.626  45.143  28.636  1.00  0.00    -0.398 OA
ATOM     24  H3  UNL     1       9.136  44.677  27.969  1.00  0.00     0.209 HD
ENDBRANCH  22  23
ENDBRANCH  14  22
ENDBRANCH   9  10
ENDBRANCH   4   9
BRANCH   5  25
HETATM   25  O5  UNL     1      11.726  49.658  23.394  1.00  0.00    -0.351 OA
BRANCH  25  26
HETATM   26  C12 UNL     1      12.197  50.694  22.723  1.00  0.00     0.291 C 
HETATM   27  O6  UNL     1      12.190  50.274  21.379  1.00  0.00    -0.351 OA
HETATM   28  C13 UNL     1      12.817  51.044  20.474  1.00  0.00     0.151 C 
HETATM   29  C14 UNL     1      13.867  50.330  19.639  1.00  0.00     0.042 C 
HETATM   30  C15 UNL     1      13.419  52.306  20.980  1.00  0.00     0.172 C 
HETATM   31  C16 UNL     1      14.308  51.969  22.166  1.00  0.00     0.148 C 
HETATM   32  C18 UNL     1      13.572  51.142  23.167  1.00  0.00     0.198 C 
BRANCH  30  33
HETATM   33  O7  UNL     1      14.226  52.858  19.978  1.00  0.00    -0.391 OA
ATOM     34  H7  UNL     1      14.988  52.302  19.857  1.00  0.00     0.210 HD
ENDBRANCH  30  33
BRANCH  31  35
HETATM   35  N2  UNL     1      14.680  53.287  22.696  1.00  0.00    -0.358 N 
ATOM     36  H2  UNL     1      15.355  53.870  22.201  1.00  0.00     0.162 HD
BRANCH  35  37
HETATM   37  C17 UNL     1      14.095  53.736  23.896  1.00  0.00     0.349 C 
HETATM   38  O8  UNL     1      13.222  54.654  23.908  1.00  0.00    -0.284 OA
ENDBRANCH  35  37
ENDBRANCH  31  35
BRANCH  32  39
HETATM   39  O9  UNL     1      14.272  50.102  23.711  1.00  0.00    -0.388 OA
ATOM     40  H9  UNL     1      14.046  49.984  24.627  1.00  0.00     0.210 HD
ENDBRANCH  32  39
ENDBRANCH  25  26
ENDBRANCH   5  25
TORSDOF 12
ENDMDL
MODEL 3
REMARK VINA RESULT: -7.909273761      1.067      1.422
REMARK  12 active torsions:
REMARK  status: ('A' for Active; 'I' for Inactive)
REMARK    1  A    between atoms: C4_4  and  O1_5 
REMARK    2  A    between atoms: O1_5  and  C5_6 
REMARK    3  A    between atoms: C7_8  and  N1_9 
REMARK    4  A    between atoms: C8_13  and  O2_14 
REMARK    5  A    between atoms: C9_16  and  C10_17 
REMARK    6  A    between atoms: C10_17  and  O3_18 
REMARK    7  A    between atoms: C11_21  and  O5_22 
REMARK    8  A    between atoms: O5_22  and  C12_23 
REMARK    9  A    between atoms: C15_27  and  O7_28 
REMARK   10  A    between atoms: C16_30  and  N2_31 
REMARK   11  A    between atoms: N2_31  and  C17_33 
REMARK   12  A    between atoms: C18_35  and  O9_36 
ROOT
HETATM    1  C1  UNL     1       7.423  48.729  25.923  1.00  0.00     0.010 C 
HETATM    2  C2  UNL     1       7.504  49.285  24.524  1.00  0.00    -0.012 C 
HETATM    3  C3  UNL     1       8.131  48.331  23.553  1.00  0.00     0.039 C 
HETATM    4  C4  UNL     1       9.621  48.231  23.647  1.00  0.00     0.154 C 
HETATM    5  C11 UNL     1      10.333  49.528  23.924  1.00  0.00     0.154 C 
HETATM    6  C19 UNL     1       9.345  50.657  23.585  1.00  0.00     0.039 C 
HETATM    7  C20 UNL     1       8.247  50.599  24.600  1.00  0.00    -0.012 C 
HETATM    8  C21 UNL     1       7.328  51.783  24.318  1.00  0.00     0.010 C 
ENDROOT
BRANCH   4   9
HETATM    9  O1  UNL     1       9.926  47.287  24.670  1.00  0.00    -0.353 OA
BRANCH   9  10
HETATM   10  C5  UNL     1      10.300  46.064  24.201  1.00  0.00     0.263 C 
HETATM   11  C6  UNL     1      10.802  45.131  25.297  1.00  0.00     0.096 C 
HETATM   12  C7  UNL     1      12.126  45.508  25.862  1.00  0.00     0.219 C 
HETATM   13  C8  UNL     1      13.109  45.698  24.732  1.00  0.00     0.179 C 
HETATM   14  C9  UNL     1      12.520  46.517  23.631  1.00  0.00     0.178 C 
HETATM   15  O4  UNL     1      11.270  46.105  23.234  1.00  0.00    -0.351 OA
BRANCH  12  16
HETATM   16  N1  UNL     1      12.549  44.397  26.714  1.00  0.00    -0.072 N 
ATOM     17  H13 UNL     1      12.986  44.700  27.585  1.00  0.00     0.274 HD
ATOM     18  H12 UNL     1      11.770  43.889  27.131  1.00  0.00     0.274 HD
ATOM     19  H11 UNL     1      13.155  43.806  26.144  1.00  0.00     0.274 HD
ENDBRANCH  12  16
BRANCH  13  20
HETATM   20  O2  UNL     1      13.496  44.428  24.316  1.00  0.00    -0.391 OA
ATOM     21  H2  UNL     1      13.137  44.302  23.445  1.00  0.00     0.210 HD
ENDBRANCH  13  20
BRANCH  14  22
HETATM   22  C10 UNL     1      13.431  46.550  22.446  1.00  0.00     0.198 C 
BRANCH  22  23
HETATM   23  O3  UNL     1      13.696  47.829  21.985  1.00  0.00    -0.398 OA
ATOM     24  H3  UNL     1      14.607  48.083  22.070  1.00  0.00     0.209 HD
ENDBRANCH  22  23
ENDBRANCH  14  22
ENDBRANCH   9  10
ENDBRANCH   4   9
BRANCH   5  25
HETATM   25  O5  UNL     1      11.517  49.713  23.395  1.00  0.00    -0.351 OA
BRANCH  25  26
HETATM   26  C12 UNL     1      12.023  50.743  22.742  1.00  0.00     0.291 C 
HETATM   27  O6  UNL     1      12.004  50.346  21.392  1.00  0.00    -0.351 OA
HETATM   28  C13 UNL     1      12.657  51.112  20.500  1.00  0.00     0.151 C 
HETATM   29  C14 UNL     1      13.684  50.377  19.654  1.00  0.00     0.042 C 
HETATM   30  C15 UNL     1      13.300  52.344  21.029  1.00  0.00     0.172 C 
HETATM   31  C16 UNL     1      14.176  51.957  22.209  1.00  0.00     0.148 C 
HETATM   32  C18 UNL     1      13.412  51.138  23.195  1.00  0.00     0.198 C 
BRANCH  30  33
HETATM   33  O7  UNL     1      14.127  52.885  20.037  1.00  0.00    -0.391 OA
ATOM     34  H7  UNL     1      14.079  52.336  19.262  1.00  0.00     0.210 HD
ENDBRANCH  30  33
BRANCH  31  35
HETATM   35  N2  UNL     1      14.591  53.252  22.762  1.00  0.00    -0.358 N 
ATOM     36  H2  UNL     1      15.317  53.801  22.301  1.00  0.00     0.162 HD
BRANCH  35  37
HETATM   37  C17 UNL     1      13.977  53.728  23.936  1.00  0.00     0.349 C 
HETATM   38  O8  UNL     1      13.221  54.746  23.927  1.00  0.00    -0.284 OA
ENDBRANCH  35  37
ENDBRANCH  31  35
BRANCH  32  39
HETATM   39  O9  UNL     1      14.076  50.066  23.721  1.00  0.00    -0.388 OA
ATOM     40  H9  UNL     1      14.182  50.160  24.661  1.00  0.00     0.210 HD
ENDBRANCH  32  39
ENDBRANCH  25  26
ENDBRANCH   5  25
TORSDOF 12
ENDMDL
MODEL 4
REMARK VINA RESULT: -7.744879928      1.174      1.226
REMARK  12 active torsions:
REMARK  status: ('A' for Active; 'I' for Inactive)
REMARK    1  A    between atoms: C4_4  and  O1_5 
REMARK    2  A    between atoms: O1_5  and  C5_6 
REMARK    3  A    between atoms: C7_8  and  N1_9 
REMARK    4  A    between atoms: C8_13  and  O2_14 
REMARK    5  A    between atoms: C9_16  and  C10_17 
REMARK    6  A    between atoms: C10_17  and  O3_18 
REMARK    7  A    between atoms: C11_21  and  O5_22 
REMARK    8  A    between atoms: O5_22  and  C12_23 
REMARK    9  A    between atoms: C15_27  and  O7_28 
REMARK   10  A    between atoms: C16_30  and  N2_31 
REMARK   11  A    between atoms: N2_31  and  C17_33 
REMARK   12  A    between atoms: C18_35  and  O9_36 
ROOT
HETATM    1  C1  UNL     1       7.598  48.663  26.011  1.00  0.00     0.010 C 
HETATM    2  C2  UNL     1       7.293  49.258  24.660  1.00  0.00    -0.012 C 
HETATM    3  C3  UNL     1       7.638  48.338  23.528  1.00  0.00     0.039 C 
HETATM    4  C4  UNL     1       9.098  48.255  23.211  1.00  0.00     0.154 C 
HETATM    5  C11 UNL     1       9.852  49.553  23.323  1.00  0.00     0.154 C 
HETATM    6  C19 UNL     1       8.804  50.678  23.298  1.00  0.00     0.039 C 
HETATM    7  C20 UNL     1       8.022  50.578  24.570  1.00  0.00    -0.012 C 
HETATM    8  C21 UNL     1       7.055  51.758  24.583  1.00  0.00     0.010 C 
ENDROOT
BRANCH   4   9
HETATM    9  O1  UNL     1       9.674  47.288  24.085  1.00  0.00    -0.353 OA
BRANCH   9  10
HETATM   10  C5  UNL     1      10.760  46.649  23.565  1.00  0.00     0.263 C 
HETATM   11  C6  UNL     1      10.761  45.151  23.842  1.00  0.00     0.096 C 
HETATM   12  C7  UNL     1      11.016  44.792  25.264  1.00  0.00     0.219 C 
HETATM   13  C8  UNL     1      12.267  45.494  25.733  1.00  0.00     0.179 C 
HETATM   14  C9  UNL     1      12.268  46.931  25.328  1.00  0.00     0.178 C 
HETATM   15  O4  UNL     1      11.963  47.139  24.004  1.00  0.00    -0.351 OA
BRANCH  12  16
HETATM   16  N1  UNL     1      11.211  43.342  25.301  1.00  0.00    -0.072 N 
ATOM     17  H13 UNL     1      10.589  42.868  25.956  1.00  0.00     0.274 HD
ATOM     18  H12 UNL     1      10.890  42.870  24.455  1.00  0.00     0.274 HD
ATOM     19  H11 UNL     1      12.200  43.185  25.498  1.00  0.00     0.274 HD
ENDBRANCH  12  16
BRANCH  13  20
HETATM   20  O2  UNL     1      13.347  44.784  25.218  1.00  0.00    -0.391 OA
ATOM     21  H2  UNL     1      13.186  44.674  24.289  1.00  0.00     0.210 HD
ENDBRANCH  13  20
BRANCH  14  22
HETATM   22  C10 UNL     1      13.583  47.572  25.640  1.00  0.00     0.198 C 
BRANCH  22  23
HETATM   23  O3  UNL     1      14.378  47.780  24.526  1.00  0.00    -0.398 OA
ATOM     24  H3  UNL     1      14.100  48.513  23.990  1.00  0.00     0.209 HD
ENDBRANCH  22  23
ENDBRANCH  14  22
ENDBRANCH   9  10
ENDBRANCH   4   9
BRANCH   5  25
HETATM   25  O5  UNL     1      10.847  49.768  22.498  1.00  0.00    -0.351 OA
BRANCH  25  26
HETATM   26  C12 UNL     1      11.518  50.870  22.218  1.00  0.00     0.291 C 
HETATM   27  O6  UNL     1      11.256  51.104  20.855  1.00  0.00    -0.351 OA
HETATM   28  C13 UNL     1      11.976  52.048  20.227  1.00  0.00     0.151 C 
HETATM   29  C14 UNL     1      12.693  51.580  18.971  1.00  0.00     0.042 C 
HETATM   30  C15 UNL     1      12.957  52.796  21.057  1.00  0.00     0.172 C 
HETATM   31  C16 UNL     1      13.833  51.790  21.785  1.00  0.00     0.148 C 
HETATM   32  C18 UNL     1      13.002  50.777  22.499  1.00  0.00     0.198 C 
BRANCH  30  33
HETATM   33  O7  UNL     1      13.779  53.555  20.215  1.00  0.00    -0.391 OA
ATOM     34  H7  UNL     1      13.510  53.415  19.314  1.00  0.00     0.210 HD
ENDBRANCH  30  33
BRANCH  31  35
HETATM   35  N2  UNL     1      14.612  52.624  22.709  1.00  0.00    -0.358 N 
ATOM     36  H2  UNL     1      14.723  53.623  22.533  1.00  0.00     0.162 HD
BRANCH  35  37
HETATM   37  C17 UNL     1      15.206  52.030  23.839  1.00  0.00     0.349 C 
HETATM   38  O8  UNL     1      16.414  51.647  23.833  1.00  0.00    -0.284 OA
ENDBRANCH  35  37
ENDBRANCH  31  35
BRANCH  32  39
HETATM   39  O9  UNL     1      13.434  49.483  22.413  1.00  0.00    -0.388 OA
ATOM     40  H9  UNL     1      12.725  48.876  22.591  1.00  0.00     0.210 HD
ENDBRANCH  32  39
ENDBRANCH  25  26
ENDBRANCH   5  25
TORSDOF 12
ENDMDL
MODEL 5
REMARK VINA RESULT: -7.721714353      1.395      1.720
REMARK  12 active torsions:
REMARK  status: ('A' for Active; 'I' for Inactive)
REMARK    1  A    between atoms: C4_4  and  O1_5 
REMARK    2  A    between atoms: O1_5  and  C5_6 
REMARK    3  A    between atoms: C7_8  and  N1_9 
REMARK    4  A    between atoms: C8_13  and  O2_14 
REMARK    5  A    between atoms: C9_16  and  C10_17 
REMARK    6  A    between atoms: C10_17  and  O3_18 
REMARK    7  A    between atoms: C11_21  and  O5_22 
REMARK    8  A    between atoms: O5_22  and  C12_23 
REMARK    9  A    between atoms: C15_27  and  O7_28 
REMARK   10  A    between atoms: C16_30  and  N2_31 
REMARK   11  A    between atoms: N2_31  and  C17_33 
REMARK   12  A    between atoms: C18_35  and  O9_36 
ROOT
HETATM    1  C1  UNL     1       7.989  48.691  26.462  1.00  0.00     0.010 C 
HETATM    2  C2  UNL     1       7.935  48.838  24.962  1.00  0.00    -0.012 C 
HETATM    3  C3  UNL     1       8.699  47.766  24.244  1.00  0.00     0.039 C 
HETATM    4  C4  UNL     1      10.184  47.941  24.253  1.00  0.00     0.154 C 
HETATM    5  C11 UNL     1      10.661  49.363  24.114  1.00  0.00     0.154 C 
HETATM    6  C19 UNL     1       9.481  50.174  23.555  1.00  0.00     0.039 C 
HETATM    7  C20 UNL     1       8.436  50.223  24.624  1.00  0.00    -0.012 C 
HETATM    8  C21 UNL     1       7.314  51.115  24.099  1.00  0.00     0.010 C 
ENDROOT
BRANCH   4   9
HETATM    9  O1  UNL     1      10.676  47.386  25.469  1.00  0.00    -0.353 OA
BRANCH   9  10
HETATM   10  C5  UNL     1      10.221  46.128  25.727  1.00  0.00     0.263 C 
HETATM   11  C6  UNL     1      10.243  45.776  27.209  1.00  0.00     0.096 C 
HETATM   12  C7  UNL     1      11.607  45.581  27.772  1.00  0.00     0.219 C 
HETATM   13  C8  UNL     1      12.362  44.602  26.907  1.00  0.00     0.179 C 
HETATM   14  C9  UNL     1      12.205  44.923  25.457  1.00  0.00     0.178 C 
HETATM   15  O4  UNL     1      10.904  45.137  25.069  1.00  0.00    -0.351 OA
BRANCH  12  16
HETATM   16  N1  UNL     1      11.431  45.031  29.116  1.00  0.00    -0.072 N 
ATOM     17  H13 UNL     1      10.940  44.138  29.125  1.00  0.00     0.274 HD
ATOM     18  H12 UNL     1      12.301  44.703  29.535  1.00  0.00     0.274 HD
ATOM     19  H11 UNL     1      10.965  45.752  29.668  1.00  0.00     0.274 HD
ENDBRANCH  12  16
BRANCH  13  20
HETATM   20  O2  UNL     1      11.898  43.332  27.235  1.00  0.00    -0.391 OA
ATOM     21  H2  UNL     1      12.142  43.174  28.138  1.00  0.00     0.210 HD
ENDBRANCH  13  20
BRANCH  14  22
HETATM   22  C10 UNL     1      12.806  43.851  24.605  1.00  0.00     0.198 C 
BRANCH  22  23
HETATM   23  O3  UNL     1      13.938  43.274  25.154  1.00  0.00    -0.398 OA
ATOM     24  H3  UNL     1      14.527  42.901  24.510  1.00  0.00     0.209 HD
ENDBRANCH  22  23
ENDBRANCH  14  22
ENDBRANCH   9  10
ENDBRANCH   4   9
BRANCH   5  25
HETATM   25  O5  UNL     1      11.781  49.583  23.471  1.00  0.00    -0.351 OA
BRANCH  25  26
HETATM   26  C12 UNL     1      12.196  50.636  22.791  1.00  0.00     0.291 C 
HETATM   27  O6  UNL     1      12.156  50.223  21.446  1.00  0.00    -0.351 OA
HETATM   28  C13 UNL     1      12.726  51.018  20.524  1.00  0.00     0.151 C 
HETATM   29  C14 UNL     1      13.769  50.341  19.649  1.00  0.00     0.042 C 
HETATM   30  C15 UNL     1      13.306  52.295  21.017  1.00  0.00     0.172 C 
HETATM   31  C16 UNL     1      14.246  51.980  22.170  1.00  0.00     0.148 C 
HETATM   32  C18 UNL     1      13.571  51.125  23.190  1.00  0.00     0.198 C 
BRANCH  30  33
HETATM   33  O7  UNL     1      14.061  52.876  19.992  1.00  0.00    -0.391 OA
ATOM     34  H7  UNL     1      14.043  53.821  20.094  1.00  0.00     0.210 HD
ENDBRANCH  30  33
BRANCH  31  35
HETATM   35  N2  UNL     1      14.595  53.306  22.695  1.00  0.00    -0.358 N 
ATOM     36  H2  UNL     1      15.249  53.904  22.191  1.00  0.00     0.162 HD
BRANCH  35  37
HETATM   37  C17 UNL     1      14.016  53.742  23.902  1.00  0.00     0.349 C 
HETATM   38  O8  UNL     1      13.207  54.717  23.938  1.00  0.00    -0.284 OA
ENDBRANCH  35  37
ENDBRANCH  31  35
BRANCH  32  39
HETATM   39  O9  UNL     1      14.321  50.104  23.703  1.00  0.00    -0.388 OA
ATOM     40  H9  UNL     1      13.823  49.603  24.338  1.00  0.00     0.210 HD
ENDBRANCH  32  39
ENDBRANCH  25  26
ENDBRANCH   5  25
TORSDOF 12
ENDMDL
