MODEL 1
REMARK VINA RESULT: -7.650343566      0.000      0.000
REMARK  10 active torsions:
REMARK  status: ('A' for Active; 'I' for Inactive)
REMARK    1  A    between atoms: O1_1  and  C1_3 
REMARK    2  A    between atoms: C1_3  and  C2_4 
REMARK    3  A    between atoms: C5_10  and  O2_11 
REMARK    4  A    between atoms: O2_11  and  C6_12 
REMARK    5  A    between atoms: C7_13  and  O3_14 
REMARK    6  A    between atoms: C8_16  and  S1_17 
REMARK    7  A    between atoms: S1_17  and  C9_18 
REMARK    8  A    between atoms: C12_21  and  C13_22 
REMARK    9  A    between atoms: C13_22  and  O4_23 
REMARK   10  A    between atoms: C21_34  and  O6_35 
ROOT
HETATM    1  C6  UNL     1      12.565  49.681  20.976  1.00  0.00     0.184 C 
HETATM    2  C7  UNL     1      12.638  50.536  22.261  1.00  0.00     0.166 C 
HETATM    3  C8  UNL     1      11.685  49.550  22.919  1.00  0.00     0.110 C 
HETATM    4  C21 UNL     1      12.270  48.515  21.948  1.00  0.00     0.166 C 
ENDROOT
BRANCH   3   5
HETATM    5  S1  UNL     1      11.911  49.129  24.605  1.00  0.00    -0.151 SA
BRANCH   5   6
HETATM    6  C9  UNL     1      11.846  47.429  25.084  1.00  0.00     0.090 C 
HETATM    7  C10 UNL     1      13.102  46.956  25.782  1.00  0.00     0.025 C 
HETATM    8  C11 UNL     1      12.665  45.889  26.731  1.00  0.00     0.027 C 
HETATM    9  C12 UNL     1      12.417  44.540  26.276  1.00  0.00     0.149 C 
HETATM   10  C15 UNL     1      11.289  46.383  27.192  1.00  0.00     0.058 C 
HETATM   11  O5  UNL     1      11.120  44.155  26.633  1.00  0.00    -0.383 OA
HETATM   12  C14 UNL     1      10.671  45.065  27.569  1.00  0.00     0.176 C 
HETATM   13  C16 UNL     1      10.709  47.001  25.944  1.00  0.00     0.209 A 
HETATM   14  C17 UNL     1       9.597  46.319  25.355  1.00  0.00     0.264 A 
HETATM   15  N2  UNL     1       9.456  47.589  26.069  1.00  0.00     0.109 N 
HETATM   16  C18 UNL     1       9.064  46.590  23.947  1.00  0.00     0.040 C 
HETATM   17  C19 UNL     1       7.939  47.564  24.329  1.00  0.00     0.033 C 
HETATM   18  C20 UNL     1       8.743  48.477  25.270  1.00  0.00     0.274 C 
BRANCH   9  19
HETATM   19  C13 UNL     1      12.632  44.154  24.867  1.00  0.00     0.196 C 
BRANCH  19  20
HETATM   20  O4  UNL     1      13.920  43.731  24.555  1.00  0.00    -0.398 OA
ATOM     21  H4  UNL     1      14.102  43.632  23.629  1.00  0.00     0.209 HD
ENDBRANCH  19  20
ENDBRANCH   9  19
ENDBRANCH   5   6
ENDBRANCH   3   5
BRANCH   2  22
HETATM   22  O3  UNL     1      13.950  50.509  22.738  1.00  0.00    -0.392 OA
ATOM     23  H3  UNL     1      13.928  50.593  23.684  1.00  0.00     0.210 HD
ENDBRANCH   2  22
BRANCH   4  24
HETATM   24  O6  UNL     1      11.381  47.588  21.470  1.00  0.00    -0.392 OA
ATOM     25  H6  UNL     1      11.156  46.903  22.089  1.00  0.00     0.210 HD
ENDBRANCH   4  24
BRANCH   1  26
HETATM   26  O2  UNL     1      13.807  49.544  20.394  1.00  0.00    -0.351 OA
BRANCH  26  27
HETATM   27  C5  UNL     1      13.862  50.138  19.128  1.00  0.00     0.264 C 
HETATM   28  C4  UNL     1      12.453  50.436  18.690  1.00  0.00     0.088 C 
HETATM   29  C3  UNL     1      12.435  51.604  17.724  1.00  0.00     0.240 C 
HETATM   30  N1  UNL     1      13.750  51.726  17.139  1.00  0.00    -0.046 N 
HETATM   31  C2  UNL     1      14.722  52.055  18.144  1.00  0.00     0.346 C 
ATOM     32  H12 UNL     1      13.761  52.395  16.368  1.00  0.00     0.280 HD
ATOM     33  H11 UNL     1      14.011  50.889  16.617  1.00  0.00     0.280 HD
HETATM   34  O7  UNL     1      14.627  51.293  19.281  1.00  0.00    -0.327 OA
BRANCH  31  35
HETATM   35  C1  UNL     1      16.115  52.019  17.563  1.00  0.00     0.225 C 
BRANCH  35  36
HETATM   36  O1  UNL     1      17.054  52.328  18.557  1.00  0.00    -0.397 OA
ATOM     37  H1  UNL     1      17.431  51.528  18.903  1.00  0.00     0.209 HD
ENDBRANCH  35  36
ENDBRANCH  31  35
ENDBRANCH  26  27
ENDBRANCH   1  26
TORSDOF 10
ENDMDL
MODEL 2
REMARK VINA RESULT: -7.608472820      2.655      3.476
REMARK  10 active torsions:
REMARK  status: ('A' for Active; 'I' for Inactive)
REMARK    1  A    between atoms: O1_1  and  C1_3 
REMARK    2  A    between atoms: C1_3  and  C2_4 
REMARK    3  A    between atoms: C5_10  and  O2_11 
REMARK    4  A    between atoms: O2_11  and  C6_12 
REMARK    5  A    between atoms: C7_13  and  O3_14 
REMARK    6  A    between atoms: C8_16  and  S1_17 
REMARK    7  A    between atoms: S1_17  and  C9_18 
REMARK    8  A    between atoms: C12_21  and  C13_22 
REMARK    9  A    between atoms: C13_22  and  O4_23 
REMARK   10  A    between atoms: C21_34  and  O6_35 
ROOT
HETATM    1  C6  UNL     1      11.136  50.982  21.109  1.00  0.00     0.184 C 
HETATM    2  C7  UNL     1      11.042  49.585  21.761  1.00  0.00     0.166 C 
HETATM    3  C8  UNL     1      11.807  50.137  22.954  1.00  0.00     0.110 C 
HETATM    4  C21 UNL     1      11.199  51.493  22.567  1.00  0.00     0.166 C 
ENDROOT
BRANCH   3   5
HETATM    5  S1  UNL     1      11.375  49.615  24.570  1.00  0.00    -0.151 SA
BRANCH   5   6
HETATM    6  C9  UNL     1      11.568  47.913  25.007  1.00  0.00     0.090 C 
HETATM    7  C10 UNL     1      12.888  47.617  25.684  1.00  0.00     0.025 C 
HETATM    8  C11 UNL     1      12.624  46.474  26.609  1.00  0.00     0.027 C 
HETATM    9  C12 UNL     1      12.574  45.114  26.122  1.00  0.00     0.149 C 
HETATM   10  C15 UNL     1      11.195  46.747  27.091  1.00  0.00     0.058 C 
HETATM   11  O5  UNL     1      11.353  44.532  26.478  1.00  0.00    -0.383 OA
HETATM   12  C14 UNL     1      10.783  45.344  27.440  1.00  0.00     0.176 C 
HETATM   13  C16 UNL     1      10.516  47.301  25.864  1.00  0.00     0.209 A 
HETATM   14  C17 UNL     1       9.512  46.476  25.265  1.00  0.00     0.264 A 
HETATM   15  N2  UNL     1       9.191  47.693  26.012  1.00  0.00     0.109 N 
HETATM   16  C18 UNL     1       8.930  46.698  23.868  1.00  0.00     0.040 C 
HETATM   17  C19 UNL     1       7.677  47.484  24.282  1.00  0.00     0.033 C 
HETATM   18  C20 UNL     1       8.347  48.485  25.240  1.00  0.00     0.274 C 
BRANCH   9  19
HETATM   19  C13 UNL     1      12.829  44.798  24.703  1.00  0.00     0.196 C 
BRANCH  19  20
HETATM   20  O4  UNL     1      13.859  43.892  24.471  1.00  0.00    -0.398 OA
ATOM     21  H4  UNL     1      14.167  43.422  25.237  1.00  0.00     0.209 HD
ENDBRANCH  19  20
ENDBRANCH   9  19
ENDBRANCH   5   6
ENDBRANCH   3   5
BRANCH   2  22
HETATM   22  O3  UNL     1       9.697  49.293  21.995  1.00  0.00    -0.392 OA
ATOM     23  H3  UNL     1       9.647  48.609  22.652  1.00  0.00     0.210 HD
ENDBRANCH   2  22
BRANCH   4  24
HETATM   24  O6  UNL     1      12.015  52.578  22.755  1.00  0.00    -0.392 OA
ATOM     25  H6  UNL     1      11.642  53.262  23.299  1.00  0.00     0.210 HD
ENDBRANCH   4  24
BRANCH   1  26
HETATM   26  O2  UNL     1       9.947  51.336  20.508  1.00  0.00    -0.351 OA
BRANCH  26  27
HETATM   27  C5  UNL     1      10.081  52.482  19.716  1.00  0.00     0.264 C 
HETATM   28  C4  UNL     1      11.505  52.553  19.233  1.00  0.00     0.088 C 
HETATM   29  C3  UNL     1      11.582  53.310  17.922  1.00  0.00     0.240 C 
HETATM   30  N1  UNL     1      10.408  54.144  17.812  1.00  0.00    -0.046 N 
HETATM   31  C2  UNL     1       9.220  53.337  17.738  1.00  0.00     0.346 C 
ATOM     32  H12 UNL     1      10.475  54.791  17.026  1.00  0.00     0.280 HD
ATOM     33  H11 UNL     1      10.356  54.827  18.568  1.00  0.00     0.280 HD
HETATM   34  O7  UNL     1       9.172  52.332  18.670  1.00  0.00    -0.327 OA
BRANCH  31  35
HETATM   35  C1  UNL     1       7.988  54.208  17.790  1.00  0.00     0.225 C 
BRANCH  35  36
HETATM   36  O1  UNL     1       6.856  53.450  17.458  1.00  0.00    -0.397 OA
ATOM     37  H1  UNL     1       6.229  53.993  16.997  1.00  0.00     0.209 HD
ENDBRANCH  35  36
ENDBRANCH  31  35
ENDBRANCH  26  27
ENDBRANCH   1  26
TORSDOF 10
ENDMDL
MODEL 3
REMARK VINA RESULT: -7.592272626      1.657      2.262
REMARK  10 active torsions:
REMARK  status: ('A' for Active; 'I' for Inactive)
REMARK    1  A    between atoms: O1_1  and  C1_3 
REMARK    2  A    between atoms: C1_3  and  C2_4 
REMARK    3  A    between atoms: C5_10  and  O2_11 
REMARK    4  A    between atoms: O2_11  and  C6_12 
REMARK    5  A    between atoms: C7_13  and  O3_14 
REMARK    6  A    between atoms: C8_16  and  S1_17 
REMARK    7  A    between atoms: S1_17  and  C9_18 
REMARK    8  A    between atoms: C12_21  and  C13_22 
REMARK    9  A    between atoms: C13_22  and  O4_23 
REMARK   10  A    between atoms: C21_34  and  O6_35 
ROOT
HETATM    1  C6  UNL     1      12.127  51.258  21.633  1.00  0.00     0.184 C 
HETATM    2  C7  UNL     1      11.335  51.377  22.955  1.00  0.00     0.166 C 
HETATM    3  C8  UNL     1      11.594  49.898  23.193  1.00  0.00     0.110 C 
HETATM    4  C21 UNL     1      12.862  50.103  22.352  1.00  0.00     0.166 C 
ENDROOT
BRANCH   3   5
HETATM    5  S1  UNL     1      11.921  49.332  24.819  1.00  0.00    -0.151 SA
BRANCH   5   6
HETATM    6  C9  UNL     1      11.942  47.594  25.138  1.00  0.00     0.090 C 
HETATM    7  C10 UNL     1      13.211  47.126  25.814  1.00  0.00     0.025 C 
HETATM    8  C11 UNL     1      12.820  45.953  26.653  1.00  0.00     0.027 C 
HETATM    9  C12 UNL     1      12.652  44.641  26.071  1.00  0.00     0.149 C 
HETATM   10  C15 UNL     1      11.413  46.330  27.130  1.00  0.00     0.058 C 
HETATM   11  O5  UNL     1      11.372  44.157  26.367  1.00  0.00    -0.383 OA
HETATM   12  C14 UNL     1      10.862  44.952  27.373  1.00  0.00     0.176 C 
HETATM   13  C16 UNL     1      10.817  47.029  25.934  1.00  0.00     0.209 A 
HETATM   14  C17 UNL     1       9.752  46.347  25.264  1.00  0.00     0.264 A 
HETATM   15  N2  UNL     1       9.532  47.536  26.089  1.00  0.00     0.109 N 
HETATM   16  C18 UNL     1       9.225  46.718  23.877  1.00  0.00     0.040 C 
HETATM   17  C19 UNL     1       8.044  47.592  24.325  1.00  0.00     0.033 C 
HETATM   18  C20 UNL     1       8.784  48.456  25.361  1.00  0.00     0.274 C 
BRANCH   9  19
HETATM   19  C13 UNL     1      12.906  44.399  24.637  1.00  0.00     0.196 C 
BRANCH  19  20
HETATM   20  O4  UNL     1      14.044  43.650  24.353  1.00  0.00    -0.398 OA
ATOM     21  H4  UNL     1      13.936  42.985  23.684  1.00  0.00     0.209 HD
ENDBRANCH  19  20
ENDBRANCH   9  19
ENDBRANCH   5   6
ENDBRANCH   3   5
BRANCH   2  22
HETATM   22  O3  UNL     1      12.019  52.249  23.804  1.00  0.00    -0.392 OA
ATOM     23  H3  UNL     1      11.402  52.605  24.431  1.00  0.00     0.210 HD
ENDBRANCH   2  22
BRANCH   4  24
HETATM   24  O6  UNL     1      13.206  49.054  21.540  1.00  0.00    -0.392 OA
ATOM     25  H6  UNL     1      12.471  48.540  21.228  1.00  0.00     0.210 HD
ENDBRANCH   4  24
BRANCH   1  26
HETATM   26  O2  UNL     1      12.959  52.341  21.447  1.00  0.00    -0.351 OA
BRANCH  26  27
HETATM   27  C5  UNL     1      13.060  52.698  20.098  1.00  0.00     0.264 C 
HETATM   28  C4  UNL     1      14.130  51.847  19.467  1.00  0.00     0.088 C 
HETATM   29  C3  UNL     1      13.867  51.682  17.983  1.00  0.00     0.240 C 
HETATM   30  N1  UNL     1      13.018  52.767  17.551  1.00  0.00    -0.046 N 
HETATM   31  C2  UNL     1      11.734  52.691  18.194  1.00  0.00     0.346 C 
ATOM     32  H12 UNL     1      12.931  52.799  16.535  1.00  0.00     0.280 HD
ATOM     33  H11 UNL     1      13.461  53.675  17.694  1.00  0.00     0.280 HD
HETATM   34  O7  UNL     1      11.802  52.468  19.546  1.00  0.00    -0.327 OA
BRANCH  31  35
HETATM   35  C1  UNL     1      10.909  53.913  17.870  1.00  0.00     0.225 C 
BRANCH  35  36
HETATM   36  O1  UNL     1       9.549  53.573  17.834  1.00  0.00    -0.397 OA
ATOM     37  H1  UNL     1       9.026  54.303  18.142  1.00  0.00     0.209 HD
ENDBRANCH  35  36
ENDBRANCH  31  35
ENDBRANCH  26  27
ENDBRANCH   1  26
TORSDOF 10
ENDMDL
MODEL 4
REMARK VINA RESULT: -7.567648755      2.441      3.656
REMARK  10 active torsions:
REMARK  status: ('A' for Active; 'I' for Inactive)
REMARK    1  A    between atoms: O1_1  and  C1_3 
REMARK    2  A    between atoms: C1_3  and  C2_4 
REMARK    3  A    between atoms: C5_10  and  O2_11 
REMARK    4  A    between atoms: O2_11  and  C6_12 
REMARK    5  A    between atoms: C7_13  and  O3_14 
REMARK    6  A    between atoms: C8_16  and  S1_17 
REMARK    7  A    between atoms: S1_17  and  C9_18 
REMARK    8  A    between atoms: C12_21  and  C13_22 
REMARK    9  A    between atoms: C13_22  and  O4_23 
REMARK   10  A    between atoms: C21_34  and  O6_35 
ROOT
HETATM    1  C6  UNL     1      11.684  49.407  20.579  1.00  0.00     0.184 C 
HETATM    2  C7  UNL     1      10.335  48.676  20.762  1.00  0.00     0.166 C 
HETATM    3  C8  UNL     1      11.100  47.500  21.348  1.00  0.00     0.110 C 
HETATM    4  C21 UNL     1      12.143  48.542  21.776  1.00  0.00     0.166 C 
ENDROOT
BRANCH   3   5
HETATM    5  S1  UNL     1      10.412  46.609  22.692  1.00  0.00    -0.151 SA
BRANCH   5   6
HETATM    6  C9  UNL     1      11.126  46.790  24.299  1.00  0.00     0.090 C 
HETATM    7  C10 UNL     1      10.642  48.022  25.032  1.00  0.00     0.025 C 
HETATM    8  C11 UNL     1      10.680  47.674  26.484  1.00  0.00     0.027 C 
HETATM    9  C12 UNL     1      11.915  47.720  27.232  1.00  0.00     0.149 C 
HETATM   10  C15 UNL     1      10.298  46.190  26.490  1.00  0.00     0.058 C 
HETATM   11  O5  UNL     1      12.145  46.478  27.836  1.00  0.00    -0.383 OA
HETATM   12  C14 UNL     1      10.959  45.773  27.775  1.00  0.00     0.176 C 
HETATM   13  C16 UNL     1      10.970  45.655  25.250  1.00  0.00     0.209 A 
HETATM   14  C17 UNL     1      12.062  44.754  25.458  1.00  0.00     0.264 A 
HETATM   15  N2  UNL     1      10.759  44.312  24.961  1.00  0.00     0.109 N 
HETATM   16  C18 UNL     1      13.063  44.345  24.375  1.00  0.00     0.040 C 
HETATM   17  C19 UNL     1      12.391  43.031  23.950  1.00  0.00     0.033 C 
HETATM   18  C20 UNL     1      10.949  43.551  23.812  1.00  0.00     0.274 C 
BRANCH   9  19
HETATM   19  C13 UNL     1      13.178  48.157  26.603  1.00  0.00     0.196 C 
BRANCH  19  20
HETATM   20  O4  UNL     1      14.182  47.195  26.554  1.00  0.00    -0.398 OA
ATOM     21  H4  UNL     1      15.044  47.494  26.818  1.00  0.00     0.209 HD
ENDBRANCH  19  20
ENDBRANCH   9  19
ENDBRANCH   5   6
ENDBRANCH   3   5
BRANCH   2  22
HETATM   22  O3  UNL     1       9.559  49.398  21.671  1.00  0.00    -0.392 OA
ATOM     23  H3  UNL     1      10.047  50.166  21.941  1.00  0.00     0.210 HD
ENDBRANCH   2  22
BRANCH   4  24
HETATM   24  O6  UNL     1      13.448  48.128  21.712  1.00  0.00    -0.392 OA
ATOM     25  H6  UNL     1      14.087  48.825  21.800  1.00  0.00     0.210 HD
ENDBRANCH   4  24
BRANCH   1  26
HETATM   26  O2  UNL     1      11.587  50.735  20.932  1.00  0.00    -0.351 OA
BRANCH  26  27
HETATM   27  C5  UNL     1      12.841  51.306  21.176  1.00  0.00     0.264 C 
HETATM   28  C4  UNL     1      13.560  51.436  19.860  1.00  0.00     0.088 C 
HETATM   29  C3  UNL     1      14.560  52.574  19.914  1.00  0.00     0.240 C 
HETATM   30  N1  UNL     1      14.880  52.830  21.299  1.00  0.00    -0.046 N 
HETATM   31  C2  UNL     1      13.717  53.286  22.010  1.00  0.00     0.346 C 
ATOM     32  H12 UNL     1      15.661  53.480  21.394  1.00  0.00     0.280 HD
ATOM     33  H11 UNL     1      15.304  52.016  21.746  1.00  0.00     0.280 HD
HETATM   34  O7  UNL     1      12.590  52.542  21.770  1.00  0.00    -0.327 OA
BRANCH  31  35
HETATM   35  C1  UNL     1      14.011  53.393  23.487  1.00  0.00     0.225 C 
BRANCH  35  36
HETATM   36  O1  UNL     1      13.353  54.509  24.023  1.00  0.00    -0.397 OA
ATOM     37  H1  UNL     1      13.341  54.452  24.971  1.00  0.00     0.209 HD
ENDBRANCH  35  36
ENDBRANCH  31  35
ENDBRANCH  26  27
ENDBRANCH   1  26
TORSDOF 10
ENDMDL
MODEL 5
REMARK VINA RESULT: -7.543542044      1.043      1.546
REMARK  10 active torsions:
REMARK  status: ('A' for Active; 'I' for Inactive)
REMARK    1  A    between atoms: O1_1  and  C1_3 
REMARK    2  A    between atoms: C1_3  and  C2_4 
REMARK    3  A    between atoms: C5_10  and  O2_11 
REMARK    4  A    between atoms: O2_11  and  C6_12 
REMARK    5  A    between atoms: C7_13  and  O3_14 
REMARK    6  A    between atoms: C8_16  and  S1_17 
REMARK    7  A    between atoms: S1_17  and  C9_18 
REMARK    8  A    between atoms: C12_21  and  C13_22 
REMARK    9  A    between atoms: C13_22  and  O4_23 
REMARK   10  A    between atoms: C21_34  and  O6_35 
ROOT
HETATM    1  C6  UNL     1      13.461  50.568  21.898  1.00  0.00     0.184 C 
HETATM    2  C7  UNL     1      12.469  49.419  22.186  1.00  0.00     0.166 C 
HETATM    3  C8  UNL     1      13.107  49.269  23.558  1.00  0.00     0.110 C 
HETATM    4  C21 UNL     1      13.450  50.760  23.433  1.00  0.00     0.166 C 
ENDROOT
BRANCH   3   5
HETATM    5  S1  UNL     1      12.096  48.901  24.942  1.00  0.00    -0.151 SA
BRANCH   5   6
HETATM    6  C9  UNL     1      11.981  47.229  25.504  1.00  0.00     0.090 C 
HETATM    7  C10 UNL     1      13.169  46.794  26.333  1.00  0.00     0.025 C 
HETATM    8  C11 UNL     1      12.645  45.779  27.296  1.00  0.00     0.027 C 
HETATM    9  C12 UNL     1      12.430  44.408  26.894  1.00  0.00     0.149 C 
HETATM   10  C15 UNL     1      11.237  46.299  27.608  1.00  0.00     0.058 C 
HETATM   11  O5  UNL     1      11.104  44.044  27.157  1.00  0.00    -0.383 OA
HETATM   12  C14 UNL     1      10.581  45.004  28.000  1.00  0.00     0.176 C 
HETATM   13  C16 UNL     1      10.771  46.849  26.283  1.00  0.00     0.209 A 
HETATM   14  C17 UNL     1       9.710  46.137  25.637  1.00  0.00     0.264 A 
HETATM   15  N2  UNL     1       9.515  47.444  26.267  1.00  0.00     0.109 N 
HETATM   16  C18 UNL     1       9.304  46.332  24.176  1.00  0.00     0.040 C 
HETATM   17  C19 UNL     1       8.155  47.327  24.405  1.00  0.00     0.033 C 
HETATM   18  C20 UNL     1       8.879  48.289  25.362  1.00  0.00     0.274 C 
BRANCH   9  19
HETATM   19  C13 UNL     1      12.764  43.946  25.532  1.00  0.00     0.196 C 
BRANCH  19  20
HETATM   20  O4  UNL     1      13.914  43.169  25.433  1.00  0.00    -0.398 OA
ATOM     21  H4  UNL     1      14.530  43.262  26.149  1.00  0.00     0.209 HD
ENDBRANCH  19  20
ENDBRANCH   9  19
ENDBRANCH   5   6
ENDBRANCH   3   5
BRANCH   2  22
HETATM   22  O3  UNL     1      11.174  49.939  22.182  1.00  0.00    -0.392 OA
ATOM     23  H3  UNL     1      10.683  49.533  22.886  1.00  0.00     0.210 HD
ENDBRANCH   2  22
BRANCH   4  24
HETATM   24  O6  UNL     1      14.655  51.134  23.968  1.00  0.00    -0.392 OA
ATOM     25  H6  UNL     1      15.410  50.726  23.562  1.00  0.00     0.210 HD
ENDBRANCH   4  24
BRANCH   1  26
HETATM   26  O2  UNL     1      12.839  51.619  21.259  1.00  0.00    -0.351 OA
BRANCH  26  27
HETATM   27  C5  UNL     1      13.043  51.586  19.876  1.00  0.00     0.264 C 
HETATM   28  C4  UNL     1      11.834  52.186  19.210  1.00  0.00     0.088 C 
HETATM   29  C3  UNL     1      12.210  52.780  17.867  1.00  0.00     0.240 C 
HETATM   30  N1  UNL     1      13.434  52.154  17.422  1.00  0.00    -0.046 N 
HETATM   31  C2  UNL     1      14.515  52.469  18.315  1.00  0.00     0.346 C 
ATOM     32  H12 UNL     1      13.656  52.399  16.457  1.00  0.00     0.280 HD
ATOM     33  H11 UNL     1      13.322  51.147  17.302  1.00  0.00     0.280 HD
HETATM   34  O7  UNL     1      14.202  52.325  19.642  1.00  0.00    -0.327 OA
BRANCH  31  35
HETATM   35  C1  UNL     1      15.751  51.684  17.945  1.00  0.00     0.225 C 
BRANCH  35  36
HETATM   36  O1  UNL     1      16.887  52.302  18.486  1.00  0.00    -0.397 OA
ATOM     37  H1  UNL     1      17.671  51.891  18.143  1.00  0.00     0.209 HD
ENDBRANCH  35  36
ENDBRANCH  31  35
ENDBRANCH  26  27
ENDBRANCH   1  26
TORSDOF 10
ENDMDL
