MODEL 1
REMARK VINA RESULT: -6.075542017      0.000      0.000
REMARK  20 active torsions:
REMARK  status: ('A' for Active; 'I' for Inactive)
REMARK    1  A    between atoms: N1_2  and  C2_5 
REMARK    2  A    between atoms: C3_6  and  O1_7 
REMARK    3  A    between atoms: C4_9  and  C5_10 
REMARK    4  A    between atoms: C5_10  and  O2_11 
REMARK    5  A    between atoms: C6_14  and  O4_15 
REMARK    6  A    between atoms: O4_15  and  C7_16 
REMARK    7  A    between atoms: C8_17  and  N2_18 
REMARK    8  A    between atoms: C10_23  and  N3_24 
REMARK    9  A    between atoms: C11_28  and  O5_29 
REMARK   10  A    between atoms: O5_29  and  C12_30 
REMARK   11  A    between atoms: C13_31  and  N4_32 
REMARK   12  A    between atoms: C15_37  and  N5_38 
REMARK   13  A    between atoms: C16_42  and  N6_43 
REMARK   14  A    between atoms: C17_47  and  N7_48 
REMARK   15  A    between atoms: C18_52  and  O6_53 
REMARK   16  A    between atoms: O6_53  and  C19_54 
REMARK   17  A    between atoms: C19_54  and  C20_55 
REMARK   18  A    between atoms: C20_55  and  C21_56 
REMARK   19  A    between atoms: C21_56  and  C22_57 
REMARK   20  A    between atoms: C22_57  and  N8_58 
ROOT
HETATM    1  C7  UNL     1     -10.202   1.794  68.697  1.00  0.00     0.186 C 
HETATM    2  C8  UNL     1     -10.041   1.727  70.241  1.00  0.00     0.217 C 
HETATM    3  C9  UNL     1      -9.113   0.549  70.469  1.00  0.00     0.071 C 
HETATM    4  C10 UNL     1      -8.837  -0.002  69.063  1.00  0.00     0.217 C 
HETATM    5  C11 UNL     1     -10.209   0.309  68.438  1.00  0.00     0.183 C 
ENDROOT
BRANCH   1   6
HETATM    6  O4  UNL     1      -9.019   2.417  68.302  1.00  0.00    -0.349 OA
BRANCH   6   7
HETATM    7  C6  UNL     1      -8.927   2.612  66.952  1.00  0.00     0.292 C 
HETATM    8  O3  UNL     1      -9.614   3.804  66.681  1.00  0.00    -0.349 OA
HETATM    9  C4  UNL     1      -9.744   4.075  65.359  1.00  0.00     0.179 C 
HETATM   10  C3  UNL     1      -8.425   4.298  64.727  1.00  0.00     0.182 C 
HETATM   11  C2  UNL     1      -7.283   3.610  65.347  1.00  0.00     0.250 C 
HETATM   12  C18 UNL     1      -7.572   2.570  66.409  1.00  0.00     0.209 C 
BRANCH   9  13
HETATM   13  C5  UNL     1     -10.641   3.122  64.612  1.00  0.00     0.198 C 
BRANCH  13  14
HETATM   14  O2  UNL     1     -11.470   3.795  63.703  1.00  0.00    -0.398 OA
ATOM     15  H2  UNL     1     -12.389   3.637  63.884  1.00  0.00     0.209 HD
ENDBRANCH  13  14
ENDBRANCH   9  13
BRANCH  10  16
HETATM   16  O1  UNL     1      -8.475   4.101  63.325  1.00  0.00    -0.391 OA
ATOM     17  H1  UNL     1      -9.125   4.653  62.907  1.00  0.00     0.210 HD
ENDBRANCH  10  16
BRANCH  11  18
HETATM   18  N1  UNL     1      -6.489   3.031  64.245  1.00  0.00    -0.070 N 
HETATM   19  C1  UNL     1      -6.269   1.618  64.429  1.00  0.00     0.267 C 
ATOM     20  H12 UNL     1      -5.608   3.531  64.119  1.00  0.00     0.277 HD
ATOM     21  H11 UNL     1      -6.914   3.225  63.338  1.00  0.00     0.277 HD
ENDBRANCH  11  18
BRANCH  12  22
HETATM   22  O6  UNL     1      -6.620   2.771  67.408  1.00  0.00    -0.379 OA
BRANCH  22  23
HETATM   23  C19 UNL     1      -6.067   4.017  67.470  1.00  0.00     0.168 C 
BRANCH  23  24
HETATM   24  C20 UNL     1      -4.954   4.221  68.440  1.00  0.00     0.028 C 
BRANCH  24  25
HETATM   25  C21 UNL     1      -4.040   3.010  68.456  1.00  0.00     0.029 C 
BRANCH  25  26
HETATM   26  C22 UNL     1      -2.633   3.414  68.802  1.00  0.00     0.230 C 
BRANCH  26  27
HETATM   27  N8  UNL     1      -1.925   3.740  67.564  1.00  0.00    -0.079 N 
ATOM     28  H83 UNL     1      -2.217   3.156  66.781  1.00  0.00     0.274 HD
ATOM     29  H82 UNL     1      -2.206   4.641  67.179  1.00  0.00     0.274 HD
ATOM     30  H81 UNL     1      -0.922   3.685  67.740  1.00  0.00     0.274 HD
ENDBRANCH  26  27
ENDBRANCH  25  26
ENDBRANCH  24  25
ENDBRANCH  23  24
ENDBRANCH  22  23
ENDBRANCH  12  22
ENDBRANCH   6   7
ENDBRANCH   1   6
BRANCH   2  31
HETATM   31  N2  UNL     1     -11.304   1.608  70.903  1.00  0.00    -0.072 N 
ATOM     32  H23 UNL     1     -12.075   1.623  70.236  1.00  0.00     0.274 HD
ATOM     33  H22 UNL     1     -11.438   0.670  71.281  1.00  0.00     0.274 HD
ATOM     34  H21 UNL     1     -11.422   2.320  71.624  1.00  0.00     0.274 HD
ENDBRANCH   2  31
BRANCH   5  35
HETATM   35  O5  UNL     1     -11.225  -0.228  69.234  1.00  0.00    -0.372 OA
BRANCH  35  36
HETATM   36  C12 UNL     1     -12.066  -1.099  68.559  1.00  0.00     0.185 C 
HETATM   37  C13 UNL     1     -13.511  -0.699  68.772  1.00  0.00     0.216 C 
HETATM   38  C14 UNL     1     -14.491  -1.680  68.218  1.00  0.00     0.070 C 
HETATM   39  C15 UNL     1     -14.216  -3.108  68.546  1.00  0.00     0.218 C 
HETATM   40  C16 UNL     1     -12.742  -3.440  68.448  1.00  0.00     0.246 C 
HETATM   41  C17 UNL     1     -11.917  -2.473  69.230  1.00  0.00     0.246 C 
BRANCH  37  42
HETATM   42  N4  UNL     1     -13.821   0.598  68.204  1.00  0.00    -0.072 N 
ATOM     43  H43 UNL     1     -13.401   1.348  68.753  1.00  0.00     0.274 HD
ATOM     44  H42 UNL     1     -13.326   0.741  67.324  1.00  0.00     0.274 HD
ATOM     45  H41 UNL     1     -14.823   0.747  68.089  1.00  0.00     0.274 HD
ENDBRANCH  37  42
BRANCH  39  46
HETATM   46  N5  UNL     1     -14.904  -3.944  67.564  1.00  0.00    -0.073 N 
ATOM     47  H53 UNL     1     -15.788  -4.314  67.913  1.00  0.00     0.274 HD
ATOM     48  H52 UNL     1     -15.280  -3.404  66.783  1.00  0.00     0.274 HD
ATOM     49  H51 UNL     1     -14.262  -4.677  67.263  1.00  0.00     0.274 HD
ENDBRANCH  39  46
BRANCH  40  50
HETATM   50  N6  UNL     1     -12.519  -4.812  68.793  1.00  0.00    -0.071 N 
ATOM     51  H63 UNL     1     -11.550  -5.092  68.639  1.00  0.00     0.274 HD
ATOM     52  H62 UNL     1     -12.560  -4.963  69.801  1.00  0.00     0.274 HD
ATOM     53  H61 UNL     1     -13.172  -5.413  68.291  1.00  0.00     0.274 HD
ENDBRANCH  40  50
BRANCH  41  54
HETATM   54  N7  UNL     1     -12.312  -2.379  70.611  1.00  0.00    -0.070 N 
ATOM     55  H73 UNL     1     -11.972  -1.524  71.052  1.00  0.00     0.274 HD
ATOM     56  H72 UNL     1     -13.313  -2.207  70.714  1.00  0.00     0.274 HD
ATOM     57  H71 UNL     1     -12.011  -3.216  71.110  1.00  0.00     0.274 HD
ENDBRANCH  41  54
ENDBRANCH  35  36
ENDBRANCH   5  35
BRANCH   4  58
HETATM   58  N3  UNL     1      -8.477  -1.362  69.036  1.00  0.00    -0.072 N 
ATOM     59  H33 UNL     1      -9.308  -1.952  69.076  1.00  0.00     0.274 HD
ATOM     60  H32 UNL     1      -8.126  -1.619  68.113  1.00  0.00     0.274 HD
ATOM     61  H31 UNL     1      -7.810  -1.633  69.759  1.00  0.00     0.274 HD
ENDBRANCH   4  58
TORSDOF 20
ENDMDL
MODEL 2
REMARK VINA RESULT: -6.022395932      1.237      1.869
REMARK  20 active torsions:
REMARK  status: ('A' for Active; 'I' for Inactive)
REMARK    1  A    between atoms: N1_2  and  C2_5 
REMARK    2  A    between atoms: C3_6  and  O1_7 
REMARK    3  A    between atoms: C4_9  and  C5_10 
REMARK    4  A    between atoms: C5_10  and  O2_11 
REMARK    5  A    between atoms: C6_14  and  O4_15 
REMARK    6  A    between atoms: O4_15  and  C7_16 
REMARK    7  A    between atoms: C8_17  and  N2_18 
REMARK    8  A    between atoms: C10_23  and  N3_24 
REMARK    9  A    between atoms: C11_28  and  O5_29 
REMARK   10  A    between atoms: O5_29  and  C12_30 
REMARK   11  A    between atoms: C13_31  and  N4_32 
REMARK   12  A    between atoms: C15_37  and  N5_38 
REMARK   13  A    between atoms: C16_42  and  N6_43 
REMARK   14  A    between atoms: C17_47  and  N7_48 
REMARK   15  A    between atoms: C18_52  and  O6_53 
REMARK   16  A    between atoms: O6_53  and  C19_54 
REMARK   17  A    between atoms: C19_54  and  C20_55 
REMARK   18  A    between atoms: C20_55  and  C21_56 
REMARK   19  A    between atoms: C21_56  and  C22_57 
REMARK   20  A    between atoms: C22_57  and  N8_58 
ROOT
HETATM    1  C7  UNL     1     -10.177   1.760  68.698  1.00  0.00     0.186 C 
HETATM    2  C8  UNL     1     -10.023   1.738  70.244  1.00  0.00     0.217 C 
HETATM    3  C9  UNL     1      -9.043   0.611  70.507  1.00  0.00     0.071 C 
HETATM    4  C10 UNL     1      -8.731   0.039  69.116  1.00  0.00     0.217 C 
HETATM    5  C11 UNL     1     -10.112   0.270  68.475  1.00  0.00     0.183 C 
ENDROOT
BRANCH   1   6
HETATM    6  O4  UNL     1      -9.022   2.427  68.294  1.00  0.00    -0.349 OA
BRANCH   6   7
HETATM    7  C6  UNL     1      -8.932   2.599  66.940  1.00  0.00     0.292 C 
HETATM    8  O3  UNL     1      -9.639   3.774  66.647  1.00  0.00    -0.349 OA
HETATM    9  C4  UNL     1      -9.773   4.017  65.320  1.00  0.00     0.179 C 
HETATM   10  C3  UNL     1      -8.458   4.250  64.684  1.00  0.00     0.182 C 
HETATM   11  C2  UNL     1      -7.304   3.592  65.317  1.00  0.00     0.250 C 
HETATM   12  C18 UNL     1      -7.577   2.568  66.399  1.00  0.00     0.209 C 
BRANCH   9  13
HETATM   13  C5  UNL     1     -10.653   3.036  64.591  1.00  0.00     0.198 C 
BRANCH  13  14
HETATM   14  O2  UNL     1     -11.488   3.676  63.665  1.00  0.00    -0.398 OA
ATOM     15  H2  UNL     1     -11.775   4.526  63.980  1.00  0.00     0.209 HD
ENDBRANCH  13  14
ENDBRANCH   9  13
BRANCH  10  16
HETATM   16  O1  UNL     1      -8.503   4.026  63.286  1.00  0.00    -0.391 OA
ATOM     17  H1  UNL     1      -7.858   3.390  63.002  1.00  0.00     0.210 HD
ENDBRANCH  10  16
BRANCH  11  18
HETATM   18  N1  UNL     1      -6.500   3.006  64.226  1.00  0.00    -0.070 N 
HETATM   19  C1  UNL     1      -6.338   1.583  64.388  1.00  0.00     0.267 C 
ATOM     20  H12 UNL     1      -5.599   3.475  64.136  1.00  0.00     0.277 HD
ATOM     21  H11 UNL     1      -6.892   3.233  63.312  1.00  0.00     0.277 HD
ENDBRANCH  11  18
BRANCH  12  22
HETATM   22  O6  UNL     1      -6.628   2.804  67.394  1.00  0.00    -0.379 OA
BRANCH  22  23
HETATM   23  C19 UNL     1      -6.026   4.029  67.373  1.00  0.00     0.168 C 
BRANCH  23  24
HETATM   24  C20 UNL     1      -6.219   4.902  68.565  1.00  0.00     0.028 C 
BRANCH  24  25
HETATM   25  C21 UNL     1      -7.485   5.725  68.418  1.00  0.00     0.029 C 
BRANCH  25  26
HETATM   26  C22 UNL     1      -8.347   5.591  69.643  1.00  0.00     0.230 C 
BRANCH  26  27
HETATM   27  N8  UNL     1      -9.722   5.326  69.217  1.00  0.00    -0.079 N 
ATOM     28  H83 UNL     1     -10.412   5.684  69.878  1.00  0.00     0.274 HD
ATOM     29  H82 UNL     1      -9.997   5.885  68.410  1.00  0.00     0.274 HD
ATOM     30  H81 UNL     1      -9.822   4.324  69.052  1.00  0.00     0.274 HD
ENDBRANCH  26  27
ENDBRANCH  25  26
ENDBRANCH  24  25
ENDBRANCH  23  24
ENDBRANCH  22  23
ENDBRANCH  12  22
ENDBRANCH   6   7
ENDBRANCH   1   6
BRANCH   2  31
HETATM   31  N2  UNL     1     -11.284   1.576  70.901  1.00  0.00    -0.072 N 
ATOM     32  H23 UNL     1     -12.013   1.299  70.244  1.00  0.00     0.274 HD
ATOM     33  H22 UNL     1     -11.287   0.749  71.499  1.00  0.00     0.274 HD
ATOM     34  H21 UNL     1     -11.550   2.412  71.421  1.00  0.00     0.274 HD
ENDBRANCH   2  31
BRANCH   5  35
HETATM   35  O5  UNL     1     -11.107  -0.295  69.279  1.00  0.00    -0.372 OA
BRANCH  35  36
HETATM   36  C12 UNL     1     -11.966  -1.142  68.596  1.00  0.00     0.185 C 
HETATM   37  C13 UNL     1     -13.403  -0.725  68.826  1.00  0.00     0.216 C 
HETATM   38  C14 UNL     1     -14.402  -1.681  68.264  1.00  0.00     0.070 C 
HETATM   39  C15 UNL     1     -14.146  -3.119  68.567  1.00  0.00     0.218 C 
HETATM   40  C16 UNL     1     -12.678  -3.471  68.453  1.00  0.00     0.246 C 
HETATM   41  C17 UNL     1     -11.833  -2.529  69.245  1.00  0.00     0.246 C 
BRANCH  37  42
HETATM   42  N4  UNL     1     -13.698   0.587  68.282  1.00  0.00    -0.072 N 
ATOM     43  H43 UNL     1     -12.852   1.149  68.202  1.00  0.00     0.274 HD
ATOM     44  H42 UNL     1     -13.949   0.525  67.295  1.00  0.00     0.274 HD
ATOM     45  H41 UNL     1     -14.417   1.079  68.812  1.00  0.00     0.274 HD
ENDBRANCH  37  42
BRANCH  39  46
HETATM   46  N5  UNL     1     -14.854  -3.928  67.577  1.00  0.00    -0.073 N 
ATOM     47  H53 UNL     1     -14.517  -3.771  66.627  1.00  0.00     0.274 HD
ATOM     48  H52 UNL     1     -14.624  -4.920  67.643  1.00  0.00     0.274 HD
ATOM     49  H51 UNL     1     -15.853  -3.748  67.674  1.00  0.00     0.274 HD
ENDBRANCH  39  46
BRANCH  40  50
HETATM   50  N6  UNL     1     -12.473  -4.852  68.775  1.00  0.00    -0.071 N 
ATOM     51  H63 UNL     1     -12.375  -4.999  69.779  1.00  0.00     0.274 HD
ATOM     52  H62 UNL     1     -13.314  -5.407  68.623  1.00  0.00     0.274 HD
ATOM     53  H61 UNL     1     -11.675  -5.220  68.257  1.00  0.00     0.274 HD
ENDBRANCH  40  50
BRANCH  41  54
HETATM   54  N7  UNL     1     -12.217  -2.451  70.629  1.00  0.00    -0.070 N 
ATOM     55  H73 UNL     1     -13.179  -2.133  70.745  1.00  0.00     0.274 HD
ATOM     56  H72 UNL     1     -12.316  -3.373  71.054  1.00  0.00     0.274 HD
ATOM     57  H71 UNL     1     -11.553  -1.864  71.135  1.00  0.00     0.274 HD
ENDBRANCH  41  54
ENDBRANCH  35  36
ENDBRANCH   5  35
BRANCH   4  58
HETATM   58  N3  UNL     1      -8.307  -1.302  69.125  1.00  0.00    -0.072 N 
ATOM     59  H33 UNL     1      -8.795  -1.835  68.404  1.00  0.00     0.274 HD
ATOM     60  H32 UNL     1      -7.351  -1.376  68.777  1.00  0.00     0.274 HD
ATOM     61  H31 UNL     1      -8.394  -1.763  70.031  1.00  0.00     0.274 HD
ENDBRANCH   4  58
TORSDOF 20
ENDMDL
MODEL 3
REMARK VINA RESULT: -5.836087987      2.543      4.762
REMARK  20 active torsions:
REMARK  status: ('A' for Active; 'I' for Inactive)
REMARK    1  A    between atoms: N1_2  and  C2_5 
REMARK    2  A    between atoms: C3_6  and  O1_7 
REMARK    3  A    between atoms: C4_9  and  C5_10 
REMARK    4  A    between atoms: C5_10  and  O2_11 
REMARK    5  A    between atoms: C6_14  and  O4_15 
REMARK    6  A    between atoms: O4_15  and  C7_16 
REMARK    7  A    between atoms: C8_17  and  N2_18 
REMARK    8  A    between atoms: C10_23  and  N3_24 
REMARK    9  A    between atoms: C11_28  and  O5_29 
REMARK   10  A    between atoms: O5_29  and  C12_30 
REMARK   11  A    between atoms: C13_31  and  N4_32 
REMARK   12  A    between atoms: C15_37  and  N5_38 
REMARK   13  A    between atoms: C16_42  and  N6_43 
REMARK   14  A    between atoms: C17_47  and  N7_48 
REMARK   15  A    between atoms: C18_52  and  O6_53 
REMARK   16  A    between atoms: O6_53  and  C19_54 
REMARK   17  A    between atoms: C19_54  and  C20_55 
REMARK   18  A    between atoms: C20_55  and  C21_56 
REMARK   19  A    between atoms: C21_56  and  C22_57 
REMARK   20  A    between atoms: C22_57  and  N8_58 
ROOT
HETATM    1  C7  UNL     1      -8.668   0.837  68.464  1.00  0.00     0.186 C 
HETATM    2  C8  UNL     1      -9.867  -0.145  68.570  1.00  0.00     0.217 C 
HETATM    3  C9  UNL     1     -10.547   0.235  69.872  1.00  0.00     0.071 C 
HETATM    4  C10 UNL     1      -9.683   1.369  70.442  1.00  0.00     0.217 C 
HETATM    5  C11 UNL     1      -8.317   0.875  69.930  1.00  0.00     0.183 C 
ENDROOT
BRANCH   1   6
HETATM    6  O4  UNL     1      -9.279   2.006  68.014  1.00  0.00    -0.349 OA
BRANCH   6   7
HETATM    7  C6  UNL     1      -9.046   2.272  66.693  1.00  0.00     0.292 C 
HETATM    8  O3  UNL     1     -10.059   3.153  66.287  1.00  0.00    -0.349 OA
HETATM    9  C4  UNL     1     -10.062   3.411  64.956  1.00  0.00     0.179 C 
HETATM   10  C3  UNL     1      -8.825   4.110  64.544  1.00  0.00     0.182 C 
HETATM   11  C2  UNL     1      -7.629   3.847  65.358  1.00  0.00     0.250 C 
HETATM   12  C18 UNL     1      -7.697   2.733  66.381  1.00  0.00     0.209 C 
BRANCH   9  13
HETATM   13  C5  UNL     1     -10.429   2.232  64.093  1.00  0.00     0.198 C 
BRANCH  13  14
HETATM   14  O2  UNL     1     -11.736   1.792  64.344  1.00  0.00    -0.398 OA
ATOM     15  H2  UNL     1     -11.803   0.846  64.297  1.00  0.00     0.209 HD
ENDBRANCH  13  14
ENDBRANCH   9  13
BRANCH  10  16
HETATM   16  O1  UNL     1      -8.576   3.962  63.158  1.00  0.00    -0.391 OA
ATOM     17  H1  UNL     1      -9.025   4.618  62.639  1.00  0.00     0.210 HD
ENDBRANCH  10  16
BRANCH  11  18
HETATM   18  N1  UNL     1      -6.515   3.629  64.414  1.00  0.00    -0.070 N 
HETATM   19  C1  UNL     1      -6.153   2.237  64.327  1.00  0.00     0.267 C 
ATOM     20  H12 UNL     1      -5.709   4.208  64.651  1.00  0.00     0.277 HD
ATOM     21  H11 UNL     1      -6.726   4.017  63.494  1.00  0.00     0.277 HD
ENDBRANCH  11  18
BRANCH  12  22
HETATM   22  O6  UNL     1      -7.052   3.220  67.518  1.00  0.00    -0.379 OA
BRANCH  22  23
HETATM   23  C19 UNL     1      -5.818   2.699  67.780  1.00  0.00     0.168 C 
BRANCH  23  24
HETATM   24  C20 UNL     1      -4.722   3.664  68.077  1.00  0.00     0.028 C 
BRANCH  24  25
HETATM   25  C21 UNL     1      -3.658   3.008  68.937  1.00  0.00     0.029 C 
BRANCH  25  26
HETATM   26  C22 UNL     1      -2.284   3.329  68.417  1.00  0.00     0.230 C 
BRANCH  26  27
HETATM   27  N8  UNL     1      -1.302   2.586  69.208  1.00  0.00    -0.079 N 
ATOM     28  H83 UNL     1      -0.343   2.771  68.914  1.00  0.00     0.274 HD
ATOM     29  H82 UNL     1      -1.226   2.934  70.163  1.00  0.00     0.274 HD
ATOM     30  H81 UNL     1      -1.539   1.595  69.170  1.00  0.00     0.274 HD
ENDBRANCH  26  27
ENDBRANCH  25  26
ENDBRANCH  24  25
ENDBRANCH  23  24
ENDBRANCH  22  23
ENDBRANCH  12  22
ENDBRANCH   6   7
ENDBRANCH   1   6
BRANCH   2  31
HETATM   31  N2  UNL     1      -9.443  -1.510  68.514  1.00  0.00    -0.072 N 
ATOM     32  H23 UNL     1     -10.230  -2.148  68.632  1.00  0.00     0.274 HD
ATOM     33  H22 UNL     1      -9.165  -1.774  67.569  1.00  0.00     0.274 HD
ATOM     34  H21 UNL     1      -8.702  -1.705  69.187  1.00  0.00     0.274 HD
ENDBRANCH   2  31
BRANCH   5  35
HETATM   35  O5  UNL     1      -8.116  -0.451  70.325  1.00  0.00    -0.372 OA
BRANCH  35  36
HETATM   36  C12 UNL     1      -6.871  -0.686  70.888  1.00  0.00     0.185 C 
HETATM   37  C13 UNL     1      -6.168  -1.808  70.152  1.00  0.00     0.216 C 
HETATM   38  C14 UNL     1      -4.892  -2.238  70.796  1.00  0.00     0.070 C 
HETATM   39  C15 UNL     1      -4.964  -2.450  72.270  1.00  0.00     0.218 C 
HETATM   40  C16 UNL     1      -5.783  -1.380  72.958  1.00  0.00     0.246 C 
HETATM   41  C17 UNL     1      -7.117  -1.219  72.308  1.00  0.00     0.246 C 
BRANCH  37  42
HETATM   42  N4  UNL     1      -5.871  -1.471  68.773  1.00  0.00    -0.072 N 
ATOM     43  H43 UNL     1      -6.479  -0.723  68.440  1.00  0.00     0.274 HD
ATOM     44  H42 UNL     1      -4.971  -0.997  68.698  1.00  0.00     0.274 HD
ATOM     45  H41 UNL     1      -5.913  -2.280  68.153  1.00  0.00     0.274 HD
ENDBRANCH  37  42
BRANCH  39  46
HETATM   46  N5  UNL     1      -3.609  -2.359  72.811  1.00  0.00    -0.073 N 
ATOM     47  H53 UNL     1      -2.960  -3.002  72.356  1.00  0.00     0.274 HD
ATOM     48  H52 UNL     1      -3.141  -1.489  72.556  1.00  0.00     0.274 HD
ATOM     49  H51 UNL     1      -3.658  -2.499  73.820  1.00  0.00     0.274 HD
ENDBRANCH  39  46
BRANCH  40  50
HETATM   50  N6  UNL     1      -5.847  -1.633  74.367  1.00  0.00    -0.071 N 
ATOM     51  H63 UNL     1      -6.778  -1.460  74.744  1.00  0.00     0.274 HD
ATOM     52  H62 UNL     1      -5.781  -2.628  74.578  1.00  0.00     0.274 HD
ATOM     53  H61 UNL     1      -5.132  -1.092  74.855  1.00  0.00     0.274 HD
ENDBRANCH  40  50
BRANCH  41  54
HETATM   54  N7  UNL     1      -7.865  -2.446  72.238  1.00  0.00    -0.070 N 
ATOM     55  H73 UNL     1      -8.316  -2.572  71.331  1.00  0.00     0.274 HD
ATOM     56  H72 UNL     1      -7.258  -3.266  72.213  1.00  0.00     0.274 HD
ATOM     57  H71 UNL     1      -8.532  -2.484  73.009  1.00  0.00     0.274 HD
ENDBRANCH  41  54
ENDBRANCH  35  36
ENDBRANCH   5  35
BRANCH   4  58
HETATM   58  N3  UNL     1      -9.767   1.513  71.839  1.00  0.00    -0.072 N 
ATOM     59  H33 UNL     1      -8.848   1.394  72.265  1.00  0.00     0.274 HD
ATOM     60  H32 UNL     1      -9.948   2.486  72.086  1.00  0.00     0.274 HD
ATOM     61  H31 UNL     1     -10.449   0.898  72.283  1.00  0.00     0.274 HD
ENDBRANCH   4  58
TORSDOF 20
ENDMDL
MODEL 4
REMARK VINA RESULT: -5.701443014      4.018      6.985
REMARK  20 active torsions:
REMARK  status: ('A' for Active; 'I' for Inactive)
REMARK    1  A    between atoms: N1_2  and  C2_5 
REMARK    2  A    between atoms: C3_6  and  O1_7 
REMARK    3  A    between atoms: C4_9  and  C5_10 
REMARK    4  A    between atoms: C5_10  and  O2_11 
REMARK    5  A    between atoms: C6_14  and  O4_15 
REMARK    6  A    between atoms: O4_15  and  C7_16 
REMARK    7  A    between atoms: C8_17  and  N2_18 
REMARK    8  A    between atoms: C10_23  and  N3_24 
REMARK    9  A    between atoms: C11_28  and  O5_29 
REMARK   10  A    between atoms: O5_29  and  C12_30 
REMARK   11  A    between atoms: C13_31  and  N4_32 
REMARK   12  A    between atoms: C15_37  and  N5_38 
REMARK   13  A    between atoms: C16_42  and  N6_43 
REMARK   14  A    between atoms: C17_47  and  N7_48 
REMARK   15  A    between atoms: C18_52  and  O6_53 
REMARK   16  A    between atoms: O6_53  and  C19_54 
REMARK   17  A    between atoms: C19_54  and  C20_55 
REMARK   18  A    between atoms: C20_55  and  C21_56 
REMARK   19  A    between atoms: C21_56  and  C22_57 
REMARK   20  A    between atoms: C22_57  and  N8_58 
ROOT
HETATM    1  C7  UNL     1      -6.064   2.444  68.634  1.00  0.00     0.186 C 
HETATM    2  C8  UNL     1      -5.384   3.729  68.088  1.00  0.00     0.217 C 
HETATM    3  C9  UNL     1      -6.275   4.858  68.571  1.00  0.00     0.071 C 
HETATM    4  C10 UNL     1      -7.416   4.154  69.320  1.00  0.00     0.217 C 
HETATM    5  C11 UNL     1      -7.494   2.886  68.449  1.00  0.00     0.183 C 
ENDROOT
BRANCH   1   6
HETATM    6  O4  UNL     1      -5.658   2.436  69.968  1.00  0.00    -0.349 OA
BRANCH   6   7
HETATM    7  C6  UNL     1      -5.695   1.197  70.545  1.00  0.00     0.292 C 
HETATM    8  O3  UNL     1      -5.483   0.276  69.509  1.00  0.00    -0.349 OA
HETATM    9  C4  UNL     1      -5.632  -1.018  69.886  1.00  0.00     0.179 C 
HETATM   10  C3  UNL     1      -4.616  -1.402  70.890  1.00  0.00     0.182 C 
HETATM   11  C2  UNL     1      -4.104  -0.320  71.745  1.00  0.00     0.250 C 
HETATM   12  C18 UNL     1      -4.808   1.020  71.691  1.00  0.00     0.209 C 
BRANCH   9  13
HETATM   13  C5  UNL     1      -7.043  -1.404  70.248  1.00  0.00     0.198 C 
BRANCH  13  14
HETATM   14  O2  UNL     1      -7.890  -1.375  69.132  1.00  0.00    -0.398 OA
ATOM     15  H2  UNL     1      -8.631  -1.960  69.238  1.00  0.00     0.209 HD
ENDBRANCH  13  14
ENDBRANCH   9  13
BRANCH  10  16
HETATM   16  O1  UNL     1      -5.020  -2.533  71.640  1.00  0.00    -0.391 OA
ATOM     17  H1  UNL     1      -5.897  -2.820  71.415  1.00  0.00     0.210 HD
ENDBRANCH  10  16
BRANCH  11  18
HETATM   18  N1  UNL     1      -4.077  -0.846  73.124  1.00  0.00    -0.070 N 
HETATM   19  C1  UNL     1      -2.748  -0.815  73.681  1.00  0.00     0.267 C 
ATOM     20  H12 UNL     1      -4.478  -1.783  73.172  1.00  0.00     0.277 HD
ATOM     21  H11 UNL     1      -4.742  -0.356  73.722  1.00  0.00     0.277 HD
ENDBRANCH  11  18
BRANCH  12  22
HETATM   22  O6  UNL     1      -3.798   1.982  71.704  1.00  0.00    -0.379 OA
BRANCH  22  23
HETATM   23  C19 UNL     1      -2.685   1.695  70.968  1.00  0.00     0.168 C 
BRANCH  23  24
HETATM   24  C20 UNL     1      -1.489   2.558  71.179  1.00  0.00     0.028 C 
BRANCH  24  25
HETATM   25  C21 UNL     1      -1.011   3.133  69.859  1.00  0.00     0.029 C 
BRANCH  25  26
HETATM   26  C22 UNL     1      -2.037   2.909  68.782  1.00  0.00     0.230 C 
BRANCH  26  27
HETATM   27  N8  UNL     1      -1.724   3.784  67.652  1.00  0.00    -0.079 N 
ATOM     28  H83 UNL     1      -1.865   4.770  67.871  1.00  0.00     0.274 HD
ATOM     29  H82 UNL     1      -0.725   3.825  67.454  1.00  0.00     0.274 HD
ATOM     30  H81 UNL     1      -2.270   3.480  66.846  1.00  0.00     0.274 HD
ENDBRANCH  26  27
ENDBRANCH  25  26
ENDBRANCH  24  25
ENDBRANCH  23  24
ENDBRANCH  22  23
ENDBRANCH  12  22
ENDBRANCH   6   7
ENDBRANCH   1   6
BRANCH   2  31
HETATM   31  N2  UNL     1      -5.224   3.684  66.667  1.00  0.00    -0.072 N 
ATOM     32  H23 UNL     1      -4.674   4.473  66.329  1.00  0.00     0.274 HD
ATOM     33  H22 UNL     1      -4.603   2.925  66.387  1.00  0.00     0.274 HD
ATOM     34  H21 UNL     1      -6.122   3.625  66.187  1.00  0.00     0.274 HD
ENDBRANCH   2  31
BRANCH   5  35
HETATM   35  O5  UNL     1      -7.628   3.244  67.104  1.00  0.00    -0.372 OA
BRANCH  35  36
HETATM   36  C12 UNL     1      -8.907   3.061  66.601  1.00  0.00     0.185 C 
HETATM   37  C13 UNL     1      -8.899   1.989  65.531  1.00  0.00     0.216 C 
HETATM   38  C14 UNL     1     -10.203   1.845  64.818  1.00  0.00     0.070 C 
HETATM   39  C15 UNL     1     -10.827   3.124  64.372  1.00  0.00     0.218 C 
HETATM   40  C16 UNL     1     -10.702   4.212  65.417  1.00  0.00     0.246 C 
HETATM   41  C17 UNL     1      -9.290   4.361  65.876  1.00  0.00     0.246 C 
BRANCH  37  42
HETATM   42  N4  UNL     1      -8.537   0.684  66.050  1.00  0.00    -0.072 N 
ATOM     43  H43 UNL     1      -7.558   0.473  65.860  1.00  0.00     0.274 HD
ATOM     44  H42 UNL     1      -8.509   0.691  67.070  1.00  0.00     0.274 HD
ATOM     45  H41 UNL     1      -9.145  -0.058  65.705  1.00  0.00     0.274 HD
ENDBRANCH  37  42
BRANCH  39  46
HETATM   46  N5  UNL     1     -12.256   2.889  64.174  1.00  0.00    -0.073 N 
ATOM     47  H53 UNL     1     -12.577   2.024  64.610  1.00  0.00     0.274 HD
ATOM     48  H52 UNL     1     -12.839   3.535  64.707  1.00  0.00     0.274 HD
ATOM     49  H51 UNL     1     -12.449   2.920  63.173  1.00  0.00     0.274 HD
ENDBRANCH  39  46
BRANCH  40  50
HETATM   50  N6  UNL     1     -11.293   5.427  64.941  1.00  0.00    -0.071 N 
ATOM     51  H63 UNL     1     -12.176   5.258  64.459  1.00  0.00     0.274 HD
ATOM     52  H62 UNL     1     -11.646   6.004  65.704  1.00  0.00     0.274 HD
ATOM     53  H61 UNL     1     -10.631   5.935  64.354  1.00  0.00     0.274 HD
ENDBRANCH  40  50
BRANCH  41  54
HETATM   54  N7  UNL     1      -8.367   4.601  64.799  1.00  0.00    -0.070 N 
ATOM     55  H73 UNL     1      -8.773   5.182  64.066  1.00  0.00     0.274 HD
ATOM     56  H72 UNL     1      -7.607   5.224  65.074  1.00  0.00     0.274 HD
ATOM     57  H71 UNL     1      -8.023   3.710  64.439  1.00  0.00     0.274 HD
ENDBRANCH  41  54
ENDBRANCH  35  36
ENDBRANCH   5  35
BRANCH   4  58
HETATM   58  N3  UNL     1      -8.611   4.896  69.381  1.00  0.00    -0.072 N 
ATOM     59  H33 UNL     1      -8.595   5.531  70.178  1.00  0.00     0.274 HD
ATOM     60  H32 UNL     1      -8.648   5.574  68.620  1.00  0.00     0.274 HD
ATOM     61  H31 UNL     1      -9.457   4.326  69.393  1.00  0.00     0.274 HD
ENDBRANCH   4  58
TORSDOF 20
ENDMDL
MODEL 5
REMARK VINA RESULT: -5.692787174      4.027      6.479
REMARK  20 active torsions:
REMARK  status: ('A' for Active; 'I' for Inactive)
REMARK    1  A    between atoms: N1_2  and  C2_5 
REMARK    2  A    between atoms: C3_6  and  O1_7 
REMARK    3  A    between atoms: C4_9  and  C5_10 
REMARK    4  A    between atoms: C5_10  and  O2_11 
REMARK    5  A    between atoms: C6_14  and  O4_15 
REMARK    6  A    between atoms: O4_15  and  C7_16 
REMARK    7  A    between atoms: C8_17  and  N2_18 
REMARK    8  A    between atoms: C10_23  and  N3_24 
REMARK    9  A    between atoms: C11_28  and  O5_29 
REMARK   10  A    between atoms: O5_29  and  C12_30 
REMARK   11  A    between atoms: C13_31  and  N4_32 
REMARK   12  A    between atoms: C15_37  and  N5_38 
REMARK   13  A    between atoms: C16_42  and  N6_43 
REMARK   14  A    between atoms: C17_47  and  N7_48 
REMARK   15  A    between atoms: C18_52  and  O6_53 
REMARK   16  A    between atoms: O6_53  and  C19_54 
REMARK   17  A    between atoms: C19_54  and  C20_55 
REMARK   18  A    between atoms: C20_55  and  C21_56 
REMARK   19  A    between atoms: C21_56  and  C22_57 
REMARK   20  A    between atoms: C22_57  and  N8_58 
ROOT
HETATM    1  C7  UNL     1      -7.128   2.327  67.975  1.00  0.00     0.186 C 
HETATM    2  C8  UNL     1      -6.077   2.940  67.009  1.00  0.00     0.217 C 
HETATM    3  C9  UNL     1      -6.235   4.438  67.187  1.00  0.00     0.071 C 
HETATM    4  C10 UNL     1      -7.378   4.587  68.201  1.00  0.00     0.217 C 
HETATM    5  C11 UNL     1      -8.206   3.361  67.772  1.00  0.00     0.183 C 
ENDROOT
BRANCH   1   6
HETATM    6  O4  UNL     1      -6.491   2.429  69.211  1.00  0.00    -0.349 OA
BRANCH   6   7
HETATM    7  C6  UNL     1      -6.454   1.254  69.908  1.00  0.00     0.292 C 
HETATM    8  O3  UNL     1      -7.256   0.350  69.196  1.00  0.00    -0.349 OA
HETATM    9  C4  UNL     1      -7.446  -0.833  69.829  1.00  0.00     0.179 C 
HETATM   10  C3  UNL     1      -6.171  -1.567  69.983  1.00  0.00     0.182 C 
HETATM   11  C2  UNL     1      -4.953  -0.746  70.060  1.00  0.00     0.250 C 
HETATM   12  C18 UNL     1      -5.116   0.753  70.209  1.00  0.00     0.209 C 
BRANCH   9  13
HETATM   13  C5  UNL     1      -8.270  -0.743  71.087  1.00  0.00     0.198 C 
BRANCH  13  14
HETATM   14  O2  UNL     1      -9.157  -1.822  71.205  1.00  0.00    -0.398 OA
ATOM     15  H2  UNL     1      -8.777  -2.536  71.703  1.00  0.00     0.209 HD
ENDBRANCH  13  14
ENDBRANCH   9  13
BRANCH  10  16
HETATM   16  O1  UNL     1      -6.240  -2.525  71.023  1.00  0.00    -0.391 OA
ATOM     17  H1  UNL     1      -7.078  -2.515  71.468  1.00  0.00     0.210 HD
ENDBRANCH  10  16
BRANCH  11  18
HETATM   18  N1  UNL     1      -4.139  -1.299  71.160  1.00  0.00    -0.070 N 
HETATM   19  C1  UNL     1      -4.104  -0.413  72.297  1.00  0.00     0.267 C 
ATOM     20  H12 UNL     1      -3.198  -1.534  70.844  1.00  0.00     0.277 HD
ATOM     21  H11 UNL     1      -4.456  -2.231  71.426  1.00  0.00     0.277 HD
ENDBRANCH  11  18
BRANCH  12  22
HETATM   22  O6  UNL     1      -4.160   1.325  69.369  1.00  0.00    -0.379 OA
BRANCH  22  23
HETATM   23  C19 UNL     1      -3.354   2.270  69.932  1.00  0.00     0.168 C 
BRANCH  23  24
HETATM   24  C20 UNL     1      -3.013   3.457  69.098  1.00  0.00     0.028 C 
BRANCH  24  25
HETATM   25  C21 UNL     1      -1.508   3.588  68.955  1.00  0.00     0.029 C 
BRANCH  25  26
HETATM   26  C22 UNL     1      -0.808   2.947  70.122  1.00  0.00     0.230 C 
BRANCH  26  27
HETATM   27  N8  UNL     1       0.617   3.275  70.047  1.00  0.00    -0.079 N 
ATOM     28  H83 UNL     1       1.213   2.478  70.269  1.00  0.00     0.274 HD
ATOM     29  H82 UNL     1       0.933   3.424  69.089  1.00  0.00     0.274 HD
ATOM     30  H81 UNL     1       0.796   4.079  70.648  1.00  0.00     0.274 HD
ENDBRANCH  26  27
ENDBRANCH  25  26
ENDBRANCH  24  25
ENDBRANCH  23  24
ENDBRANCH  22  23
ENDBRANCH  12  22
ENDBRANCH   6   7
ENDBRANCH   1   6
BRANCH   2  31
HETATM   31  N2  UNL     1      -6.267   2.492  65.663  1.00  0.00    -0.072 N 
ATOM     32  H23 UNL     1      -6.985   3.039  65.188  1.00  0.00     0.274 HD
ATOM     33  H22 UNL     1      -5.469   2.733  65.076  1.00  0.00     0.274 HD
ATOM     34  H21 UNL     1      -6.472   1.494  65.621  1.00  0.00     0.274 HD
ENDBRANCH   2  31
BRANCH   5  35
HETATM   35  O5  UNL     1      -8.453   3.414  66.397  1.00  0.00    -0.372 OA
BRANCH  35  36
HETATM   36  C12 UNL     1      -9.717   2.975  66.036  1.00  0.00     0.185 C 
HETATM   37  C13 UNL     1      -9.784   2.750  64.541  1.00  0.00     0.216 C 
HETATM   38  C14 UNL     1     -11.157   2.436  64.044  1.00  0.00     0.070 C 
HETATM   39  C15 UNL     1     -12.238   3.325  64.559  1.00  0.00     0.218 C 
HETATM   40  C16 UNL     1     -12.065   3.634  66.031  1.00  0.00     0.246 C 
HETATM   41  C17 UNL     1     -10.688   4.131  66.322  1.00  0.00     0.246 C 
BRANCH  37  42
HETATM   42  N4  UNL     1      -8.904   1.687  64.095  1.00  0.00    -0.072 N 
ATOM     43  H43 UNL     1      -9.288   1.212  63.279  1.00  0.00     0.274 HD
ATOM     44  H42 UNL     1      -8.053   2.067  63.680  1.00  0.00     0.274 HD
ATOM     45  H41 UNL     1      -8.684   1.022  64.837  1.00  0.00     0.274 HD
ENDBRANCH  37  42
BRANCH  39  46
HETATM   46  N5  UNL     1     -13.512   2.622  64.420  1.00  0.00    -0.073 N 
ATOM     47  H53 UNL     1     -13.476   1.877  63.725  1.00  0.00     0.274 HD
ATOM     48  H52 UNL     1     -13.732   2.043  65.231  1.00  0.00     0.274 HD
ATOM     49  H51 UNL     1     -14.236   3.312  64.221  1.00  0.00     0.274 HD
ENDBRANCH  39  46
BRANCH  40  50
HETATM   50  N6  UNL     1     -13.109   4.508  66.480  1.00  0.00    -0.071 N 
ATOM     51  H63 UNL     1     -13.569   4.981  65.703  1.00  0.00     0.274 HD
ATOM     52  H62 UNL     1     -13.911   3.990  66.837  1.00  0.00     0.274 HD
ATOM     53  H61 UNL     1     -12.745   5.168  67.166  1.00  0.00     0.274 HD
ENDBRANCH  40  50
BRANCH  41  54
HETATM   54  N7  UNL     1     -10.320   5.275  65.529  1.00  0.00    -0.070 N 
ATOM     55  H73 UNL     1     -10.027   6.064  66.105  1.00  0.00     0.274 HD
ATOM     56  H72 UNL     1      -9.444   5.129  65.026  1.00  0.00     0.274 HD
ATOM     57  H71 UNL     1     -11.088   5.517  64.903  1.00  0.00     0.274 HD
ENDBRANCH  41  54
ENDBRANCH  35  36
ENDBRANCH   5  35
BRANCH   4  58
HETATM   58  N3  UNL     1      -8.065   5.813  68.121  1.00  0.00    -0.072 N 
ATOM     59  H33 UNL     1      -7.634   6.418  67.422  1.00  0.00     0.274 HD
ATOM     60  H32 UNL     1      -8.982   5.681  67.695  1.00  0.00     0.274 HD
ATOM     61  H31 UNL     1      -8.152   6.303  69.012  1.00  0.00     0.274 HD
ENDBRANCH   4  58
TORSDOF 20
ENDMDL
