MODEL 1
REMARK VINA RESULT: -8.150732520      0.000      0.000
REMARK  15 active torsions:
REMARK  status: ('A' for Active; 'I' for Inactive)
REMARK    1  A    between atoms: C1_4  and  C2_5 
REMARK    2  A    between atoms: C1_4  and  N8_31 
REMARK    3  A    between atoms: C2_5  and  C3_6 
REMARK    4  A    between atoms: C3_6  and  C4_7 
REMARK    5  A    between atoms: C4_7  and  C5_8 
REMARK    6  A    between atoms: C4_7  and  S1_11 
REMARK    7  A    between atoms: S1_11  and  C6_14 
REMARK    8  A    between atoms: N4_18  and  C7_19 
REMARK    9  A    between atoms: C7_19  and  C8_20 
REMARK   10  A    between atoms: C8_20  and  C9_21 
REMARK   11  A    between atoms: C9_21  and  N5_22 
REMARK   12  A    between atoms: C9_21  and  C10_26 
REMARK   13  A    between atoms: N8_31  and  N9_33 
REMARK       I    between atoms: N9_33  and  C11_35 
REMARK   14  A    between atoms: C11_35  and  C12_37 
REMARK   15  A    between atoms: C13_40  and  N11_41 
ROOT
HETATM    1  C3  UNL     1      -6.850   3.107  65.038  1.00  0.00     0.039 C 
ENDROOT
BRANCH   1   2
HETATM    2  C2  UNL     1      -6.907   4.386  65.809  1.00  0.00     0.079 C 
BRANCH   2   3
HETATM    3  C1  UNL     1      -6.215   4.198  67.126  1.00  0.00     0.089 C 
HETATM    4  N1  UNL     1      -6.503   4.954  68.105  1.00  0.00    -0.388 N 
ATOM      5  H12 UNL     1      -7.212   5.673  67.961  1.00  0.00     0.157 HD
ATOM      6  H11 UNL     1      -6.032   4.826  69.001  1.00  0.00     0.157 HD
BRANCH   3   7
HETATM    7  N8  UNL     1      -5.236   3.207  67.324  1.00  0.00    -0.286 N 
ATOM      8  H8  UNL     1      -5.506   2.224  67.285  1.00  0.00     0.188 HD
BRANCH   7   9
HETATM    9  N9  UNL     1      -3.891   3.542  67.575  1.00  0.00    -0.262 N 
HETATM   10  C11 UNL     1      -3.252   3.126  68.753  1.00  0.00     0.304 C 
HETATM   11  O6  UNL     1      -3.922   2.442  69.580  1.00  0.00    -0.263 OA
ATOM     12  H9  UNL     1      -3.374   4.094  66.891  1.00  0.00     0.190 HD
BRANCH  10  13
HETATM   13  C12 UNL     1      -1.864   3.464  69.025  1.00  0.00     0.195 A 
HETATM   14  N10 UNL     1      -1.255   2.781  70.028  1.00  0.00    -0.171 N 
HETATM   15  C13 UNL     1       0.024   3.060  70.312  1.00  0.00     0.681 A 
ATOM     16  H10 UNL     1      -1.763   2.070  70.555  1.00  0.00     0.186 HD
HETATM   17  N12 UNL     1       0.713   3.992  69.633  1.00  0.00    -0.141 N 
HETATM   18  C14 UNL     1       0.102   4.657  68.648  1.00  0.00     0.340 A 
ATOM     19  H12 UNL     1       1.687   4.189  69.865  1.00  0.00     0.189 HD
HETATM   20  O7  UNL     1       0.714   5.535  67.990  1.00  0.00    -0.246 OA
HETATM   21  N13 UNL     1      -1.184   4.400  68.337  1.00  0.00    -0.289 N 
ATOM     22  H13 UNL     1      -1.641   4.914  67.583  1.00  0.00     0.172 HD
BRANCH  15  23
HETATM   23  N11 UNL     1       0.593   2.404  71.269  1.00  0.00    -0.234 N 
ATOM     24 2H11 UNL     1       0.166   2.378  72.195  1.00  0.00     0.174 HD
ATOM     25 1H11 UNL     1       1.470   1.923  71.067  1.00  0.00     0.174 HD
ENDBRANCH  15  23
ENDBRANCH  10  13
ENDBRANCH   7   9
ENDBRANCH   3   7
ENDBRANCH   2   3
ENDBRANCH   1   2
BRANCH   1  26
HETATM   26  C4  UNL     1      -8.056   2.322  64.950  1.00  0.00     0.217 C 
BRANCH  26  27
HETATM   27  C5  UNL     1      -9.182   2.729  64.174  1.00  0.00     0.192 C 
HETATM   28  O1  UNL     1      -9.231   2.650  62.913  1.00  0.00    -0.647 OA
HETATM   29  O2  UNL     1     -10.295   3.248  64.877  1.00  0.00    -0.647 OA
ENDBRANCH  26  27
BRANCH  26  30
HETATM   30  S1  UNL     1      -8.227   1.015  65.801  1.00  0.00     0.223 S 
HETATM   31  O3  UNL     1      -6.830   0.412  65.539  1.00  0.00    -0.219 OA
HETATM   32  O4  UNL     1      -9.411  -0.024  65.338  1.00  0.00    -0.219 OA
BRANCH  30  33
HETATM   33  C6  UNL     1      -8.294   1.381  67.510  1.00  0.00     0.232 A 
HETATM   34  N2  UNL     1      -9.153   2.103  68.219  1.00  0.00    -0.257 N 
HETATM   35  N3  UNL     1      -8.780   2.079  69.486  1.00  0.00    -0.002 NA
ATOM     36  H2  UNL     1      -9.966   2.595  67.847  1.00  0.00     0.186 HD
HETATM   37  N4  UNL     1      -7.674   1.338  69.609  1.00  0.00    -0.216 N 
HETATM   38  N7  UNL     1      -7.391   0.923  68.409  1.00  0.00    -0.260 N 
ATOM     39  H7  UNL     1      -6.594   0.329  68.176  1.00  0.00     0.190 HD
BRANCH  37  40
HETATM   40  C7  UNL     1      -7.035   1.129  70.893  1.00  0.00     0.169 C 
BRANCH  40  41
HETATM   41  C8  UNL     1      -6.564  -0.308  70.989  1.00  0.00     0.065 C 
BRANCH  41  42
HETATM   42  C9  UNL     1      -5.281  -0.542  70.263  1.00  0.00     0.273 C 
BRANCH  42  43
HETATM   43  N5  UNL     1      -4.120  -0.459  71.111  1.00  0.00    -0.067 N 
ATOM     44  H53 UNL     1      -3.268  -0.413  70.552  1.00  0.00     0.275 HD
ATOM     45  H52 UNL     1      -4.072   0.450  71.569  1.00  0.00     0.275 HD
ATOM     46  H51 UNL     1      -4.062  -1.213  71.796  1.00  0.00     0.275 HD
ENDBRANCH  42  43
BRANCH  42  47
HETATM   47  C10 UNL     1      -5.339  -1.881  69.638  1.00  0.00     0.261 C 
HETATM   48  N6  UNL     1      -4.952  -3.045  70.331  1.00  0.00    -0.060 NA
HETATM   49  O5  UNL     1      -5.755  -1.952  68.442  1.00  0.00    -0.275 OA
ENDBRANCH  42  47
ENDBRANCH  41  42
ENDBRANCH  40  41
ENDBRANCH  37  40
ENDBRANCH  30  33
ENDBRANCH  26  30
ENDBRANCH   1  26
TORSDOF 15
ENDMDL
MODEL 2
REMARK VINA RESULT: -8.025097341      1.767      2.608
REMARK  15 active torsions:
REMARK  status: ('A' for Active; 'I' for Inactive)
REMARK    1  A    between atoms: C1_4  and  C2_5 
REMARK    2  A    between atoms: C1_4  and  N8_31 
REMARK    3  A    between atoms: C2_5  and  C3_6 
REMARK    4  A    between atoms: C3_6  and  C4_7 
REMARK    5  A    between atoms: C4_7  and  C5_8 
REMARK    6  A    between atoms: C4_7  and  S1_11 
REMARK    7  A    between atoms: S1_11  and  C6_14 
REMARK    8  A    between atoms: N4_18  and  C7_19 
REMARK    9  A    between atoms: C7_19  and  C8_20 
REMARK   10  A    between atoms: C8_20  and  C9_21 
REMARK   11  A    between atoms: C9_21  and  N5_22 
REMARK   12  A    between atoms: C9_21  and  C10_26 
REMARK   13  A    between atoms: N8_31  and  N9_33 
REMARK       I    between atoms: N9_33  and  C11_35 
REMARK   14  A    between atoms: C11_35  and  C12_37 
REMARK   15  A    between atoms: C13_40  and  N11_41 
ROOT
HETATM    1  C3  UNL     1      -6.857   4.078  65.538  1.00  0.00     0.039 C 
ENDROOT
BRANCH   1   2
HETATM    2  C2  UNL     1      -7.232   4.402  66.947  1.00  0.00     0.079 C 
BRANCH   2   3
HETATM    3  C1  UNL     1      -6.004   4.354  67.807  1.00  0.00     0.089 C 
HETATM    4  N1  UNL     1      -5.825   5.235  68.705  1.00  0.00    -0.388 N 
ATOM      5  H12 UNL     1      -6.539   5.954  68.817  1.00  0.00     0.157 HD
ATOM      6  H11 UNL     1      -4.990   5.202  69.290  1.00  0.00     0.157 HD
BRANCH   3   7
HETATM    7  N8  UNL     1      -5.019   3.362  67.652  1.00  0.00    -0.286 N 
ATOM      8  H8  UNL     1      -5.298   2.422  67.369  1.00  0.00     0.188 HD
BRANCH   7   9
HETATM    9  N9  UNL     1      -3.656   3.637  67.877  1.00  0.00    -0.262 N 
HETATM   10  C11 UNL     1      -2.997   3.136  69.010  1.00  0.00     0.304 C 
HETATM   11  O6  UNL     1      -3.666   2.430  69.820  1.00  0.00    -0.263 OA
ATOM     12  H9  UNL     1      -3.141   4.209  67.208  1.00  0.00     0.190 HD
BRANCH  10  13
HETATM   13  C12 UNL     1      -1.590   3.411  69.256  1.00  0.00     0.195 A 
HETATM   14  N10 UNL     1      -0.985   2.677  70.224  1.00  0.00    -0.171 N 
HETATM   15  C13 UNL     1       0.311   2.897  70.484  1.00  0.00     0.681 A 
ATOM     16  H10 UNL     1      -1.507   1.971  70.745  1.00  0.00     0.186 HD
HETATM   17  N12 UNL     1       1.020   3.820  69.812  1.00  0.00    -0.141 N 
HETATM   18  C14 UNL     1       0.412   4.536  68.862  1.00  0.00     0.340 A 
ATOM     19  H12 UNL     1       2.006   3.972  70.025  1.00  0.00     0.189 HD
HETATM   20  O7  UNL     1       1.042   5.408  68.213  1.00  0.00    -0.246 OA
HETATM   21  N13 UNL     1      -0.891   4.339  68.576  1.00  0.00    -0.289 N 
ATOM     22  H13 UNL     1      -1.345   4.891  67.849  1.00  0.00     0.172 HD
BRANCH  15  23
HETATM   23  N11 UNL     1       0.877   2.193  71.407  1.00  0.00    -0.234 N 
ATOM     24 2H11 UNL     1       0.306   1.675  72.076  1.00  0.00     0.174 HD
ATOM     25 1H11 UNL     1       1.896   2.174  71.441  1.00  0.00     0.174 HD
ENDBRANCH  15  23
ENDBRANCH  10  13
ENDBRANCH   7   9
ENDBRANCH   3   7
ENDBRANCH   2   3
ENDBRANCH   1   2
BRANCH   1  26
HETATM   26  C4  UNL     1      -7.392   2.870  64.961  1.00  0.00     0.217 C 
BRANCH  26  27
HETATM   27  C5  UNL     1      -6.613   1.685  64.803  1.00  0.00     0.192 C 
HETATM   28  O1  UNL     1      -5.640   1.585  64.002  1.00  0.00    -0.647 OA
HETATM   29  O2  UNL     1      -6.967   0.571  65.601  1.00  0.00    -0.647 OA
ENDBRANCH  26  27
BRANCH  26  30
HETATM   30  S1  UNL     1      -8.847   2.837  64.375  1.00  0.00     0.223 S 
HETATM   31  O3  UNL     1      -8.612   1.752  63.300  1.00  0.00    -0.219 OA
HETATM   32  O4  UNL     1      -9.408   4.223  63.697  1.00  0.00    -0.219 OA
BRANCH  30  33
HETATM   33  C6  UNL     1      -9.973   2.155  65.525  1.00  0.00     0.232 A 
HETATM   34  N2  UNL     1     -11.301   2.165  65.564  1.00  0.00    -0.257 N 
HETATM   35  N3  UNL     1     -11.697   1.506  66.639  1.00  0.00    -0.002 NA
ATOM     36  H2  UNL     1     -11.912   2.610  64.879  1.00  0.00     0.186 HD
HETATM   37  N4  UNL     1     -10.626   1.061  67.305  1.00  0.00    -0.216 N 
HETATM   38  N7  UNL     1      -9.592   1.459  66.623  1.00  0.00    -0.260 N 
ATOM     39  H7  UNL     1      -8.623   1.272  66.880  1.00  0.00     0.190 HD
BRANCH  37  40
HETATM   40  C7  UNL     1     -10.754   0.296  68.530  1.00  0.00     0.169 C 
BRANCH  40  41
HETATM   41  C8  UNL     1      -9.609  -0.691  68.625  1.00  0.00     0.065 C 
BRANCH  41  42
HETATM   42  C9  UNL     1      -8.620  -0.325  69.681  1.00  0.00     0.273 C 
BRANCH  42  43
HETATM   43  N5  UNL     1      -8.421  -1.359  70.663  1.00  0.00    -0.067 N 
ATOM     44  H53 UNL     1      -7.445  -1.394  70.958  1.00  0.00     0.275 HD
ATOM     45  H52 UNL     1      -8.856  -1.104  71.549  1.00  0.00     0.275 HD
ATOM     46  H51 UNL     1      -8.738  -2.278  70.355  1.00  0.00     0.275 HD
ENDBRANCH  42  43
BRANCH  42  47
HETATM   47  C10 UNL     1      -7.332  -0.016  69.023  1.00  0.00     0.261 C 
HETATM   48  N6  UNL     1      -6.388  -1.018  68.725  1.00  0.00    -0.060 NA
HETATM   49  O5  UNL     1      -7.100   1.197  68.731  1.00  0.00    -0.275 OA
ENDBRANCH  42  47
ENDBRANCH  41  42
ENDBRANCH  40  41
ENDBRANCH  37  40
ENDBRANCH  30  33
ENDBRANCH  26  30
ENDBRANCH   1  26
TORSDOF 15
ENDMDL
MODEL 3
REMARK VINA RESULT: -7.979003356      2.388      4.052
REMARK  15 active torsions:
REMARK  status: ('A' for Active; 'I' for Inactive)
REMARK    1  A    between atoms: C1_4  and  C2_5 
REMARK    2  A    between atoms: C1_4  and  N8_31 
REMARK    3  A    between atoms: C2_5  and  C3_6 
REMARK    4  A    between atoms: C3_6  and  C4_7 
REMARK    5  A    between atoms: C4_7  and  C5_8 
REMARK    6  A    between atoms: C4_7  and  S1_11 
REMARK    7  A    between atoms: S1_11  and  C6_14 
REMARK    8  A    between atoms: N4_18  and  C7_19 
REMARK    9  A    between atoms: C7_19  and  C8_20 
REMARK   10  A    between atoms: C8_20  and  C9_21 
REMARK   11  A    between atoms: C9_21  and  N5_22 
REMARK   12  A    between atoms: C9_21  and  C10_26 
REMARK   13  A    between atoms: N8_31  and  N9_33 
REMARK       I    between atoms: N9_33  and  C11_35 
REMARK   14  A    between atoms: C11_35  and  C12_37 
REMARK   15  A    between atoms: C13_40  and  N11_41 
ROOT
HETATM    1  C3  UNL     1      -7.905   1.052  64.379  1.00  0.00     0.039 C 
ENDROOT
BRANCH   1   2
HETATM    2  C2  UNL     1      -6.564   1.276  64.998  1.00  0.00     0.079 C 
BRANCH   2   3
HETATM    3  C1  UNL     1      -6.732   1.494  66.472  1.00  0.00     0.089 C 
HETATM    4  N1  UNL     1      -7.194   0.562  67.201  1.00  0.00    -0.388 N 
ATOM      5  H12 UNL     1      -7.435  -0.321  66.751  1.00  0.00     0.157 HD
ATOM      6  H11 UNL     1      -7.308   0.710  68.203  1.00  0.00     0.157 HD
BRANCH   3   7
HETATM    7  N8  UNL     1      -6.400   2.712  67.092  1.00  0.00    -0.286 N 
ATOM      8  H8  UNL     1      -7.144   3.368  67.333  1.00  0.00     0.188 HD
BRANCH   7   9
HETATM    9  N9  UNL     1      -5.065   3.047  67.389  1.00  0.00    -0.262 N 
HETATM   10  C11 UNL     1      -4.470   2.640  68.592  1.00  0.00     0.304 C 
HETATM   11  O6  UNL     1      -5.169   1.964  69.400  1.00  0.00    -0.263 OA
ATOM     12  H9  UNL     1      -4.523   3.594  66.719  1.00  0.00     0.190 HD
BRANCH  10  13
HETATM   13  C12 UNL     1      -3.091   2.979  68.912  1.00  0.00     0.195 A 
HETATM   14  N10 UNL     1      -2.532   2.330  69.964  1.00  0.00    -0.171 N 
HETATM   15  C13 UNL     1      -1.264   2.611  70.293  1.00  0.00     0.681 A 
ATOM     16  H10 UNL     1      -3.067   1.642  70.495  1.00  0.00     0.186 HD
HETATM   17  N12 UNL     1      -0.538   3.512  69.610  1.00  0.00    -0.141 N 
HETATM   18  C14 UNL     1      -1.101   4.144  68.576  1.00  0.00     0.340 A 
ATOM     19  H12 UNL     1       0.426   3.711  69.876  1.00  0.00     0.189 HD
HETATM   20  O7  UNL     1      -0.454   4.993  67.913  1.00  0.00    -0.246 OA
HETATM   21  N13 UNL     1      -2.375   3.884  68.219  1.00  0.00    -0.289 N 
ATOM     22  H13 UNL     1      -2.794   4.372  67.428  1.00  0.00     0.172 HD
BRANCH  15  23
HETATM   23  N11 UNL     1      -0.742   1.987  71.297  1.00  0.00    -0.234 N 
ATOM     24 2H11 UNL     1      -1.331   1.427  71.913  1.00  0.00     0.174 HD
ATOM     25 1H11 UNL     1       0.264   2.075  71.448  1.00  0.00     0.174 HD
ENDBRANCH  15  23
ENDBRANCH  10  13
ENDBRANCH   7   9
ENDBRANCH   3   7
ENDBRANCH   2   3
ENDBRANCH   1   2
BRANCH   1  26
HETATM   26  C4  UNL     1      -8.892   2.094  64.520  1.00  0.00     0.217 C 
BRANCH  26  27
HETATM   27  C5  UNL     1      -8.655   3.437  64.101  1.00  0.00     0.192 C 
HETATM   28  O1  UNL     1      -8.872   3.856  62.927  1.00  0.00    -0.647 OA
HETATM   29  O2  UNL     1      -8.148   4.335  65.071  1.00  0.00    -0.647 OA
ENDBRANCH  26  27
BRANCH  26  30
HETATM   30  S1  UNL     1     -10.253   1.817  65.249  1.00  0.00     0.223 S 
HETATM   31  O3  UNL     1     -10.000   0.336  65.605  1.00  0.00    -0.219 OA
HETATM   32  O4  UNL     1     -11.621   1.979  64.355  1.00  0.00    -0.219 OA
BRANCH  30  33
HETATM   33  C6  UNL     1     -10.343   2.681  66.766  1.00  0.00     0.232 A 
HETATM   34  N2  UNL     1     -10.179   2.272  68.019  1.00  0.00    -0.257 N 
HETATM   35  N3  UNL     1     -10.343   3.305  68.825  1.00  0.00    -0.002 NA
ATOM     36  H2  UNL     1      -9.964   1.318  68.310  1.00  0.00     0.186 HD
HETATM   37  N4  UNL     1     -10.615   4.396  68.099  1.00  0.00    -0.216 N 
HETATM   38  N7  UNL     1     -10.611   4.005  66.858  1.00  0.00    -0.260 N 
ATOM     39  H7  UNL     1     -10.787   4.615  66.060  1.00  0.00     0.190 HD
BRANCH  37  40
HETATM   40  C7  UNL     1     -10.840   5.687  68.718  1.00  0.00     0.169 C 
BRANCH  40  41
HETATM   41  C8  UNL     1      -9.509   6.382  68.923  1.00  0.00     0.065 C 
BRANCH  41  42
HETATM   42  C9  UNL     1      -8.394   5.713  68.192  1.00  0.00     0.273 C 
BRANCH  42  43
HETATM   43  N5  UNL     1      -7.863   6.501  67.110  1.00  0.00    -0.067 N 
ATOM     44  H53 UNL     1      -8.051   6.056  66.212  1.00  0.00     0.275 HD
ATOM     45  H52 UNL     1      -8.403   7.358  66.990  1.00  0.00     0.275 HD
ATOM     46  H51 UNL     1      -6.870   6.710  67.208  1.00  0.00     0.275 HD
ENDBRANCH  42  43
BRANCH  42  47
HETATM   47  C10 UNL     1      -7.315   5.419  69.160  1.00  0.00     0.261 C 
HETATM   48  N6  UNL     1      -5.959   5.652  68.860  1.00  0.00    -0.060 NA
HETATM   49  O5  UNL     1      -7.653   4.942  70.287  1.00  0.00    -0.275 OA
ENDBRANCH  42  47
ENDBRANCH  41  42
ENDBRANCH  40  41
ENDBRANCH  37  40
ENDBRANCH  30  33
ENDBRANCH  26  30
ENDBRANCH   1  26
TORSDOF 15
ENDMDL
MODEL 4
REMARK VINA RESULT: -7.857659191      1.556      2.188
REMARK  15 active torsions:
REMARK  status: ('A' for Active; 'I' for Inactive)
REMARK    1  A    between atoms: C1_4  and  C2_5 
REMARK    2  A    between atoms: C1_4  and  N8_31 
REMARK    3  A    between atoms: C2_5  and  C3_6 
REMARK    4  A    between atoms: C3_6  and  C4_7 
REMARK    5  A    between atoms: C4_7  and  C5_8 
REMARK    6  A    between atoms: C4_7  and  S1_11 
REMARK    7  A    between atoms: S1_11  and  C6_14 
REMARK    8  A    between atoms: N4_18  and  C7_19 
REMARK    9  A    between atoms: C7_19  and  C8_20 
REMARK   10  A    between atoms: C8_20  and  C9_21 
REMARK   11  A    between atoms: C9_21  and  N5_22 
REMARK   12  A    between atoms: C9_21  and  C10_26 
REMARK   13  A    between atoms: N8_31  and  N9_33 
REMARK       I    between atoms: N9_33  and  C11_35 
REMARK   14  A    between atoms: C11_35  and  C12_37 
REMARK   15  A    between atoms: C13_40  and  N11_41 
ROOT
HETATM    1  C3  UNL     1      -9.147   3.647  66.552  1.00  0.00     0.039 C 
ENDROOT
BRANCH   1   2
HETATM    2  C2  UNL     1      -8.165   4.646  66.033  1.00  0.00     0.079 C 
BRANCH   2   3
HETATM    3  C1  UNL     1      -6.802   4.022  65.993  1.00  0.00     0.089 C 
HETATM    4  N1  UNL     1      -6.173   3.948  64.892  1.00  0.00    -0.388 N 
ATOM      5  H12 UNL     1      -6.622   4.327  64.058  1.00  0.00     0.157 HD
ATOM      6  H11 UNL     1      -5.246   3.524  64.864  1.00  0.00     0.157 HD
BRANCH   3   7
HETATM    7  N8  UNL     1      -6.183   3.499  67.142  1.00  0.00    -0.286 N 
ATOM      8  H8  UNL     1      -6.724   2.911  67.777  1.00  0.00     0.188 HD
BRANCH   7   9
HETATM    9  N9  UNL     1      -4.832   3.768  67.437  1.00  0.00    -0.262 N 
HETATM   10  C11 UNL     1      -4.145   3.027  68.410  1.00  0.00     0.304 C 
HETATM   11  O6  UNL     1      -4.777   2.111  69.012  1.00  0.00    -0.263 OA
ATOM     12  H9  UNL     1      -4.346   4.512  66.936  1.00  0.00     0.190 HD
BRANCH  10  13
HETATM   13  C12 UNL     1      -2.750   3.293  68.724  1.00  0.00     0.195 A 
HETATM   14  N10 UNL     1      -2.219   2.607  69.769  1.00  0.00    -0.171 N 
HETATM   15  C13 UNL     1      -0.936   2.822  70.093  1.00  0.00     0.681 A 
ATOM     16  H10 UNL     1      -2.785   1.943  70.297  1.00  0.00     0.186 HD
HETATM   17  N12 UNL     1      -0.170   3.691  69.413  1.00  0.00    -0.141 N 
HETATM   18  C14 UNL     1      -0.706   4.360  68.387  1.00  0.00     0.340 A 
ATOM     19  H12 UNL     1       0.805   3.839  69.676  1.00  0.00     0.189 HD
HETATM   20  O7  UNL     1      -0.020   5.181  67.729  1.00  0.00    -0.246 OA
HETATM   21  N13 UNL     1      -1.993   4.167  68.036  1.00  0.00    -0.289 N 
ATOM     22  H13 UNL     1      -2.391   4.682  67.251  1.00  0.00     0.172 HD
BRANCH  15  23
HETATM   23  N11 UNL     1      -0.441   2.164  71.089  1.00  0.00    -0.234 N 
ATOM     24 2H11 UNL     1      -0.276   2.634  71.979  1.00  0.00     0.174 HD
ATOM     25 1H11 UNL     1      -0.226   1.176  70.953  1.00  0.00     0.174 HD
ENDBRANCH  15  23
ENDBRANCH  10  13
ENDBRANCH   7   9
ENDBRANCH   3   7
ENDBRANCH   2   3
ENDBRANCH   1   2
BRANCH   1  26
HETATM   26  C4  UNL     1      -9.512   2.553  65.687  1.00  0.00     0.217 C 
BRANCH  26  27
HETATM   27  C5  UNL     1      -9.614   2.696  64.271  1.00  0.00     0.192 C 
HETATM   28  O1  UNL     1      -8.672   2.432  63.469  1.00  0.00    -0.647 OA
HETATM   29  O2  UNL     1     -10.848   3.159  63.757  1.00  0.00    -0.647 OA
ENDBRANCH  26  27
BRANCH  26  30
HETATM   30  S1  UNL     1      -9.924   1.161  66.283  1.00  0.00     0.223 S 
HETATM   31  O3  UNL     1      -9.881   0.352  64.968  1.00  0.00    -0.219 OA
HETATM   32  O4  UNL     1     -11.404   1.061  66.985  1.00  0.00    -0.219 OA
BRANCH  30  33
HETATM   33  C6  UNL     1      -8.659   0.514  67.302  1.00  0.00     0.232 A 
HETATM   34  N2  UNL     1      -7.366   0.312  67.073  1.00  0.00    -0.257 N 
HETATM   35  N3  UNL     1      -6.819  -0.198  68.162  1.00  0.00    -0.002 NA
ATOM     36  H2  UNL     1      -6.877   0.516  66.201  1.00  0.00     0.186 HD
HETATM   37  N4  UNL     1      -7.756  -0.330  69.108  1.00  0.00    -0.216 N 
HETATM   38  N7  UNL     1      -8.861   0.103  68.576  1.00  0.00    -0.260 N 
ATOM     39  H7  UNL     1      -9.761   0.130  69.055  1.00  0.00     0.190 HD
BRANCH  37  40
HETATM   40  C7  UNL     1      -7.444  -0.863  70.419  1.00  0.00     0.169 C 
BRANCH  40  41
HETATM   41  C8  UNL     1      -6.768   0.210  71.248  1.00  0.00     0.065 C 
BRANCH  41  42
HETATM   42  C9  UNL     1      -5.352  -0.125  71.578  1.00  0.00     0.273 C 
BRANCH  42  43
HETATM   43  N5  UNL     1      -4.554  -0.440  70.422  1.00  0.00    -0.067 N 
ATOM     44  H53 UNL     1      -5.147  -0.638  69.616  1.00  0.00     0.275 HD
ATOM     45  H52 UNL     1      -4.073   0.391  70.078  1.00  0.00     0.275 HD
ATOM     46  H51 UNL     1      -3.893  -1.201  70.579  1.00  0.00     0.275 HD
ENDBRANCH  42  43
BRANCH  42  47
HETATM   47  C10 UNL     1      -4.756   1.027  72.288  1.00  0.00     0.261 C 
HETATM   48  N6  UNL     1      -3.371   1.281  72.267  1.00  0.00    -0.060 NA
HETATM   49  O5  UNL     1      -5.542   1.791  72.928  1.00  0.00    -0.275 OA
ENDBRANCH  42  47
ENDBRANCH  41  42
ENDBRANCH  40  41
ENDBRANCH  37  40
ENDBRANCH  30  33
ENDBRANCH  26  30
ENDBRANCH   1  26
TORSDOF 15
ENDMDL
MODEL 5
REMARK VINA RESULT: -7.729488046      1.561      1.970
REMARK  15 active torsions:
REMARK  status: ('A' for Active; 'I' for Inactive)
REMARK    1  A    between atoms: C1_4  and  C2_5 
REMARK    2  A    between atoms: C1_4  and  N8_31 
REMARK    3  A    between atoms: C2_5  and  C3_6 
REMARK    4  A    between atoms: C3_6  and  C4_7 
REMARK    5  A    between atoms: C4_7  and  C5_8 
REMARK    6  A    between atoms: C4_7  and  S1_11 
REMARK    7  A    between atoms: S1_11  and  C6_14 
REMARK    8  A    between atoms: N4_18  and  C7_19 
REMARK    9  A    between atoms: C7_19  and  C8_20 
REMARK   10  A    between atoms: C8_20  and  C9_21 
REMARK   11  A    between atoms: C9_21  and  N5_22 
REMARK   12  A    between atoms: C9_21  and  C10_26 
REMARK   13  A    between atoms: N8_31  and  N9_33 
REMARK       I    between atoms: N9_33  and  C11_35 
REMARK   14  A    between atoms: C11_35  and  C12_37 
REMARK   15  A    between atoms: C13_40  and  N11_41 
ROOT
HETATM    1  C3  UNL     1      -8.162   4.114  64.537  1.00  0.00     0.039 C 
ENDROOT
BRANCH   1   2
HETATM    2  C2  UNL     1      -7.255   4.526  65.650  1.00  0.00     0.079 C 
BRANCH   2   3
HETATM    3  C1  UNL     1      -6.318   3.397  65.965  1.00  0.00     0.089 C 
HETATM    4  N1  UNL     1      -6.046   2.534  65.074  1.00  0.00    -0.388 N 
ATOM      5  H12 UNL     1      -6.478   2.642  64.156  1.00  0.00     0.157 HD
ATOM      6  H11 UNL     1      -5.409   1.767  65.287  1.00  0.00     0.157 HD
BRANCH   3   7
HETATM    7  N8  UNL     1      -5.723   3.248  67.230  1.00  0.00    -0.286 N 
ATOM      8  H8  UNL     1      -6.293   2.933  68.016  1.00  0.00     0.188 HD
BRANCH   7   9
HETATM    9  N9  UNL     1      -4.357   3.522  67.438  1.00  0.00    -0.262 N 
HETATM   10  C11 UNL     1      -3.727   3.176  68.642  1.00  0.00     0.304 C 
HETATM   11  O6  UNL     1      -4.423   2.609  69.534  1.00  0.00    -0.263 OA
ATOM     12  H9  UNL     1      -3.818   3.980  66.702  1.00  0.00     0.190 HD
BRANCH  10  13
HETATM   13  C12 UNL     1      -2.317   3.452  68.870  1.00  0.00     0.195 A 
HETATM   14  N10 UNL     1      -1.720   2.780  69.888  1.00  0.00    -0.171 N 
HETATM   15  C13 UNL     1      -0.422   3.004  70.133  1.00  0.00     0.681 A 
ATOM     16  H10 UNL     1      -2.250   2.117  70.454  1.00  0.00     0.186 HD
HETATM   17  N12 UNL     1       0.297   3.872  69.400  1.00  0.00    -0.141 N 
HETATM   18  C14 UNL     1      -0.303   4.527  68.402  1.00  0.00     0.340 A 
ATOM     19  H12 UNL     1       1.285   4.028  69.603  1.00  0.00     0.189 HD
HETATM   20  O7  UNL     1       0.337   5.346  67.696  1.00  0.00    -0.246 OA
HETATM   21  N13 UNL     1      -1.607   4.324  68.129  1.00  0.00    -0.289 N 
ATOM     22  H13 UNL     1      -2.055   4.830  67.365  1.00  0.00     0.172 HD
BRANCH  15  23
HETATM   23  N11 UNL     1       0.136   2.359  71.103  1.00  0.00    -0.234 N 
ATOM     24 2H11 UNL     1       1.070   1.966  70.985  1.00  0.00     0.174 HD
ATOM     25 1H11 UNL     1      -0.384   2.259  71.976  1.00  0.00     0.174 HD
ENDBRANCH  15  23
ENDBRANCH  10  13
ENDBRANCH   7   9
ENDBRANCH   3   7
ENDBRANCH   2   3
ENDBRANCH   1   2
BRANCH   1  26
HETATM   26  C4  UNL     1      -9.451   3.571  64.886  1.00  0.00     0.217 C 
BRANCH  26  27
HETATM   27  C5  UNL     1     -10.479   4.361  65.483  1.00  0.00     0.192 C 
HETATM   28  O1  UNL     1     -11.332   5.020  64.821  1.00  0.00    -0.647 OA
HETATM   29  O2  UNL     1     -10.529   4.392  66.897  1.00  0.00    -0.647 OA
ENDBRANCH  26  27
BRANCH  26  30
HETATM   30  S1  UNL     1      -9.750   2.040  64.721  1.00  0.00     0.223 S 
HETATM   31  O3  UNL     1      -8.644   1.724  63.690  1.00  0.00    -0.219 OA
HETATM   32  O4  UNL     1     -11.229   1.630  64.139  1.00  0.00    -0.219 OA
BRANCH  30  33
HETATM   33  C6  UNL     1      -9.337   1.158  66.173  1.00  0.00     0.232 A 
HETATM   34  N2  UNL     1      -9.352  -0.143  66.442  1.00  0.00    -0.257 N 
HETATM   35  N3  UNL     1      -8.946  -0.320  67.688  1.00  0.00    -0.002 NA
ATOM     36  H2  UNL     1      -9.630  -0.881  65.796  1.00  0.00     0.186 HD
HETATM   37  N4  UNL     1      -8.665   0.867  68.236  1.00  0.00    -0.216 N 
HETATM   38  N7  UNL     1      -8.905   1.750  67.311  1.00  0.00    -0.260 N 
ATOM     39  H7  UNL     1      -8.782   2.756  67.427  1.00  0.00     0.190 HD
BRANCH  37  40
HETATM   40  C7  UNL     1      -8.191   0.984  69.600  1.00  0.00     0.169 C 
BRANCH  40  41
HETATM   41  C8  UNL     1      -6.812   0.365  69.705  1.00  0.00     0.065 C 
BRANCH  41  42
HETATM   42  C9  UNL     1      -6.799  -0.872  70.540  1.00  0.00     0.273 C 
BRANCH  42  43
HETATM   43  N5  UNL     1      -8.108  -1.431  70.756  1.00  0.00    -0.067 N 
ATOM     44  H53 UNL     1      -8.642  -0.860  71.411  1.00  0.00     0.275 HD
ATOM     45  H52 UNL     1      -8.689  -1.322  69.925  1.00  0.00     0.275 HD
ATOM     46  H51 UNL     1      -8.090  -2.405  71.059  1.00  0.00     0.275 HD
ENDBRANCH  42  43
BRANCH  42  47
HETATM   47  C10 UNL     1      -5.941  -1.874  69.871  1.00  0.00     0.261 C 
HETATM   48  N6  UNL     1      -5.757  -1.885  68.475  1.00  0.00    -0.060 NA
HETATM   49  O5  UNL     1      -5.367  -2.736  70.604  1.00  0.00    -0.275 OA
ENDBRANCH  42  47
ENDBRANCH  41  42
ENDBRANCH  40  41
ENDBRANCH  37  40
ENDBRANCH  30  33
ENDBRANCH  26  30
ENDBRANCH   1  26
TORSDOF 15
ENDMDL
