MODEL 1
REMARK VINA RESULT: -7.737346086      0.000      0.000
REMARK  11 active torsions:
REMARK  status: ('A' for Active; 'I' for Inactive)
REMARK    1  A    between atoms: C5_5  and  C6_6 
REMARK    2  A    between atoms: C6_6  and  N1_7 
REMARK    3  A    between atoms: N1_7  and  C7_9 
REMARK    4  A    between atoms: C12_14  and  C13_15 
REMARK    5  A    between atoms: C13_15  and  N2_16 
REMARK    6  A    between atoms: N2_16  and  C14_19 
REMARK    7  A    between atoms: C14_19  and  C15_20 
REMARK    8  A    between atoms: C15_20  and  C16_21 
REMARK    9  A    between atoms: C16_21  and  N3_22 
REMARK   10  A    between atoms: N3_22  and  C17_24 
REMARK   11  A    between atoms: C17_24  and  C18_25 
ROOT
HETATM    1  C13 UNL     1     188.254 122.820  33.943  1.00  0.00     0.273 C 
ENDROOT
BRANCH   1   2
HETATM    2  C12 UNL     1     188.654 121.988  32.796  1.00  0.00    -0.006 A 
HETATM    3  C7  UNL     1     187.689 121.074  32.318  1.00  0.00     0.036 A 
HETATM    4  C8  UNL     1     188.063 120.184  31.356  1.00  0.00     0.030 A 
HETATM    5  C9  UNL     1     189.352 120.125  30.811  1.00  0.00     0.002 A 
HETATM    6  C10 UNL     1     190.284 121.013  31.274  1.00  0.00     0.001 A 
HETATM    7  C11 UNL     1     189.895 121.914  32.253  1.00  0.00     0.011 A 
BRANCH   3   8
HETATM    8  N1  UNL     1     186.353 121.126  32.754  1.00  0.00    -0.385 N 
ATOM      9  H1  UNL     1     186.225 121.050  33.762  1.00  0.00     0.160 HD
BRANCH   8  10
HETATM   10  C6  UNL     1     185.149 121.267  31.999  1.00  0.00     0.158 C 
BRANCH  10  11
HETATM   11  C5  UNL     1     184.660 122.633  31.757  1.00  0.00    -0.041 A 
HETATM   12  C4  UNL     1     184.107 123.374  32.806  1.00  0.00     0.009 A 
HETATM   13  C3  UNL     1     183.641 124.655  32.663  1.00  0.00     0.007 A 
HETATM   14  C2  UNL     1     183.707 125.278  31.444  1.00  0.00    -0.062 A 
HETATM   15  C1  UNL     1     183.200 126.677  31.305  1.00  0.00     0.048 C 
HETATM   16  C24 UNL     1     184.253 124.577  30.368  1.00  0.00     0.007 A 
HETATM   17  C23 UNL     1     184.716 123.284  30.537  1.00  0.00     0.009 A 
ENDBRANCH  10  11
ENDBRANCH   8  10
ENDBRANCH   3   8
ENDBRANCH   1   2
BRANCH   1  18
HETATM   18  N2  UNL     1     188.495 124.241  33.818  1.00  0.00    -0.071 N 
ATOM     19  H22 UNL     1     188.486 124.719  34.719  1.00  0.00     0.277 HD
ATOM     20  H21 UNL     1     189.459 124.451  33.556  1.00  0.00     0.277 HD
BRANCH  18  21
HETATM   21  C14 UNL     1     187.520 124.806  32.871  1.00  0.00     0.234 C 
BRANCH  21  22
HETATM   22  C15 UNL     1     187.095 126.169  33.056  1.00  0.00     0.046 C 
BRANCH  22  23
HETATM   23  C16 UNL     1     186.918 127.055  31.862  1.00  0.00     0.115 C 
BRANCH  23  24
HETATM   24  N3  UNL     1     186.568 128.391  32.196  1.00  0.00    -0.417 N 
ATOM     25  H3  UNL     1     186.960 129.198  31.710  1.00  0.00     0.153 HD
BRANCH  24  26
HETATM   26  C17 UNL     1     185.618 128.521  33.270  1.00  0.00     0.154 C 
BRANCH  26  27
HETATM   27  C18 UNL     1     186.120 129.550  34.208  1.00  0.00    -0.025 A 
HETATM   28  C19 UNL     1     185.321 130.668  34.463  1.00  0.00     0.011 A 
HETATM   29  C20 UNL     1     185.668 131.618  35.380  1.00  0.00     0.018 A 
HETATM   30  C21 UNL     1     186.865 131.458  36.077  1.00  0.00     0.087 A 
HETATM   31  N4  UNL     1     187.629 130.385  35.825  1.00  0.00    -0.375 N 
HETATM   32  C22 UNL     1     187.271 129.443  34.906  1.00  0.00     0.096 A 
ATOM     33  H4  UNL     1     188.505 130.270  36.335  1.00  0.00     0.164 HD
ENDBRANCH  26  27
ENDBRANCH  24  26
ENDBRANCH  23  24
ENDBRANCH  22  23
ENDBRANCH  21  22
ENDBRANCH  18  21
ENDBRANCH   1  18
TORSDOF 11
ENDMDL
MODEL 2
REMARK VINA RESULT: -7.701132998      3.327      5.766
REMARK  11 active torsions:
REMARK  status: ('A' for Active; 'I' for Inactive)
REMARK    1  A    between atoms: C5_5  and  C6_6 
REMARK    2  A    between atoms: C6_6  and  N1_7 
REMARK    3  A    between atoms: N1_7  and  C7_9 
REMARK    4  A    between atoms: C12_14  and  C13_15 
REMARK    5  A    between atoms: C13_15  and  N2_16 
REMARK    6  A    between atoms: N2_16  and  C14_19 
REMARK    7  A    between atoms: C14_19  and  C15_20 
REMARK    8  A    between atoms: C15_20  and  C16_21 
REMARK    9  A    between atoms: C16_21  and  N3_22 
REMARK   10  A    between atoms: N3_22  and  C17_24 
REMARK   11  A    between atoms: C17_24  and  C18_25 
ROOT
HETATM    1  C13 UNL     1     188.722 123.011  33.932  1.00  0.00     0.273 C 
ENDROOT
BRANCH   1   2
HETATM    2  C12 UNL     1     188.959 122.101  32.798  1.00  0.00    -0.006 A 
HETATM    3  C7  UNL     1     187.852 121.336  32.368  1.00  0.00     0.036 A 
HETATM    4  C8  UNL     1     188.059 120.377  31.422  1.00  0.00     0.030 A 
HETATM    5  C9  UNL     1     189.308 120.109  30.848  1.00  0.00     0.002 A 
HETATM    6  C10 UNL     1     190.377 120.853  31.265  1.00  0.00     0.001 A 
HETATM    7  C11 UNL     1     190.158 121.825  32.228  1.00  0.00     0.011 A 
BRANCH   3   8
HETATM    8  N1  UNL     1     186.552 121.602  32.834  1.00  0.00    -0.385 N 
ATOM      9  H1  UNL     1     186.477 121.756  33.839  1.00  0.00     0.160 HD
BRANCH   8  10
HETATM   10  C6  UNL     1     185.322 121.690  32.114  1.00  0.00     0.158 C 
BRANCH  10  11
HETATM   11  C5  UNL     1     184.737 123.028  31.938  1.00  0.00    -0.041 A 
HETATM   12  C4  UNL     1     184.716 123.621  30.672  1.00  0.00     0.009 A 
HETATM   13  C3  UNL     1     184.177 124.858  30.425  1.00  0.00     0.007 A 
HETATM   14  C2  UNL     1     183.618 125.580  31.446  1.00  0.00    -0.062 A 
HETATM   15  C1  UNL     1     183.031 126.924  31.161  1.00  0.00     0.048 C 
HETATM   16  C24 UNL     1     183.615 125.026  32.728  1.00  0.00     0.007 A 
HETATM   17  C23 UNL     1     184.165 123.777  32.952  1.00  0.00     0.009 A 
ENDBRANCH  10  11
ENDBRANCH   8  10
ENDBRANCH   3   8
ENDBRANCH   1   2
BRANCH   1  18
HETATM   18  N2  UNL     1     189.617 122.874  35.060  1.00  0.00    -0.071 N 
ATOM     19  H22 UNL     1     189.118 122.739  35.940  1.00  0.00     0.277 HD
ATOM     20  H21 UNL     1     190.125 121.989  35.049  1.00  0.00     0.277 HD
BRANCH  18  21
HETATM   21  C14 UNL     1     190.517 124.038  35.097  1.00  0.00     0.234 C 
BRANCH  21  22
HETATM   22  C15 UNL     1     190.039 125.291  34.574  1.00  0.00     0.046 C 
BRANCH  22  23
HETATM   23  C16 UNL     1     190.897 126.070  33.626  1.00  0.00     0.115 C 
BRANCH  23  24
HETATM   24  N3  UNL     1     191.228 125.355  32.444  1.00  0.00    -0.417 N 
ATOM     25  H3  UNL     1     190.523 125.056  31.769  1.00  0.00     0.153 HD
BRANCH  24  26
HETATM   26  C17 UNL     1     192.631 125.083  32.270  1.00  0.00     0.154 C 
BRANCH  26  27
HETATM   27  C18 UNL     1     192.787 124.198  31.093  1.00  0.00    -0.025 A 
HETATM   28  C19 UNL     1     193.618 123.079  31.204  1.00  0.00     0.011 A 
HETATM   29  C20 UNL     1     193.747 122.166  30.198  1.00  0.00     0.018 A 
HETATM   30  C21 UNL     1     193.024 122.368  29.023  1.00  0.00     0.087 A 
HETATM   31  N4  UNL     1     192.232 123.446  28.922  1.00  0.00    -0.375 N 
HETATM   32  C22 UNL     1     192.111 124.352  29.935  1.00  0.00     0.096 A 
ATOM     33  H4  UNL     1     191.704 123.593  28.061  1.00  0.00     0.164 HD
ENDBRANCH  26  27
ENDBRANCH  24  26
ENDBRANCH  23  24
ENDBRANCH  22  23
ENDBRANCH  21  22
ENDBRANCH  18  21
ENDBRANCH   1  18
TORSDOF 11
ENDMDL
MODEL 3
REMARK VINA RESULT: -7.677281771      3.503      6.818
REMARK  11 active torsions:
REMARK  status: ('A' for Active; 'I' for Inactive)
REMARK    1  A    between atoms: C5_5  and  C6_6 
REMARK    2  A    between atoms: C6_6  and  N1_7 
REMARK    3  A    between atoms: N1_7  and  C7_9 
REMARK    4  A    between atoms: C12_14  and  C13_15 
REMARK    5  A    between atoms: C13_15  and  N2_16 
REMARK    6  A    between atoms: N2_16  and  C14_19 
REMARK    7  A    between atoms: C14_19  and  C15_20 
REMARK    8  A    between atoms: C15_20  and  C16_21 
REMARK    9  A    between atoms: C16_21  and  N3_22 
REMARK   10  A    between atoms: N3_22  and  C17_24 
REMARK   11  A    between atoms: C17_24  and  C18_25 
ROOT
HETATM    1  C13 UNL     1     185.415 123.875  30.703  1.00  0.00     0.273 C 
ENDROOT
BRANCH   1   2
HETATM    2  C12 UNL     1     184.509 122.729  30.518  1.00  0.00    -0.006 A 
HETATM    3  C7  UNL     1     184.748 121.603  31.337  1.00  0.00     0.036 A 
HETATM    4  C8  UNL     1     184.031 120.469  31.100  1.00  0.00     0.030 A 
HETATM    5  C9  UNL     1     183.066 120.356  30.092  1.00  0.00     0.002 A 
HETATM    6  C10 UNL     1     182.835 121.448  29.302  1.00  0.00     0.001 A 
HETATM    7  C11 UNL     1     183.569 122.597  29.549  1.00  0.00     0.011 A 
BRANCH   3   8
HETATM    8  N1  UNL     1     185.639 121.664  32.423  1.00  0.00    -0.385 N 
ATOM      9  H1  UNL     1     185.566 122.505  32.995  1.00  0.00     0.160 HD
BRANCH   8  10
HETATM   10  C6  UNL     1     186.631 120.728  32.847  1.00  0.00     0.158 C 
BRANCH  10  11
HETATM   11  C5  UNL     1     187.992 120.899  32.317  1.00  0.00    -0.041 A 
HETATM   12  C4  UNL     1     188.918 121.686  33.009  1.00  0.00     0.009 A 
HETATM   13  C3  UNL     1     190.207 121.883  32.586  1.00  0.00     0.007 A 
HETATM   14  C2  UNL     1     190.650 121.293  31.432  1.00  0.00    -0.062 A 
HETATM   15  C1  UNL     1     192.060 121.513  30.987  1.00  0.00     0.048 C 
HETATM   16  C24 UNL     1     189.760 120.497  30.708  1.00  0.00     0.007 A 
HETATM   17  C23 UNL     1     188.464 120.314  31.155  1.00  0.00     0.009 A 
ENDBRANCH  10  11
ENDBRANCH   8  10
ENDBRANCH   3   8
ENDBRANCH   1   2
BRANCH   1  18
HETATM   18  N2  UNL     1     184.972 125.137  30.151  1.00  0.00    -0.071 N 
ATOM     19  H22 UNL     1     185.706 125.612  29.625  1.00  0.00     0.277 HD
ATOM     20  H21 UNL     1     184.307 125.015  29.387  1.00  0.00     0.277 HD
BRANCH  18  21
HETATM   21  C14 UNL     1     184.432 125.968  31.239  1.00  0.00     0.234 C 
BRANCH  21  22
HETATM   22  C15 UNL     1     183.157 126.610  31.045  1.00  0.00     0.046 C 
BRANCH  22  23
HETATM   23  C16 UNL     1     183.112 128.041  30.611  1.00  0.00     0.115 C 
BRANCH  23  24
HETATM   24  N3  UNL     1     183.015 128.203  29.202  1.00  0.00    -0.417 N 
ATOM     25  H3  UNL     1     182.149 128.038  28.690  1.00  0.00     0.153 HD
BRANCH  24  26
HETATM   26  C17 UNL     1     184.232 128.617  28.553  1.00  0.00     0.154 C 
BRANCH  26  27
HETATM   27  C18 UNL     1     183.976 128.692  27.097  1.00  0.00    -0.025 A 
HETATM   28  C19 UNL     1     183.126 127.745  26.518  1.00  0.00     0.011 A 
HETATM   29  C20 UNL     1     182.767 127.796  25.202  1.00  0.00     0.018 A 
HETATM   30  C21 UNL     1     183.274 128.830  24.417  1.00  0.00     0.087 A 
HETATM   31  N4  UNL     1     184.093 129.733  24.978  1.00  0.00    -0.375 N 
HETATM   32  C22 UNL     1     184.444 129.672  26.295  1.00  0.00     0.096 A 
ATOM     33  H4  UNL     1     184.464 130.489  24.402  1.00  0.00     0.164 HD
ENDBRANCH  26  27
ENDBRANCH  24  26
ENDBRANCH  23  24
ENDBRANCH  22  23
ENDBRANCH  21  22
ENDBRANCH  18  21
ENDBRANCH   1  18
TORSDOF 11
ENDMDL
MODEL 4
REMARK VINA RESULT: -7.659960244      3.367      7.077
REMARK  11 active torsions:
REMARK  status: ('A' for Active; 'I' for Inactive)
REMARK    1  A    between atoms: C5_5  and  C6_6 
REMARK    2  A    between atoms: C6_6  and  N1_7 
REMARK    3  A    between atoms: N1_7  and  C7_9 
REMARK    4  A    between atoms: C12_14  and  C13_15 
REMARK    5  A    between atoms: C13_15  and  N2_16 
REMARK    6  A    between atoms: N2_16  and  C14_19 
REMARK    7  A    between atoms: C14_19  and  C15_20 
REMARK    8  A    between atoms: C15_20  and  C16_21 
REMARK    9  A    between atoms: C16_21  and  N3_22 
REMARK   10  A    between atoms: N3_22  and  C17_24 
REMARK   11  A    between atoms: C17_24  and  C18_25 
ROOT
HETATM    1  C13 UNL     1     188.873 121.955  34.366  1.00  0.00     0.273 C 
ENDROOT
BRANCH   1   2
HETATM    2  C12 UNL     1     187.703 121.773  33.489  1.00  0.00    -0.006 A 
HETATM    3  C7  UNL     1     186.921 122.923  33.243  1.00  0.00     0.036 A 
HETATM    4  C8  UNL     1     185.751 122.773  32.559  1.00  0.00     0.030 A 
HETATM    5  C9  UNL     1     185.281 121.544  32.084  1.00  0.00     0.002 A 
HETATM    6  C10 UNL     1     186.042 120.432  32.321  1.00  0.00     0.001 A 
HETATM    7  C11 UNL     1     187.230 120.593  33.018  1.00  0.00     0.011 A 
BRANCH   3   8
HETATM    8  N1  UNL     1     187.365 124.204  33.614  1.00  0.00    -0.385 N 
ATOM      9  H1  UNL     1     187.467 124.352  34.618  1.00  0.00     0.160 HD
BRANCH   8  10
HETATM   10  C6  UNL     1     187.696 125.330  32.800  1.00  0.00     0.158 C 
BRANCH  10  11
HETATM   11  C5  UNL     1     187.197 126.645  33.230  1.00  0.00    -0.041 A 
HETATM   12  C4  UNL     1     185.955 127.103  32.778  1.00  0.00     0.009 A 
HETATM   13  C3  UNL     1     185.416 128.310  33.143  1.00  0.00     0.007 A 
HETATM   14  C2  UNL     1     186.098 129.137  33.996  1.00  0.00    -0.062 A 
HETATM   15  C1  UNL     1     185.496 130.447  34.389  1.00  0.00     0.048 C 
HETATM   16  C24 UNL     1     187.342 128.720  34.474  1.00  0.00     0.007 A 
HETATM   17  C23 UNL     1     187.864 127.498  34.091  1.00  0.00     0.009 A 
ENDBRANCH  10  11
ENDBRANCH   8  10
ENDBRANCH   3   8
ENDBRANCH   1   2
BRANCH   1  18
HETATM   18  N2  UNL     1     190.147 121.532  33.827  1.00  0.00    -0.071 N 
ATOM     19  H22 UNL     1     190.847 121.381  34.554  1.00  0.00     0.277 HD
ATOM     20  H21 UNL     1     190.119 120.582  33.459  1.00  0.00     0.277 HD
BRANCH  18  21
HETATM   21  C14 UNL     1     190.586 122.513  32.821  1.00  0.00     0.234 C 
BRANCH  21  22
HETATM   22  C15 UNL     1     190.565 122.127  31.433  1.00  0.00     0.046 C 
BRANCH  22  23
HETATM   23  C16 UNL     1     191.071 123.080  30.396  1.00  0.00     0.115 C 
BRANCH  23  24
HETATM   24  N3  UNL     1     191.807 122.448  29.357  1.00  0.00    -0.417 N 
ATOM     25  H3  UNL     1     191.408 122.265  28.436  1.00  0.00     0.153 HD
BRANCH  24  26
HETATM   26  C17 UNL     1     193.157 122.084  29.703  1.00  0.00     0.154 C 
BRANCH  26  27
HETATM   27  C18 UNL     1     193.961 123.324  29.791  1.00  0.00    -0.025 A 
HETATM   28  C19 UNL     1     194.807 123.495  30.890  1.00  0.00     0.011 A 
HETATM   29  C20 UNL     1     195.647 124.565  31.003  1.00  0.00     0.018 A 
HETATM   30  C21 UNL     1     195.649 125.515  29.983  1.00  0.00     0.087 A 
HETATM   31  N4  UNL     1     194.832 125.347  28.933  1.00  0.00    -0.375 N 
HETATM   32  C22 UNL     1     193.997 124.272  28.831  1.00  0.00     0.096 A 
ATOM     33  H4  UNL     1     194.835 126.043  28.187  1.00  0.00     0.164 HD
ENDBRANCH  26  27
ENDBRANCH  24  26
ENDBRANCH  23  24
ENDBRANCH  22  23
ENDBRANCH  21  22
ENDBRANCH  18  21
ENDBRANCH   1  18
TORSDOF 11
ENDMDL
MODEL 5
REMARK VINA RESULT: -7.641908868      2.062      7.404
REMARK  11 active torsions:
REMARK  status: ('A' for Active; 'I' for Inactive)
REMARK    1  A    between atoms: C5_5  and  C6_6 
REMARK    2  A    between atoms: C6_6  and  N1_7 
REMARK    3  A    between atoms: N1_7  and  C7_9 
REMARK    4  A    between atoms: C12_14  and  C13_15 
REMARK    5  A    between atoms: C13_15  and  N2_16 
REMARK    6  A    between atoms: N2_16  and  C14_19 
REMARK    7  A    between atoms: C14_19  and  C15_20 
REMARK    8  A    between atoms: C15_20  and  C16_21 
REMARK    9  A    between atoms: C16_21  and  N3_22 
REMARK   10  A    between atoms: N3_22  and  C17_24 
REMARK   11  A    between atoms: C17_24  and  C18_25 
ROOT
HETATM    1  C13 UNL     1     187.388 126.309  32.650  1.00  0.00     0.273 C 
ENDROOT
BRANCH   1   2
HETATM    2  C12 UNL     1     186.833 127.530  33.259  1.00  0.00    -0.006 A 
HETATM    3  C7  UNL     1     185.740 128.122  32.589  1.00  0.00     0.036 A 
HETATM    4  C8  UNL     1     185.289 129.330  33.032  1.00  0.00     0.030 A 
HETATM    5  C9  UNL     1     185.846 130.016  34.117  1.00  0.00     0.002 A 
HETATM    6  C10 UNL     1     186.903 129.439  34.766  1.00  0.00     0.001 A 
HETATM    7  C11 UNL     1     187.356 128.212  34.308  1.00  0.00     0.011 A 
BRANCH   3   8
HETATM    8  N1  UNL     1     185.073 127.457  31.545  1.00  0.00    -0.385 N 
ATOM      9  H1  UNL     1     185.556 127.469  30.647  1.00  0.00     0.160 HD
BRANCH   8  10
HETATM   10  C6  UNL     1     183.823 126.767  31.550  1.00  0.00     0.158 C 
BRANCH  10  11
HETATM   11  C5  UNL     1     183.861 125.301  31.664  1.00  0.00    -0.041 A 
HETATM   12  C4  UNL     1     183.934 124.512  30.512  1.00  0.00     0.009 A 
HETATM   13  C3  UNL     1     183.985 123.142  30.536  1.00  0.00     0.007 A 
HETATM   14  C2  UNL     1     183.970 122.475  31.732  1.00  0.00    -0.062 A 
HETATM   15  C1  UNL     1     184.031 120.981  31.743  1.00  0.00     0.048 C 
HETATM   16  C24 UNL     1     183.899 123.222  32.910  1.00  0.00     0.007 A 
HETATM   17  C23 UNL     1     183.848 124.604  32.859  1.00  0.00     0.009 A 
ENDBRANCH  10  11
ENDBRANCH   8  10
ENDBRANCH   3   8
ENDBRANCH   1   2
BRANCH   1  18
HETATM   18  N2  UNL     1     187.827 125.280  33.567  1.00  0.00    -0.071 N 
ATOM     19  H22 UNL     1     188.803 125.392  33.841  1.00  0.00     0.277 HD
ATOM     20  H21 UNL     1     187.408 125.378  34.492  1.00  0.00     0.277 HD
BRANCH  18  21
HETATM   21  C14 UNL     1     187.559 123.963  32.966  1.00  0.00     0.234 C 
BRANCH  21  22
HETATM   22  C15 UNL     1     187.523 123.859  31.530  1.00  0.00     0.046 C 
BRANCH  22  23
HETATM   23  C16 UNL     1     187.719 122.523  30.883  1.00  0.00     0.115 C 
BRANCH  23  24
HETATM   24  N3  UNL     1     188.967 122.396  30.214  1.00  0.00    -0.417 N 
ATOM     25  H3  UNL     1     189.147 122.822  29.305  1.00  0.00     0.153 HD
BRANCH  24  26
HETATM   26  C17 UNL     1     189.957 121.622  30.916  1.00  0.00     0.154 C 
BRANCH  26  27
HETATM   27  C18 UNL     1     191.289 122.189  30.609  1.00  0.00    -0.025 A 
HETATM   28  C19 UNL     1     192.394 121.333  30.600  1.00  0.00     0.011 A 
HETATM   29  C20 UNL     1     193.641 121.757  30.242  1.00  0.00     0.018 A 
HETATM   30  C21 UNL     1     193.807 123.093  29.877  1.00  0.00     0.087 A 
HETATM   31  N4  UNL     1     192.743 123.910  29.892  1.00  0.00    -0.375 N 
HETATM   32  C22 UNL     1     191.501 123.474  30.252  1.00  0.00     0.096 A 
ATOM     33  H4  UNL     1     192.866 124.887  29.625  1.00  0.00     0.164 HD
ENDBRANCH  26  27
ENDBRANCH  24  26
ENDBRANCH  23  24
ENDBRANCH  22  23
ENDBRANCH  21  22
ENDBRANCH  18  21
ENDBRANCH   1  18
TORSDOF 11
ENDMDL
