MODEL 1
REMARK VINA RESULT: -7.358436641      0.000      0.000
REMARK  11 active torsions:
REMARK  status: ('A' for Active; 'I' for Inactive)
REMARK    1  A    between atoms: N1_2  and  C2_3 
REMARK    2  A    between atoms: N1_2  and  C16_20 
REMARK    3  A    between atoms: C2_3  and  C3_4 
REMARK    4  A    between atoms: C3_4  and  N2_5 
REMARK    5  A    between atoms: N2_5  and  C4_7 
REMARK    6  A    between atoms: C7_10  and  C8_11 
REMARK    7  A    between atoms: C8_11  and  C9_12 
REMARK    8  A    between atoms: C9_12  and  C10_13 
REMARK    9  A    between atoms: C10_13  and  C11_14 
REMARK   10  A    between atoms: C11_14  and  C12_15 
REMARK   11  A    between atoms: C16_20  and  C17_21 
ROOT
HETATM    1  C12 UNL     1     182.492 120.828  30.001  1.00  0.00     0.124 C 
HETATM    2  C13 UNL     1     182.989 121.452  28.724  1.00  0.00     0.059 C 
HETATM    3  N3  UNL     1     183.387 121.933  27.754  1.00  0.00    -0.197 NA
ENDROOT
BRANCH   1   4
HETATM    4  C11 UNL     1     183.643 120.743  30.903  1.00  0.00     0.014 C 
BRANCH   4   5
HETATM    5  C10 UNL     1     183.750 121.536  32.127  1.00  0.00     0.001 C 
BRANCH   5   6
HETATM    6  C9  UNL     1     184.555 122.762  32.186  1.00  0.00     0.005 C 
BRANCH   6   7
HETATM    7  C8  UNL     1     183.966 124.027  32.648  1.00  0.00     0.038 C 
BRANCH   7   8
HETATM    8  C7  UNL     1     183.713 124.989  31.536  1.00  0.00    -0.058 A 
HETATM    9  C6  UNL     1     183.808 124.737  30.199  1.00  0.00     0.009 A 
HETATM   10  C5  UNL     1     183.539 125.686  29.230  1.00  0.00     0.029 A 
HETATM   11  C4  UNL     1     183.151 126.971  29.610  1.00  0.00     0.028 A 
HETATM   12  C15 UNL     1     183.059 127.215  30.952  1.00  0.00     0.029 A 
HETATM   13  C14 UNL     1     183.327 126.270  31.919  1.00  0.00     0.009 A 
BRANCH  11  14
HETATM   14  N2  UNL     1     182.853 127.956  28.635  1.00  0.00    -0.388 N 
ATOM     15  H2  UNL     1     182.127 128.642  28.844  1.00  0.00     0.159 HD
BRANCH  14  16
HETATM   16  C3  UNL     1     183.521 128.036  27.371  1.00  0.00     0.150 C 
BRANCH  16  17
HETATM   17  C2  UNL     1     184.293 129.295  27.187  1.00  0.00     0.292 C 
BRANCH  17  18
HETATM   18  N1  UNL     1     184.993 129.704  28.415  1.00  0.00     0.092 N 
HETATM   19  C1  UNL     1     184.926 131.151  28.455  1.00  0.00     0.310 C 
BRANCH  18  20
HETATM   20  C16 UNL     1     186.347 129.218  28.299  1.00  0.00     0.348 C 
BRANCH  20  21
HETATM   21  C17 UNL     1     186.645 128.118  29.236  1.00  0.00     0.111 A 
HETATM   22  N4  UNL     1     186.593 128.083  30.578  1.00  0.00    -0.343 N 
HETATM   23  C18 UNL     1     186.948 126.879  31.006  1.00  0.00     0.062 A 
ATOM     24  H4  UNL     1     186.322 128.863  31.176  1.00  0.00     0.167 HD
HETATM   25  C19 UNL     1     187.086 126.253  32.236  1.00  0.00     0.058 A 
HETATM   26  C23 UNL     1     187.235 126.125  29.893  1.00  0.00     0.060 A 
HETATM   27  C20 UNL     1     187.490 124.940  32.351  1.00  0.00     0.048 A 
HETATM   28  N5  UNL     1     187.631 124.295  33.613  1.00  0.00    -0.102 NA
HETATM   29  C21 UNL     1     187.774 124.198  31.225  1.00  0.00     0.029 A 
HETATM   30  C22 UNL     1     187.645 124.798  29.973  1.00  0.00     0.034 A 
HETATM   31  N6  UNL     1     187.044 126.898  28.832  1.00  0.00    -0.343 N 
ATOM     32  H6  UNL     1     187.179 126.613  27.863  1.00  0.00     0.167 HD
ENDBRANCH  20  21
ENDBRANCH  18  20
ENDBRANCH  17  18
ENDBRANCH  16  17
ENDBRANCH  14  16
ENDBRANCH  11  14
ENDBRANCH   7   8
ENDBRANCH   6   7
ENDBRANCH   5   6
ENDBRANCH   4   5
ENDBRANCH   1   4
TORSDOF 11
ENDMDL
MODEL 2
REMARK VINA RESULT: -7.147610613      1.831      2.646
REMARK  11 active torsions:
REMARK  status: ('A' for Active; 'I' for Inactive)
REMARK    1  A    between atoms: N1_2  and  C2_3 
REMARK    2  A    between atoms: N1_2  and  C16_20 
REMARK    3  A    between atoms: C2_3  and  C3_4 
REMARK    4  A    between atoms: C3_4  and  N2_5 
REMARK    5  A    between atoms: N2_5  and  C4_7 
REMARK    6  A    between atoms: C7_10  and  C8_11 
REMARK    7  A    between atoms: C8_11  and  C9_12 
REMARK    8  A    between atoms: C9_12  and  C10_13 
REMARK    9  A    between atoms: C10_13  and  C11_14 
REMARK   10  A    between atoms: C11_14  and  C12_15 
REMARK   11  A    between atoms: C16_20  and  C17_21 
ROOT
HETATM    1  C12 UNL     1     186.774 120.220  32.207  1.00  0.00     0.124 C 
HETATM    2  C13 UNL     1     187.556 120.960  33.259  1.00  0.00     0.059 C 
HETATM    3  N3  UNL     1     188.142 121.540  34.066  1.00  0.00    -0.197 NA
ENDROOT
BRANCH   1   4
HETATM    4  C11 UNL     1     185.472 120.883  32.108  1.00  0.00     0.014 C 
BRANCH   4   5
HETATM    5  C10 UNL     1     185.303 122.327  32.278  1.00  0.00     0.001 C 
BRANCH   5   6
HETATM    6  C9  UNL     1     183.983 122.930  32.492  1.00  0.00     0.005 C 
BRANCH   6   7
HETATM    7  C8  UNL     1     183.850 124.363  32.789  1.00  0.00     0.038 C 
BRANCH   7   8
HETATM    8  C7  UNL     1     183.617 125.189  31.569  1.00  0.00    -0.058 A 
HETATM    9  C6  UNL     1     183.671 124.767  30.274  1.00  0.00     0.009 A 
HETATM   10  C5  UNL     1     183.425 125.600  29.197  1.00  0.00     0.029 A 
HETATM   11  C4  UNL     1     183.104 126.939  29.418  1.00  0.00     0.028 A 
HETATM   12  C15 UNL     1     183.053 127.353  30.720  1.00  0.00     0.029 A 
HETATM   13  C14 UNL     1     183.298 126.526  31.794  1.00  0.00     0.009 A 
BRANCH  11  14
HETATM   14  N2  UNL     1     182.831 127.808  28.331  1.00  0.00    -0.388 N 
ATOM     15  H2  UNL     1     182.617 128.785  28.533  1.00  0.00     0.159 HD
BRANCH  14  16
HETATM   16  C3  UNL     1     182.842 127.382  26.964  1.00  0.00     0.150 C 
BRANCH  16  17
HETATM   17  C2  UNL     1     184.190 127.437  26.336  1.00  0.00     0.292 C 
BRANCH  17  18
HETATM   18  N1  UNL     1     184.968 128.601  26.786  1.00  0.00     0.092 N 
HETATM   19  C1  UNL     1     184.888 129.578  25.719  1.00  0.00     0.310 C 
BRANCH  18  20
HETATM   20  C16 UNL     1     186.316 128.136  27.008  1.00  0.00     0.348 C 
BRANCH  20  21
HETATM   21  C17 UNL     1     186.534 127.636  28.379  1.00  0.00     0.111 A 
HETATM   22  N4  UNL     1     186.883 126.414  28.813  1.00  0.00    -0.343 N 
HETATM   23  C18 UNL     1     186.965 126.417  30.136  1.00  0.00     0.062 A 
ATOM     24  H4  UNL     1     187.059 125.607  28.215  1.00  0.00     0.167 HD
HETATM   25  C19 UNL     1     187.271 125.493  31.124  1.00  0.00     0.058 A 
HETATM   26  C23 UNL     1     186.657 127.690  30.555  1.00  0.00     0.060 A 
HETATM   27  C20 UNL     1     187.269 125.820  32.463  1.00  0.00     0.048 A 
HETATM   28  N5  UNL     1     187.583 124.873  33.478  1.00  0.00    -0.102 NA
HETATM   29  C21 UNL     1     186.957 127.100  32.866  1.00  0.00     0.029 A 
HETATM   30  C22 UNL     1     186.645 128.054  31.897  1.00  0.00     0.034 A 
HETATM   31  N6  UNL     1     186.399 128.410  29.471  1.00  0.00    -0.343 N 
ATOM     32  H6  UNL     1     186.138 129.396  29.466  1.00  0.00     0.167 HD
ENDBRANCH  20  21
ENDBRANCH  18  20
ENDBRANCH  17  18
ENDBRANCH  16  17
ENDBRANCH  14  16
ENDBRANCH  11  14
ENDBRANCH   7   8
ENDBRANCH   6   7
ENDBRANCH   5   6
ENDBRANCH   4   5
ENDBRANCH   1   4
TORSDOF 11
ENDMDL
MODEL 3
REMARK VINA RESULT: -7.103101332      1.807      2.681
REMARK  11 active torsions:
REMARK  status: ('A' for Active; 'I' for Inactive)
REMARK    1  A    between atoms: N1_2  and  C2_3 
REMARK    2  A    between atoms: N1_2  and  C16_20 
REMARK    3  A    between atoms: C2_3  and  C3_4 
REMARK    4  A    between atoms: C3_4  and  N2_5 
REMARK    5  A    between atoms: N2_5  and  C4_7 
REMARK    6  A    between atoms: C7_10  and  C8_11 
REMARK    7  A    between atoms: C8_11  and  C9_12 
REMARK    8  A    between atoms: C9_12  and  C10_13 
REMARK    9  A    between atoms: C10_13  and  C11_14 
REMARK   10  A    between atoms: C11_14  and  C12_15 
REMARK   11  A    between atoms: C16_20  and  C17_21 
ROOT
HETATM    1  C12 UNL     1     183.107 120.866  30.678  1.00  0.00     0.124 C 
HETATM    2  C13 UNL     1     183.191 121.460  29.298  1.00  0.00     0.059 C 
HETATM    3  N3  UNL     1     183.268 121.929  28.246  1.00  0.00    -0.197 NA
ENDROOT
BRANCH   1   4
HETATM    4  C11 UNL     1     184.122 121.541  31.489  1.00  0.00     0.014 C 
BRANCH   4   5
HETATM    5  C10 UNL     1     183.802 122.630  32.413  1.00  0.00     0.001 C 
BRANCH   5   6
HETATM    6  C9  UNL     1     184.428 123.952  32.295  1.00  0.00     0.005 C 
BRANCH   6   7
HETATM    7  C8  UNL     1     183.656 125.176  32.554  1.00  0.00     0.038 C 
BRANCH   7   8
HETATM    8  C7  UNL     1     183.410 125.978  31.320  1.00  0.00    -0.058 A 
HETATM    9  C6  UNL     1     183.058 127.293  31.258  1.00  0.00     0.009 A 
HETATM   10  C5  UNL     1     182.865 127.968  30.065  1.00  0.00     0.029 A 
HETATM   11  C4  UNL     1     183.032 127.295  28.856  1.00  0.00     0.028 A 
HETATM   12  C15 UNL     1     183.385 125.976  28.929  1.00  0.00     0.029 A 
HETATM   13  C14 UNL     1     183.578 125.302  30.115  1.00  0.00     0.009 A 
BRANCH  11  14
HETATM   14  N2  UNL     1     182.856 127.969  27.621  1.00  0.00    -0.388 N 
ATOM     15  H2  UNL     1     182.017 127.770  27.075  1.00  0.00     0.159 HD
BRANCH  14  16
HETATM   16  C3  UNL     1     183.798 128.914  27.102  1.00  0.00     0.150 C 
BRANCH  16  17
HETATM   17  C2  UNL     1     184.983 128.281  26.462  1.00  0.00     0.292 C 
BRANCH  17  18
HETATM   18  N1  UNL     1     186.250 128.783  27.017  1.00  0.00     0.092 N 
HETATM   19  C1  UNL     1     187.144 128.957  25.890  1.00  0.00     0.310 C 
BRANCH  18  20
HETATM   20  C16 UNL     1     186.719 127.782  27.944  1.00  0.00     0.348 C 
BRANCH  20  21
HETATM   21  C17 UNL     1     186.551 128.180  29.355  1.00  0.00     0.111 A 
HETATM   22  N4  UNL     1     186.214 129.365  29.889  1.00  0.00    -0.343 N 
HETATM   23  C18 UNL     1     186.181 129.266  31.210  1.00  0.00     0.062 A 
ATOM     24  H4  UNL     1     186.015 130.213  29.358  1.00  0.00     0.167 HD
HETATM   25  C19 UNL     1     185.910 130.115  32.273  1.00  0.00     0.058 A 
HETATM   26  C23 UNL     1     186.509 127.968  31.525  1.00  0.00     0.060 A 
HETATM   27  C20 UNL     1     185.962 129.691  33.584  1.00  0.00     0.048 A 
HETATM   28  N5  UNL     1     185.684 130.561  34.676  1.00  0.00    -0.102 NA
HETATM   29  C21 UNL     1     186.292 128.387  33.881  1.00  0.00     0.029 A 
HETATM   30  C22 UNL     1     186.571 127.508  32.836  1.00  0.00     0.034 A 
HETATM   31  N6  UNL     1     186.728 127.329  30.382  1.00  0.00    -0.343 N 
ATOM     32  H6  UNL     1     186.991 126.348  30.297  1.00  0.00     0.167 HD
ENDBRANCH  20  21
ENDBRANCH  18  20
ENDBRANCH  17  18
ENDBRANCH  16  17
ENDBRANCH  14  16
ENDBRANCH  11  14
ENDBRANCH   7   8
ENDBRANCH   6   7
ENDBRANCH   5   6
ENDBRANCH   4   5
ENDBRANCH   1   4
TORSDOF 11
ENDMDL
MODEL 4
REMARK VINA RESULT: -6.976935874      1.324      1.812
REMARK  11 active torsions:
REMARK  status: ('A' for Active; 'I' for Inactive)
REMARK    1  A    between atoms: N1_2  and  C2_3 
REMARK    2  A    between atoms: N1_2  and  C16_20 
REMARK    3  A    between atoms: C2_3  and  C3_4 
REMARK    4  A    between atoms: C3_4  and  N2_5 
REMARK    5  A    between atoms: N2_5  and  C4_7 
REMARK    6  A    between atoms: C7_10  and  C8_11 
REMARK    7  A    between atoms: C8_11  and  C9_12 
REMARK    8  A    between atoms: C9_12  and  C10_13 
REMARK    9  A    between atoms: C10_13  and  C11_14 
REMARK   10  A    between atoms: C11_14  and  C12_15 
REMARK   11  A    between atoms: C16_20  and  C17_21 
ROOT
HETATM    1  C12 UNL     1     182.535 120.600  30.601  1.00  0.00     0.124 C 
HETATM    2  C13 UNL     1     182.045 119.998  31.891  1.00  0.00     0.059 C 
HETATM    3  N3  UNL     1     181.689 119.534  32.886  1.00  0.00    -0.197 NA
ENDROOT
BRANCH   1   4
HETATM    4  C11 UNL     1     183.982 120.771  30.739  1.00  0.00     0.014 C 
BRANCH   4   5
HETATM    5  C10 UNL     1     184.603 121.311  31.949  1.00  0.00     0.001 C 
BRANCH   5   6
HETATM    6  C9  UNL     1     185.046 122.707  32.034  1.00  0.00     0.005 C 
BRANCH   6   7
HETATM    7  C8  UNL     1     184.139 123.756  32.523  1.00  0.00     0.038 C 
BRANCH   7   8
HETATM    8  C7  UNL     1     183.812 124.772  31.480  1.00  0.00    -0.058 A 
HETATM    9  C6  UNL     1     183.865 124.602  30.129  1.00  0.00     0.009 A 
HETATM   10  C5  UNL     1     183.528 125.597  29.229  1.00  0.00     0.029 A 
HETATM   11  C4  UNL     1     183.110 126.842  29.699  1.00  0.00     0.028 A 
HETATM   12  C15 UNL     1     183.060 127.002  31.056  1.00  0.00     0.029 A 
HETATM   13  C14 UNL     1     183.396 126.013  31.954  1.00  0.00     0.009 A 
BRANCH  11  14
HETATM   14  N2  UNL     1     182.742 127.871  28.796  1.00  0.00    -0.388 N 
ATOM     15  H2  UNL     1     182.244 128.683  29.163  1.00  0.00     0.159 HD
BRANCH  14  16
HETATM   16  C3  UNL     1     183.035 127.828  27.396  1.00  0.00     0.150 C 
BRANCH  16  17
HETATM   17  C2  UNL     1     184.033 128.846  26.966  1.00  0.00     0.292 C 
BRANCH  17  18
HETATM   18  N1  UNL     1     184.859 129.322  28.086  1.00  0.00     0.092 N 
HETATM   19  C1  UNL     1     184.997 130.754  27.906  1.00  0.00     0.310 C 
BRANCH  18  20
HETATM   20  C16 UNL     1     186.122 128.630  27.990  1.00  0.00     0.348 C 
BRANCH  20  21
HETATM   21  C17 UNL     1     186.468 127.892  29.220  1.00  0.00     0.111 A 
HETATM   22  N4  UNL     1     186.966 126.655  29.379  1.00  0.00    -0.343 N 
HETATM   23  C18 UNL     1     187.122 126.400  30.671  1.00  0.00     0.062 A 
ATOM     24  H4  UNL     1     187.189 126.010  28.622  1.00  0.00     0.167 HD
HETATM   25  C19 UNL     1     187.577 125.335  31.435  1.00  0.00     0.058 A 
HETATM   26  C23 UNL     1     186.708 127.519  31.355  1.00  0.00     0.060 A 
HETATM   27  C20 UNL     1     187.618 125.384  32.812  1.00  0.00     0.048 A 
HETATM   28  N5  UNL     1     188.085 124.292  33.598  1.00  0.00    -0.102 NA
HETATM   29  C21 UNL     1     187.199 126.513  33.482  1.00  0.00     0.029 A 
HETATM   30  C22 UNL     1     186.736 127.601  32.743  1.00  0.00     0.034 A 
HETATM   31  N6  UNL     1     186.316 128.409  30.453  1.00  0.00    -0.343 N 
ATOM     32  H6  UNL     1     185.956 129.340  30.661  1.00  0.00     0.167 HD
ENDBRANCH  20  21
ENDBRANCH  18  20
ENDBRANCH  17  18
ENDBRANCH  16  17
ENDBRANCH  14  16
ENDBRANCH  11  14
ENDBRANCH   7   8
ENDBRANCH   6   7
ENDBRANCH   5   6
ENDBRANCH   4   5
ENDBRANCH   1   4
TORSDOF 11
ENDMDL
MODEL 5
REMARK VINA RESULT: -6.893906741      2.108      6.071
REMARK  11 active torsions:
REMARK  status: ('A' for Active; 'I' for Inactive)
REMARK    1  A    between atoms: N1_2  and  C2_3 
REMARK    2  A    between atoms: N1_2  and  C16_20 
REMARK    3  A    between atoms: C2_3  and  C3_4 
REMARK    4  A    between atoms: C3_4  and  N2_5 
REMARK    5  A    between atoms: N2_5  and  C4_7 
REMARK    6  A    between atoms: C7_10  and  C8_11 
REMARK    7  A    between atoms: C8_11  and  C9_12 
REMARK    8  A    between atoms: C9_12  and  C10_13 
REMARK    9  A    between atoms: C10_13  and  C11_14 
REMARK   10  A    between atoms: C11_14  and  C12_15 
REMARK   11  A    between atoms: C16_20  and  C17_21 
ROOT
HETATM    1  C12 UNL     1     184.252 127.054  27.159  1.00  0.00     0.124 C 
HETATM    2  C13 UNL     1     185.044 127.416  25.932  1.00  0.00     0.059 C 
HETATM    3  N3  UNL     1     185.653 127.712  24.997  1.00  0.00    -0.197 NA
ENDROOT
BRANCH   1   4
HETATM    4  C11 UNL     1     184.232 128.243  28.013  1.00  0.00     0.014 C 
BRANCH   4   5
HETATM    5  C10 UNL     1     183.785 128.210  29.406  1.00  0.00     0.001 C 
BRANCH   5   6
HETATM    6  C9  UNL     1     183.048 127.066  29.954  1.00  0.00     0.005 C 
BRANCH   6   7
HETATM    7  C8  UNL     1     183.245 126.642  31.348  1.00  0.00     0.038 C 
BRANCH   7   8
HETATM    8  C7  UNL     1     183.679 125.219  31.465  1.00  0.00    -0.058 A 
HETATM    9  C6  UNL     1     183.816 124.498  32.613  1.00  0.00     0.009 A 
HETATM   10  C5  UNL     1     184.210 123.172  32.630  1.00  0.00     0.029 A 
HETATM   11  C4  UNL     1     184.486 122.518  31.430  1.00  0.00     0.028 A 
HETATM   12  C15 UNL     1     184.347 123.249  30.283  1.00  0.00     0.029 A 
HETATM   13  C14 UNL     1     183.955 124.570  30.264  1.00  0.00     0.009 A 
BRANCH  11  14
HETATM   14  N2  UNL     1     184.875 121.154  31.420  1.00  0.00    -0.388 N 
ATOM     15  H2  UNL     1     184.504 120.549  30.687  1.00  0.00     0.159 HD
BRANCH  14  16
HETATM   16  C3  UNL     1     185.763 120.585  32.388  1.00  0.00     0.150 C 
BRANCH  16  17
HETATM   17  C2  UNL     1     187.004 120.017  31.793  1.00  0.00     0.292 C 
BRANCH  17  18
HETATM   18  N1  UNL     1     187.974 121.061  31.426  1.00  0.00     0.092 N 
HETATM   19  C1  UNL     1     189.152 120.367  30.947  1.00  0.00     0.310 C 
BRANCH  18  20
HETATM   20  C16 UNL     1     188.232 121.823  32.624  1.00  0.00     0.348 C 
BRANCH  20  21
HETATM   21  C17 UNL     1     187.885 123.250  32.484  1.00  0.00     0.111 A 
HETATM   22  N4  UNL     1     187.614 124.174  33.420  1.00  0.00    -0.343 N 
HETATM   23  C18 UNL     1     187.352 125.336  32.837  1.00  0.00     0.062 A 
ATOM     24  H4  UNL     1     187.611 124.007  34.426  1.00  0.00     0.167 HD
HETATM   25  C19 UNL     1     187.015 126.615  33.256  1.00  0.00     0.058 A 
HETATM   26  C23 UNL     1     187.461 125.139  31.481  1.00  0.00     0.060 A 
HETATM   27  C20 UNL     1     186.800 127.646  32.368  1.00  0.00     0.048 A 
HETATM   28  N5  UNL     1     186.455 128.959  32.796  1.00  0.00    -0.102 NA
HETATM   29  C21 UNL     1     186.914 127.432  31.012  1.00  0.00     0.029 A 
HETATM   30  C22 UNL     1     187.250 126.157  30.557  1.00  0.00     0.034 A 
HETATM   31  N6  UNL     1     187.785 123.866  31.292  1.00  0.00    -0.343 N 
ATOM     32  H6  UNL     1     187.935 123.424  30.386  1.00  0.00     0.167 HD
ENDBRANCH  20  21
ENDBRANCH  18  20
ENDBRANCH  17  18
ENDBRANCH  16  17
ENDBRANCH  14  16
ENDBRANCH  11  14
ENDBRANCH   7   8
ENDBRANCH   6   7
ENDBRANCH   5   6
ENDBRANCH   4   5
ENDBRANCH   1   4
TORSDOF 11
ENDMDL
