MODEL 1
REMARK VINA RESULT: -7.975891761      0.000      0.000
REMARK  11 active torsions:
REMARK  status: ('A' for Active; 'I' for Inactive)
REMARK    1  A    between atoms: C2_2  and  N1_3 
REMARK    2  A    between atoms: C2_2  and  C12_26 
REMARK       I    between atoms: N1_3  and  C3_5 
REMARK    3  A    between atoms: C3_5  and  C4_7 
REMARK    4  A    between atoms: C4_7  and  N2_8 
REMARK    5  A    between atoms: C4_7  and  C11_23 
REMARK       I    between atoms: N2_8  and  C5_10 
REMARK    6  A    between atoms: C5_10  and  C6_12 
REMARK    7  A    between atoms: C6_12  and  C7_13 
REMARK    8  A    between atoms: C6_12  and  C9_19 
REMARK    9  A    between atoms: C7_13  and  N3_14 
REMARK       I    between atoms: N3_14  and  C8_16 
REMARK   10  A    between atoms: C9_19  and  C10_20 
REMARK   11  A    between atoms: C17_31  and  C18_32 
ROOT
HETATM    1  C4  UNL     1      16.212 -12.261  20.409  1.00  0.00     0.266 C 
ENDROOT
BRANCH   1   2
HETATM    2  C3  UNL     1      17.408 -12.717  21.146  1.00  0.00     0.249 C 
HETATM    3  N1  UNL     1      17.506 -13.956  21.849  1.00  0.00    -0.354 N 
ATOM      4  H1  UNL     1      16.700 -14.581  21.848  1.00  0.00     0.162 HD
HETATM    5  O1  UNL     1      18.412 -11.920  21.133  1.00  0.00    -0.271 OA
BRANCH   3   6
HETATM    6  C2  UNL     1      18.690 -14.361  22.558  1.00  0.00     0.085 C 
HETATM    7  C1  UNL     1      19.597 -15.243  21.714  1.00  0.00     0.032 C 
BRANCH   6   8
HETATM    8  C12 UNL     1      18.405 -15.041  23.887  1.00  0.00     0.017 C 
HETATM    9  C13 UNL     1      19.290 -14.442  24.906  1.00  0.00     0.007 C 
HETATM   10  C14 UNL     1      19.615 -15.267  26.099  1.00  0.00     0.000 C 
HETATM   11  C15 UNL     1      19.921 -16.714  25.739  1.00  0.00     0.001 C 
HETATM   12  C16 UNL     1      18.703 -17.237  25.061  1.00  0.00     0.010 C 
HETATM   13  C17 UNL     1      18.418 -16.523  23.750  1.00  0.00     0.057 C 
BRANCH  13  14
HETATM   14  C18 UNL     1      17.056 -17.094  23.328  1.00  0.00     0.357 C 
HETATM   15  F3  UNL     1      17.152 -17.589  22.063  1.00  0.00    -0.214 F 
HETATM   16  F4  UNL     1      16.487 -17.911  24.239  1.00  0.00    -0.214 F 
ENDBRANCH  13  14
ENDBRANCH   6   8
ENDBRANCH   3   6
ENDBRANCH   1   2
BRANCH   1  17
HETATM   17  N2  UNL     1      15.012 -12.597  21.171  1.00  0.00    -0.340 N 
HETATM   18  C5  UNL     1      13.762 -12.016  20.924  1.00  0.00     0.224 C 
HETATM   19  O2  UNL     1      13.610 -11.172  20.028  1.00  0.00    -0.273 OA
ATOM     20  H2  UNL     1      15.088 -13.287  21.919  1.00  0.00     0.163 HD
BRANCH  18  21
HETATM   21  C6  UNL     1      12.539 -12.391  21.740  1.00  0.00     0.101 C 
BRANCH  21  22
HETATM   22  C7  UNL     1      12.997 -13.297  22.842  1.00  0.00     0.138 C 
BRANCH  22  23
HETATM   23  N3  UNL     1      12.542 -14.675  22.603  1.00  0.00    -0.344 N 
HETATM   24  C8  UNL     1      13.369 -15.662  22.026  1.00  0.00     0.328 C 
HETATM   25  N4  UNL     1      12.860 -16.960  21.829  1.00  0.00    -0.040 NA
HETATM   26  O3  UNL     1      14.554 -15.411  21.682  1.00  0.00    -0.251 OA
ATOM     27  H3  UNL     1      11.589 -14.927  22.864  1.00  0.00     0.163 HD
ENDBRANCH  22  23
ENDBRANCH  21  22
BRANCH  21  28
HETATM   28  C9  UNL     1      11.835 -11.154  22.160  1.00  0.00     0.086 C 
BRANCH  28  29
HETATM   29  C10 UNL     1      12.137 -10.718  23.539  1.00  0.00     0.354 C 
HETATM   30  F1  UNL     1      12.923  -9.625  23.702  1.00  0.00    -0.214 F 
HETATM   31  F2  UNL     1      10.931 -10.424  24.209  1.00  0.00    -0.214 F 
ENDBRANCH  28  29
ENDBRANCH  21  28
ENDBRANCH  18  21
ENDBRANCH   1  17
BRANCH   1  32
HETATM   32  C11 UNL     1      16.113 -12.804  19.031  1.00  0.00     0.263 C 
HETATM   33  N5  UNL     1      16.157 -11.965  17.895  1.00  0.00    -0.060 NA
HETATM   34  O4  UNL     1      15.984 -14.038  18.887  1.00  0.00    -0.274 OA
ENDBRANCH   1  32
TORSDOF 11
ENDMDL
MODEL 2
REMARK VINA RESULT: -7.830857791      1.291      1.957
REMARK  11 active torsions:
REMARK  status: ('A' for Active; 'I' for Inactive)
REMARK    1  A    between atoms: C2_2  and  N1_3 
REMARK    2  A    between atoms: C2_2  and  C12_26 
REMARK       I    between atoms: N1_3  and  C3_5 
REMARK    3  A    between atoms: C3_5  and  C4_7 
REMARK    4  A    between atoms: C4_7  and  N2_8 
REMARK    5  A    between atoms: C4_7  and  C11_23 
REMARK       I    between atoms: N2_8  and  C5_10 
REMARK    6  A    between atoms: C5_10  and  C6_12 
REMARK    7  A    between atoms: C6_12  and  C7_13 
REMARK    8  A    between atoms: C6_12  and  C9_19 
REMARK    9  A    between atoms: C7_13  and  N3_14 
REMARK       I    between atoms: N3_14  and  C8_16 
REMARK   10  A    between atoms: C9_19  and  C10_20 
REMARK   11  A    between atoms: C17_31  and  C18_32 
ROOT
HETATM    1  C4  UNL     1      16.189 -12.272  20.277  1.00  0.00     0.266 C 
ENDROOT
BRANCH   1   2
HETATM    2  C3  UNL     1      17.404 -12.726  20.981  1.00  0.00     0.249 C 
HETATM    3  N1  UNL     1      17.696 -14.086  21.302  1.00  0.00    -0.354 N 
ATOM      4  H1  UNL     1      17.027 -14.805  21.030  1.00  0.00     0.162 HD
HETATM    5  O1  UNL     1      18.236 -11.808  21.313  1.00  0.00    -0.271 OA
BRANCH   3   6
HETATM    6  C2  UNL     1      18.893 -14.486  21.994  1.00  0.00     0.085 C 
HETATM    7  C1  UNL     1      20.113 -14.490  21.085  1.00  0.00     0.032 C 
BRANCH   6   8
HETATM    8  C12 UNL     1      18.772 -15.827  22.699  1.00  0.00     0.017 C 
HETATM    9  C13 UNL     1      18.201 -16.796  21.742  1.00  0.00     0.007 C 
HETATM   10  C14 UNL     1      17.478 -17.966  22.305  1.00  0.00     0.000 C 
HETATM   11  C15 UNL     1      16.571 -17.586  23.467  1.00  0.00     0.001 C 
HETATM   12  C16 UNL     1      17.455 -16.976  24.498  1.00  0.00     0.010 C 
HETATM   13  C17 UNL     1      18.099 -15.685  24.019  1.00  0.00     0.057 C 
BRANCH  13  14
HETATM   14  C18 UNL     1      19.076 -15.339  25.152  1.00  0.00     0.357 C 
HETATM   15  F3  UNL     1      19.419 -14.024  25.061  1.00  0.00    -0.214 F 
HETATM   16  F4  UNL     1      18.689 -15.764  26.373  1.00  0.00    -0.214 F 
ENDBRANCH  13  14
ENDBRANCH   6   8
ENDBRANCH   3   6
ENDBRANCH   1   2
BRANCH   1  17
HETATM   17  N2  UNL     1      15.011 -12.601  21.075  1.00  0.00    -0.340 N 
HETATM   18  C5  UNL     1      13.754 -12.021  20.859  1.00  0.00     0.224 C 
HETATM   19  O2  UNL     1      13.577 -11.183  19.962  1.00  0.00    -0.273 OA
ATOM     20  H2  UNL     1      15.107 -13.286  21.825  1.00  0.00     0.163 HD
BRANCH  18  21
HETATM   21  C6  UNL     1      12.555 -12.389  21.712  1.00  0.00     0.101 C 
BRANCH  21  22
HETATM   22  C7  UNL     1      13.045 -13.278  22.814  1.00  0.00     0.138 C 
BRANCH  22  23
HETATM   23  N3  UNL     1      12.607 -14.665  22.595  1.00  0.00    -0.344 N 
HETATM   24  C8  UNL     1      13.445 -15.650  22.033  1.00  0.00     0.328 C 
HETATM   25  N4  UNL     1      12.953 -16.956  21.855  1.00  0.00    -0.040 NA
HETATM   26  O3  UNL     1      14.628 -15.389  21.685  1.00  0.00    -0.251 OA
ATOM     27  H3  UNL     1      11.657 -14.924  22.861  1.00  0.00     0.163 HD
ENDBRANCH  22  23
ENDBRANCH  21  22
BRANCH  21  28
HETATM   28  C9  UNL     1      11.857 -11.150  22.133  1.00  0.00     0.086 C 
BRANCH  28  29
HETATM   29  C10 UNL     1      12.108 -10.753  23.534  1.00  0.00     0.354 C 
HETATM   30  F1  UNL     1      12.853  -9.642  23.756  1.00  0.00    -0.214 F 
HETATM   31  F2  UNL     1      10.875 -10.521  24.181  1.00  0.00    -0.214 F 
ENDBRANCH  28  29
ENDBRANCH  21  28
ENDBRANCH  18  21
ENDBRANCH   1  17
BRANCH   1  32
HETATM   32  C11 UNL     1      16.048 -12.821  18.904  1.00  0.00     0.263 C 
HETATM   33  N5  UNL     1      16.134 -11.997  17.760  1.00  0.00    -0.060 NA
HETATM   34  O4  UNL     1      15.846 -14.047  18.775  1.00  0.00    -0.274 OA
ENDBRANCH   1  32
TORSDOF 11
ENDMDL
MODEL 3
REMARK VINA RESULT: -7.729600283      2.317      3.086
REMARK  11 active torsions:
REMARK  status: ('A' for Active; 'I' for Inactive)
REMARK    1  A    between atoms: C2_2  and  N1_3 
REMARK    2  A    between atoms: C2_2  and  C12_26 
REMARK       I    between atoms: N1_3  and  C3_5 
REMARK    3  A    between atoms: C3_5  and  C4_7 
REMARK    4  A    between atoms: C4_7  and  N2_8 
REMARK    5  A    between atoms: C4_7  and  C11_23 
REMARK       I    between atoms: N2_8  and  C5_10 
REMARK    6  A    between atoms: C5_10  and  C6_12 
REMARK    7  A    between atoms: C6_12  and  C7_13 
REMARK    8  A    between atoms: C6_12  and  C9_19 
REMARK    9  A    between atoms: C7_13  and  N3_14 
REMARK       I    between atoms: N3_14  and  C8_16 
REMARK   10  A    between atoms: C9_19  and  C10_20 
REMARK   11  A    between atoms: C17_31  and  C18_32 
ROOT
HETATM    1  C4  UNL     1      16.567 -12.491  20.670  1.00  0.00     0.266 C 
ENDROOT
BRANCH   1   2
HETATM    2  C3  UNL     1      17.826 -12.971  21.273  1.00  0.00     0.249 C 
HETATM    3  N1  UNL     1      17.908 -13.938  22.319  1.00  0.00    -0.354 N 
ATOM      4  H1  UNL     1      17.043 -14.335  22.684  1.00  0.00     0.162 HD
HETATM    5  O1  UNL     1      18.904 -12.463  20.799  1.00  0.00    -0.271 OA
BRANCH   3   6
HETATM    6  C2  UNL     1      19.158 -14.377  22.882  1.00  0.00     0.085 C 
HETATM    7  C1  UNL     1      19.797 -15.494  22.071  1.00  0.00     0.032 C 
BRANCH   6   8
HETATM    8  C12 UNL     1      19.059 -14.793  24.341  1.00  0.00     0.017 C 
HETATM    9  C13 UNL     1      20.079 -14.041  25.100  1.00  0.00     0.007 C 
HETATM   10  C14 UNL     1      20.565 -14.642  26.369  1.00  0.00     0.000 C 
HETATM   11  C15 UNL     1      20.815 -16.138  26.247  1.00  0.00     0.001 C 
HETATM   12  C16 UNL     1      19.514 -16.743  25.851  1.00  0.00     0.010 C 
HETATM   13  C17 UNL     1      19.051 -16.274  24.481  1.00  0.00     0.057 C 
BRANCH  13  14
HETATM   14  C18 UNL     1      17.642 -16.876  24.362  1.00  0.00     0.357 C 
HETATM   15  F3  UNL     1      17.614 -17.745  23.314  1.00  0.00    -0.214 F 
HETATM   16  F4  UNL     1      17.133 -17.337  25.524  1.00  0.00    -0.214 F 
ENDBRANCH  13  14
ENDBRANCH   6   8
ENDBRANCH   3   6
ENDBRANCH   1   2
BRANCH   1  17
HETATM   17  N2  UNL     1      15.437 -12.931  21.483  1.00  0.00    -0.340 N 
HETATM   18  C5  UNL     1      14.273 -12.170  21.652  1.00  0.00     0.224 C 
HETATM   19  O2  UNL     1      14.144 -11.063  21.108  1.00  0.00    -0.273 OA
ATOM     20  H2  UNL     1      15.498 -13.836  21.952  1.00  0.00     0.163 HD
BRANCH  18  21
HETATM   21  C6  UNL     1      13.122 -12.663  22.508  1.00  0.00     0.101 C 
BRANCH  21  22
HETATM   22  C7  UNL     1      11.930 -11.813  22.188  1.00  0.00     0.138 C 
BRANCH  22  23
HETATM   23  N3  UNL     1      12.026 -10.510  22.863  1.00  0.00    -0.344 N 
HETATM   24  C8  UNL     1      11.678 -10.326  24.218  1.00  0.00     0.328 C 
HETATM   25  N4  UNL     1      11.797  -9.047  24.793  1.00  0.00    -0.040 NA
HETATM   26  O3  UNL     1      11.262 -11.280  24.928  1.00  0.00    -0.251 OA
ATOM     27  H3  UNL     1      12.357  -9.706  22.330  1.00  0.00     0.163 HD
ENDBRANCH  22  23
ENDBRANCH  21  22
BRANCH  21  28
HETATM   28  C9  UNL     1      12.956 -14.123  22.309  1.00  0.00     0.086 C 
BRANCH  28  29
HETATM   29  C10 UNL     1      12.332 -14.498  21.022  1.00  0.00     0.354 C 
HETATM   30  F1  UNL     1      13.061 -14.331  19.891  1.00  0.00    -0.214 F 
HETATM   31  F2  UNL     1      11.983 -15.865  21.054  1.00  0.00    -0.214 F 
ENDBRANCH  28  29
ENDBRANCH  21  28
ENDBRANCH  18  21
ENDBRANCH   1  17
BRANCH   1  32
HETATM   32  C11 UNL     1      16.377 -12.912  19.259  1.00  0.00     0.263 C 
HETATM   33  N5  UNL     1      16.396 -11.983  18.195  1.00  0.00    -0.060 NA
HETATM   34  O4  UNL     1      16.195 -14.125  19.022  1.00  0.00    -0.274 OA
ENDBRANCH   1  32
TORSDOF 11
ENDMDL
MODEL 4
REMARK VINA RESULT: -7.718206589      2.722      3.668
REMARK  11 active torsions:
REMARK  status: ('A' for Active; 'I' for Inactive)
REMARK    1  A    between atoms: C2_2  and  N1_3 
REMARK    2  A    between atoms: C2_2  and  C12_26 
REMARK       I    between atoms: N1_3  and  C3_5 
REMARK    3  A    between atoms: C3_5  and  C4_7 
REMARK    4  A    between atoms: C4_7  and  N2_8 
REMARK    5  A    between atoms: C4_7  and  C11_23 
REMARK       I    between atoms: N2_8  and  C5_10 
REMARK    6  A    between atoms: C5_10  and  C6_12 
REMARK    7  A    between atoms: C6_12  and  C7_13 
REMARK    8  A    between atoms: C6_12  and  C9_19 
REMARK    9  A    between atoms: C7_13  and  N3_14 
REMARK       I    between atoms: N3_14  and  C8_16 
REMARK   10  A    between atoms: C9_19  and  C10_20 
REMARK   11  A    between atoms: C17_31  and  C18_32 
ROOT
HETATM    1  C4  UNL     1      16.395 -12.316  20.605  1.00  0.00     0.266 C 
ENDROOT
BRANCH   1   2
HETATM    2  C3  UNL     1      17.718 -12.653  21.166  1.00  0.00     0.249 C 
HETATM    3  N1  UNL     1      18.053 -13.906  21.761  1.00  0.00    -0.354 N 
ATOM      4  H1  UNL     1      17.336 -14.631  21.806  1.00  0.00     0.162 HD
HETATM    5  O1  UNL     1      18.607 -11.731  21.099  1.00  0.00    -0.271 OA
BRANCH   3   6
HETATM    6  C2  UNL     1      19.356 -14.192  22.301  1.00  0.00     0.085 C 
HETATM    7  C1  UNL     1      20.373 -14.514  21.217  1.00  0.00     0.032 C 
BRANCH   6   8
HETATM    8  C12 UNL     1      19.356 -15.293  23.349  1.00  0.00     0.017 C 
HETATM    9  C13 UNL     1      18.636 -16.455  22.790  1.00  0.00     0.007 C 
HETATM   10  C14 UNL     1      18.018 -17.403  23.753  1.00  0.00     0.000 C 
HETATM   11  C15 UNL     1      17.315 -16.691  24.901  1.00  0.00     0.001 C 
HETATM   12  C16 UNL     1      18.356 -15.869  25.576  1.00  0.00     0.010 C 
HETATM   13  C17 UNL     1      18.909 -14.779  24.672  1.00  0.00     0.057 C 
BRANCH  13  14
HETATM   14  C18 UNL     1      20.060 -14.188  25.501  1.00  0.00     0.357 C 
HETATM   15  F3  UNL     1      19.883 -14.516  26.811  1.00  0.00    -0.214 F 
HETATM   16  F4  UNL     1      21.289 -14.422  24.995  1.00  0.00    -0.214 F 
ENDBRANCH  13  14
ENDBRANCH   6   8
ENDBRANCH   3   6
ENDBRANCH   1   2
BRANCH   1  17
HETATM   17  N2  UNL     1      15.347 -12.827  21.485  1.00  0.00    -0.340 N 
HETATM   18  C5  UNL     1      14.099 -12.207  21.629  1.00  0.00     0.224 C 
HETATM   19  O2  UNL     1      13.818 -11.173  21.004  1.00  0.00    -0.273 OA
ATOM     20  H2  UNL     1      15.532 -13.675  22.020  1.00  0.00     0.163 HD
BRANCH  18  21
HETATM   21  C6  UNL     1      13.038 -12.768  22.556  1.00  0.00     0.101 C 
BRANCH  21  22
HETATM   22  C7  UNL     1      11.777 -11.998  22.311  1.00  0.00     0.138 C 
BRANCH  22  23
HETATM   23  N3  UNL     1      11.851 -10.669  22.938  1.00  0.00    -0.344 N 
HETATM   24  C8  UNL     1      11.580 -10.456  24.306  1.00  0.00     0.328 C 
HETATM   25  N4  UNL     1      11.672  -9.154  24.832  1.00  0.00    -0.040 NA
HETATM   26  O3  UNL     1      11.257 -11.404  25.070  1.00  0.00    -0.251 OA
ATOM     27  H3  UNL     1      12.108  -9.870  22.360  1.00  0.00     0.163 HD
ENDBRANCH  22  23
ENDBRANCH  21  22
BRANCH  21  28
HETATM   28  C9  UNL     1      12.954 -14.237  22.367  1.00  0.00     0.086 C 
BRANCH  28  29
HETATM   29  C10 UNL     1      12.320 -14.656  21.099  1.00  0.00     0.354 C 
HETATM   30  F1  UNL     1      13.043 -14.537  19.959  1.00  0.00    -0.214 F 
HETATM   31  F2  UNL     1      11.962 -16.018  21.185  1.00  0.00    -0.214 F 
ENDBRANCH  28  29
ENDBRANCH  21  28
ENDBRANCH  18  21
ENDBRANCH   1  17
BRANCH   1  32
HETATM   32  C11 UNL     1      16.186 -12.809  19.220  1.00  0.00     0.263 C 
HETATM   33  N5  UNL     1      16.044 -11.925  18.128  1.00  0.00    -0.060 NA
HETATM   34  O4  UNL     1      16.135 -14.043  19.032  1.00  0.00    -0.274 OA
ENDBRANCH   1  32
TORSDOF 11
ENDMDL
MODEL 5
REMARK VINA RESULT: -7.615731014      2.053      2.464
REMARK  11 active torsions:
REMARK  status: ('A' for Active; 'I' for Inactive)
REMARK    1  A    between atoms: C2_2  and  N1_3 
REMARK    2  A    between atoms: C2_2  and  C12_26 
REMARK       I    between atoms: N1_3  and  C3_5 
REMARK    3  A    between atoms: C3_5  and  C4_7 
REMARK    4  A    between atoms: C4_7  and  N2_8 
REMARK    5  A    between atoms: C4_7  and  C11_23 
REMARK       I    between atoms: N2_8  and  C5_10 
REMARK    6  A    between atoms: C5_10  and  C6_12 
REMARK    7  A    between atoms: C6_12  and  C7_13 
REMARK    8  A    between atoms: C6_12  and  C9_19 
REMARK    9  A    between atoms: C7_13  and  N3_14 
REMARK       I    between atoms: N3_14  and  C8_16 
REMARK   10  A    between atoms: C9_19  and  C10_20 
REMARK   11  A    between atoms: C17_31  and  C18_32 
ROOT
HETATM    1  C4  UNL     1      15.403 -13.013  18.829  1.00  0.00     0.266 C 
ENDROOT
BRANCH   1   2
HETATM    2  C3  UNL     1      16.596 -12.839  19.681  1.00  0.00     0.249 C 
HETATM    3  N1  UNL     1      17.594 -13.837  19.895  1.00  0.00    -0.354 N 
ATOM      4  H1  UNL     1      17.488 -14.739  19.431  1.00  0.00     0.162 HD
HETATM    5  O1  UNL     1      16.714 -11.698  20.254  1.00  0.00    -0.271 OA
BRANCH   3   6
HETATM    6  C2  UNL     1      18.742 -13.626  20.738  1.00  0.00     0.085 C 
HETATM    7  C1  UNL     1      20.025 -13.468  19.937  1.00  0.00     0.032 C 
BRANCH   6   8
HETATM    8  C12 UNL     1      18.926 -14.699  21.798  1.00  0.00     0.017 C 
HETATM    9  C13 UNL     1      20.093 -15.521  21.418  1.00  0.00     0.007 C 
HETATM   10  C14 UNL     1      20.146 -16.912  21.937  1.00  0.00     0.000 C 
HETATM   11  C15 UNL     1      18.799 -17.616  21.855  1.00  0.00     0.001 C 
HETATM   12  C16 UNL     1      17.855 -16.796  22.663  1.00  0.00     0.010 C 
HETATM   13  C17 UNL     1      17.648 -15.408  22.078  1.00  0.00     0.057 C 
BRANCH  13  14
HETATM   14  C18 UNL     1      16.797 -14.702  23.145  1.00  0.00     0.357 C 
HETATM   15  F3  UNL     1      17.588 -14.371  24.202  1.00  0.00    -0.214 F 
HETATM   16  F4  UNL     1      16.009 -13.716  22.667  1.00  0.00    -0.214 F 
ENDBRANCH  13  14
ENDBRANCH   6   8
ENDBRANCH   3   6
ENDBRANCH   1   2
BRANCH   1  17
HETATM   17  N2  UNL     1      14.326 -13.612  19.614  1.00  0.00    -0.340 N 
HETATM   18  C5  UNL     1      13.421 -12.858  20.372  1.00  0.00     0.224 C 
HETATM   19  O2  UNL     1      13.491 -11.620  20.413  1.00  0.00    -0.273 OA
ATOM     20  H2  UNL     1      14.229 -14.628  19.611  1.00  0.00     0.163 HD
BRANCH  18  21
HETATM   21  C6  UNL     1      12.317 -13.518  21.175  1.00  0.00     0.101 C 
BRANCH  21  22
HETATM   22  C7  UNL     1      12.267 -14.959  20.767  1.00  0.00     0.138 C 
BRANCH  22  23
HETATM   23  N3  UNL     1      12.703 -15.826  21.872  1.00  0.00    -0.344 N 
HETATM   24  C8  UNL     1      13.869 -16.619  21.804  1.00  0.00     0.328 C 
HETATM   25  N4  UNL     1      14.221 -17.424  22.904  1.00  0.00    -0.040 NA
HETATM   26  O3  UNL     1      14.605 -16.624  20.782  1.00  0.00    -0.251 OA
ATOM     27  H3  UNL     1      12.140 -15.856  22.721  1.00  0.00     0.163 HD
ENDBRANCH  22  23
ENDBRANCH  21  22
BRANCH  21  28
HETATM   28  C9  UNL     1      12.540 -13.254  22.618  1.00  0.00     0.086 C 
BRANCH  28  29
HETATM   29  C10 UNL     1      11.460 -12.485  23.272  1.00  0.00     0.354 C 
HETATM   30  F1  UNL     1      11.523 -12.320  24.616  1.00  0.00    -0.214 F 
HETATM   31  F2  UNL     1      11.420 -11.184  22.728  1.00  0.00    -0.214 F 
ENDBRANCH  28  29
ENDBRANCH  21  28
ENDBRANCH  18  21
ENDBRANCH   1  17
BRANCH   1  32
HETATM   32  C11 UNL     1      15.650 -13.815  17.604  1.00  0.00     0.263 C 
HETATM   33  N5  UNL     1      16.087 -13.219  16.400  1.00  0.00    -0.060 NA
HETATM   34  O4  UNL     1      15.461 -15.049  17.655  1.00  0.00    -0.274 OA
ENDBRANCH   1  32
TORSDOF 11
ENDMDL
