MODEL 1
REMARK VINA RESULT: -5.532543361      0.000      0.000
REMARK  7 active torsions:
REMARK  status: ('A' for Active; 'I' for Inactive)
REMARK    1  A    between atoms: C4_8  and  C5_9 
REMARK    2  A    between atoms: C5_9  and  C6_10 
REMARK    3  A    between atoms: C6_10  and  N3_11 
REMARK    4  A    between atoms: C6_10  and  C7_15 
REMARK    5  A    between atoms: C7_15  and  N4_16 
REMARK    6  A    between atoms: N4_16  and  C8_18 
REMARK    7  A    between atoms: C8_18  and  N5_20 
ROOT
HETATM    1  C6  UNL     1      29.385   9.931  30.838  1.00  0.00     0.203 C 
ENDROOT
BRANCH   1   2
HETATM    2  C5  UNL     1      30.872  10.016  30.743  1.00  0.00     0.061 C 
BRANCH   2   3
HETATM    3  C4  UNL     1      31.551  10.733  31.860  1.00  0.00     0.110 C 
HETATM    4  C2  UNL     1      31.655  12.207  31.439  1.00  0.00     0.046 C 
HETATM    5  C1  UNL     1      31.625  13.129  32.612  1.00  0.00     0.018 C 
HETATM    6  C3  UNL     1      33.008  12.158  30.758  1.00  0.00     0.086 C 
HETATM    7  N1  UNL     1      33.650  11.112  31.447  1.00  0.00    -0.319 N 
HETATM    8  N2  UNL     1      32.913  10.340  32.040  1.00  0.00    -0.332 N 
ATOM      9  H1  UNL     1      34.665  11.005  31.451  1.00  0.00     0.185 HD
ATOM     10  H2  UNL     1      33.223   9.535  32.584  1.00  0.00     0.180 HD
ENDBRANCH   2   3
ENDBRANCH   1   2
BRANCH   1  11
HETATM   11  N3  UNL     1      29.056   9.755  32.253  1.00  0.00    -0.073 N 
ATOM     12  H33 UNL     1      29.751  10.161  32.880  1.00  0.00     0.274 HD
ATOM     13  H32 UNL     1      28.263  10.323  32.553  1.00  0.00     0.274 HD
ATOM     14  H31 UNL     1      28.913   8.757  32.405  1.00  0.00     0.274 HD
ENDBRANCH   1  11
BRANCH   1  15
HETATM   15  C7  UNL     1      28.875   8.801  30.010  1.00  0.00     0.154 C 
BRANCH  15  16
HETATM   16  N4  UNL     1      29.281   7.509  30.484  1.00  0.00    -0.364 N 
ATOM     17  H4  UNL     1      29.563   7.397  31.458  1.00  0.00     0.162 HD
BRANCH  16  18
HETATM   18  C8  UNL     1      29.298   6.391  29.624  1.00  0.00     0.186 C 
HETATM   19  S1  UNL     1      27.953   6.014  28.759  1.00  0.00    -0.040 SA
BRANCH  18  20
HETATM   20  N5  UNL     1      30.454   5.581  29.488  1.00  0.00    -0.279 N 
HETATM   21  N6  UNL     1      31.413   5.809  28.721  1.00  0.00    -0.334 N 
HETATM   22  C9  UNL     1      31.446   6.971  27.854  1.00  0.00     0.170 C 
HETATM   23  C10 UNL     1      32.523   4.898  28.687  1.00  0.00     0.170 C 
ATOM     24  H5  UNL     1      30.508   4.741  30.065  1.00  0.00     0.189 HD
ENDBRANCH  18  20
ENDBRANCH  16  18
ENDBRANCH  15  16
ENDBRANCH   1  15
TORSDOF 7
ENDMDL
MODEL 2
REMARK VINA RESULT: -5.405731176      1.012      1.139
REMARK  7 active torsions:
REMARK  status: ('A' for Active; 'I' for Inactive)
REMARK    1  A    between atoms: C4_8  and  C5_9 
REMARK    2  A    between atoms: C5_9  and  C6_10 
REMARK    3  A    between atoms: C6_10  and  N3_11 
REMARK    4  A    between atoms: C6_10  and  C7_15 
REMARK    5  A    between atoms: C7_15  and  N4_16 
REMARK    6  A    between atoms: N4_16  and  C8_18 
REMARK    7  A    between atoms: C8_18  and  N5_20 
ROOT
HETATM    1  C6  UNL     1      28.931  10.134  31.271  1.00  0.00     0.203 C 
ENDROOT
BRANCH   1   2
HETATM    2  C5  UNL     1      30.326  10.398  31.731  1.00  0.00     0.061 C 
BRANCH   2   3
HETATM    3  C4  UNL     1      30.762  11.822  31.687  1.00  0.00     0.110 C 
HETATM    4  C2  UNL     1      31.573  11.995  30.394  1.00  0.00     0.046 C 
HETATM    5  C1  UNL     1      31.467  13.381  29.847  1.00  0.00     0.018 C 
HETATM    6  C3  UNL     1      32.950  11.677  30.938  1.00  0.00     0.086 C 
HETATM    7  N1  UNL     1      32.837  12.072  32.284  1.00  0.00    -0.319 N 
HETATM    8  N2  UNL     1      31.697  12.159  32.714  1.00  0.00    -0.332 N 
ATOM      9  H1  UNL     1      33.652  12.272  32.863  1.00  0.00     0.185 HD
ATOM     10  H2  UNL     1      31.449  12.433  33.664  1.00  0.00     0.180 HD
ENDBRANCH   2   3
ENDBRANCH   1   2
BRANCH   1  11
HETATM   11  N3  UNL     1      28.178   9.665  32.435  1.00  0.00    -0.073 N 
ATOM     12  H33 UNL     1      28.626   8.886  32.915  1.00  0.00     0.274 HD
ATOM     13  H32 UNL     1      28.193  10.324  33.213  1.00  0.00     0.274 HD
ATOM     14  H31 UNL     1      27.234   9.448  32.113  1.00  0.00     0.274 HD
ENDBRANCH   1  11
BRANCH   1  15
HETATM   15  C7  UNL     1      28.927   9.128  30.172  1.00  0.00     0.154 C 
BRANCH  15  16
HETATM   16  N4  UNL     1      29.237   7.796  30.607  1.00  0.00    -0.364 N 
ATOM     17  H4  UNL     1      29.508   7.635  31.578  1.00  0.00     0.162 HD
BRANCH  16  18
HETATM   18  C8  UNL     1      29.173   6.705  29.715  1.00  0.00     0.186 C 
HETATM   19  S1  UNL     1      27.821   6.477  28.810  1.00  0.00    -0.040 SA
BRANCH  18  20
HETATM   20  N5  UNL     1      30.254   5.796  29.580  1.00  0.00    -0.279 N 
HETATM   21  N6  UNL     1      31.240   5.949  28.829  1.00  0.00    -0.334 N 
HETATM   22  C9  UNL     1      31.388   7.116  27.982  1.00  0.00     0.170 C 
HETATM   23  C10 UNL     1      32.263   4.943  28.795  1.00  0.00     0.170 C 
ATOM     24  H5  UNL     1      30.224   4.947  30.145  1.00  0.00     0.189 HD
ENDBRANCH  18  20
ENDBRANCH  16  18
ENDBRANCH  15  16
ENDBRANCH   1  15
TORSDOF 7
ENDMDL
MODEL 3
REMARK VINA RESULT: -5.345392136      3.096      5.210
REMARK  7 active torsions:
REMARK  status: ('A' for Active; 'I' for Inactive)
REMARK    1  A    between atoms: C4_8  and  C5_9 
REMARK    2  A    between atoms: C5_9  and  C6_10 
REMARK    3  A    between atoms: C6_10  and  N3_11 
REMARK    4  A    between atoms: C6_10  and  C7_15 
REMARK    5  A    between atoms: C7_15  and  N4_16 
REMARK    6  A    between atoms: N4_16  and  C8_18 
REMARK    7  A    between atoms: C8_18  and  N5_20 
ROOT
HETATM    1  C6  UNL     1      27.679   9.576  30.090  1.00  0.00     0.203 C 
ENDROOT
BRANCH   1   2
HETATM    2  C5  UNL     1      27.303  10.385  28.894  1.00  0.00     0.061 C 
BRANCH   2   3
HETATM    3  C4  UNL     1      26.183   9.844  28.073  1.00  0.00     0.110 C 
HETATM    4  C2  UNL     1      25.346  11.050  27.619  1.00  0.00     0.046 C 
HETATM    5  C1  UNL     1      24.685  10.810  26.302  1.00  0.00     0.018 C 
HETATM    6  C3  UNL     1      24.366  11.100  28.773  1.00  0.00     0.086 C 
HETATM    7  N1  UNL     1      24.314   9.753  29.179  1.00  0.00    -0.319 N 
HETATM    8  N2  UNL     1      25.256   9.060  28.827  1.00  0.00    -0.332 N 
ATOM      9  H1  UNL     1      23.541   9.380  29.730  1.00  0.00     0.185 HD
ATOM     10  H2  UNL     1      25.365   8.069  29.040  1.00  0.00     0.180 HD
ENDBRANCH   2   3
ENDBRANCH   1   2
BRANCH   1  11
HETATM   11  N3  UNL     1      27.567  10.455  31.254  1.00  0.00    -0.073 N 
ATOM     12  H33 UNL     1      28.205  10.203  32.009  1.00  0.00     0.274 HD
ATOM     13  H32 UNL     1      27.930  11.393  31.085  1.00  0.00     0.274 HD
ATOM     14  H31 UNL     1      26.587  10.451  31.539  1.00  0.00     0.274 HD
ENDBRANCH   1  11
BRANCH   1  15
HETATM   15  C7  UNL     1      29.060   9.036  29.939  1.00  0.00     0.154 C 
BRANCH  15  16
HETATM   16  N4  UNL     1      29.233   7.726  30.499  1.00  0.00    -0.364 N 
ATOM     17  H4  UNL     1      29.353   7.623  31.507  1.00  0.00     0.162 HD
BRANCH  16  18
HETATM   18  C8  UNL     1      29.239   6.579  29.679  1.00  0.00     0.186 C 
HETATM   19  S1  UNL     1      27.888   6.182  28.831  1.00  0.00    -0.040 SA
BRANCH  18  20
HETATM   20  N5  UNL     1      30.389   5.756  29.568  1.00  0.00    -0.279 N 
HETATM   21  N6  UNL     1      31.292   5.884  28.715  1.00  0.00    -0.334 N 
HETATM   22  C9  UNL     1      31.258   6.927  27.708  1.00  0.00     0.170 C 
HETATM   23  C10 UNL     1      32.403   4.974  28.722  1.00  0.00     0.170 C 
ATOM     24  H5  UNL     1      30.487   4.997  30.242  1.00  0.00     0.189 HD
ENDBRANCH  18  20
ENDBRANCH  16  18
ENDBRANCH  15  16
ENDBRANCH   1  15
TORSDOF 7
ENDMDL
MODEL 4
REMARK VINA RESULT: -5.327942560      1.755      2.039
REMARK  7 active torsions:
REMARK  status: ('A' for Active; 'I' for Inactive)
REMARK    1  A    between atoms: C4_8  and  C5_9 
REMARK    2  A    between atoms: C5_9  and  C6_10 
REMARK    3  A    between atoms: C6_10  and  N3_11 
REMARK    4  A    between atoms: C6_10  and  C7_15 
REMARK    5  A    between atoms: C7_15  and  N4_16 
REMARK    6  A    between atoms: N4_16  and  C8_18 
REMARK    7  A    between atoms: C8_18  and  N5_20 
ROOT
HETATM    1  C6  UNL     1      29.013  10.813  30.371  1.00  0.00     0.203 C 
ENDROOT
BRANCH   1   2
HETATM    2  C5  UNL     1      30.016  10.929  31.469  1.00  0.00     0.061 C 
BRANCH   2   3
HETATM    3  C4  UNL     1      31.347  10.315  31.196  1.00  0.00     0.110 C 
HETATM    4  C2  UNL     1      32.397  11.238  31.833  1.00  0.00     0.046 C 
HETATM    5  C1  UNL     1      33.608  10.487  32.277  1.00  0.00     0.018 C 
HETATM    6  C3  UNL     1      32.662  12.141  30.646  1.00  0.00     0.086 C 
HETATM    7  N1  UNL     1      32.389  11.291  29.558  1.00  0.00    -0.319 N 
HETATM    8  N2  UNL     1      31.697  10.317  29.811  1.00  0.00    -0.332 N 
ATOM      9  H1  UNL     1      32.744  11.476  28.620  1.00  0.00     0.185 HD
ATOM     10  H2  UNL     1      31.413   9.609  29.134  1.00  0.00     0.180 HD
ENDBRANCH   2   3
ENDBRANCH   1   2
BRANCH   1  11
HETATM   11  N3  UNL     1      28.635  12.175  29.991  1.00  0.00    -0.073 N 
ATOM     12  H33 UNL     1      27.625  12.312  29.942  1.00  0.00     0.274 HD
ATOM     13  H32 UNL     1      28.825  12.861  30.720  1.00  0.00     0.274 HD
ATOM     14  H31 UNL     1      29.110  12.383  29.112  1.00  0.00     0.274 HD
ENDBRANCH   1  11
BRANCH   1  15
HETATM   15  C7  UNL     1      27.834  10.022  30.826  1.00  0.00     0.154 C 
BRANCH  15  16
HETATM   16  N4  UNL     1      28.129   8.642  31.084  1.00  0.00    -0.364 N 
ATOM     17  H4  UNL     1      28.466   8.364  32.006  1.00  0.00     0.162 HD
BRANCH  16  18
HETATM   18  C8  UNL     1      27.961   7.662  30.082  1.00  0.00     0.186 C 
HETATM   19  S1  UNL     1      26.968   7.968  28.809  1.00  0.00    -0.040 SA
BRANCH  18  20
HETATM   20  N5  UNL     1      28.633   6.415  30.149  1.00  0.00    -0.279 N 
HETATM   21  N6  UNL     1      29.774   6.182  29.698  1.00  0.00    -0.334 N 
HETATM   22  C9  UNL     1      30.563   7.201  29.034  1.00  0.00     0.170 C 
HETATM   23  C10 UNL     1      30.332   4.866  29.837  1.00  0.00     0.170 C 
ATOM     24  H5  UNL     1      28.143   5.644  30.602  1.00  0.00     0.189 HD
ENDBRANCH  18  20
ENDBRANCH  16  18
ENDBRANCH  15  16
ENDBRANCH   1  15
TORSDOF 7
ENDMDL
MODEL 5
REMARK VINA RESULT: -5.209709160      1.466      1.786
REMARK  7 active torsions:
REMARK  status: ('A' for Active; 'I' for Inactive)
REMARK    1  A    between atoms: C4_8  and  C5_9 
REMARK    2  A    between atoms: C5_9  and  C6_10 
REMARK    3  A    between atoms: C6_10  and  N3_11 
REMARK    4  A    between atoms: C6_10  and  C7_15 
REMARK    5  A    between atoms: C7_15  and  N4_16 
REMARK    6  A    between atoms: N4_16  and  C8_18 
REMARK    7  A    between atoms: C8_18  and  N5_20 
ROOT
HETATM    1  C6  UNL     1      28.754  11.413  30.876  1.00  0.00     0.203 C 
ENDROOT
BRANCH   1   2
HETATM    2  C5  UNL     1      30.196  11.036  30.809  1.00  0.00     0.061 C 
BRANCH   2   3
HETATM    3  C4  UNL     1      31.079  11.678  31.824  1.00  0.00     0.110 C 
HETATM    4  C2  UNL     1      32.073  12.557  31.050  1.00  0.00     0.046 C 
HETATM    5  C1  UNL     1      32.508  13.745  31.843  1.00  0.00     0.018 C 
HETATM    6  C3  UNL     1      33.178  11.539  30.853  1.00  0.00     0.086 C 
HETATM    7  N1  UNL     1      33.015  10.702  31.973  1.00  0.00    -0.319 N 
HETATM    8  N2  UNL     1      31.920  10.749  32.511  1.00  0.00    -0.332 N 
ATOM      9  H1  UNL     1      33.762  10.097  32.313  1.00  0.00     0.185 HD
ATOM     10  H2  UNL     1      31.647  10.206  33.330  1.00  0.00     0.180 HD
ENDBRANCH   2   3
ENDBRANCH   1   2
BRANCH   1  11
HETATM   11  N3  UNL     1      28.651  12.554  31.788  1.00  0.00    -0.073 N 
ATOM     12  H33 UNL     1      27.721  12.661  32.192  1.00  0.00     0.274 HD
ATOM     13  H32 UNL     1      29.158  12.415  32.662  1.00  0.00     0.274 HD
ATOM     14  H31 UNL     1      28.961  13.377  31.272  1.00  0.00     0.274 HD
ENDBRANCH   1  11
BRANCH   1  15
HETATM   15  C7  UNL     1      27.936  10.259  31.346  1.00  0.00     0.154 C 
BRANCH  15  16
HETATM   16  N4  UNL     1      28.599   8.992  31.221  1.00  0.00    -0.364 N 
ATOM     17  H4  UNL     1      29.369   8.764  31.851  1.00  0.00     0.162 HD
BRANCH  16  18
HETATM   18  C8  UNL     1      28.205   8.058  30.241  1.00  0.00     0.186 C 
HETATM   19  S1  UNL     1      27.071   8.481  29.128  1.00  0.00    -0.040 SA
BRANCH  18  20
HETATM   20  N5  UNL     1      28.765   6.756  30.192  1.00  0.00    -0.279 N 
HETATM   21  N6  UNL     1      29.860   6.457  29.671  1.00  0.00    -0.334 N 
HETATM   22  C9  UNL     1      30.706   7.449  29.036  1.00  0.00     0.170 C 
HETATM   23  C10 UNL     1      30.305   5.092  29.697  1.00  0.00     0.170 C 
ATOM     24  H5  UNL     1      28.229   6.000  30.619  1.00  0.00     0.189 HD
ENDBRANCH  18  20
ENDBRANCH  16  18
ENDBRANCH  15  16
ENDBRANCH   1  15
TORSDOF 7
ENDMDL
