MODEL 1
REMARK VINA RESULT: -3.878218839      0.000      0.000
REMARK  6 active torsions:
REMARK  status: ('A' for Active; 'I' for Inactive)
REMARK    1  A    between atoms: C2_2  and  N1_3 
REMARK    2  A    between atoms: C2_2  and  C3_7 
REMARK    3  A    between atoms: C2_2  and  C4_9 
REMARK    4  A    between atoms: C4_9  and  N2_10 
REMARK    5  A    between atoms: N2_10  and  C5_12 
REMARK    6  A    between atoms: N3_13  and  N4_15 
ROOT
HETATM    1  N2  UNL     1     -23.164 -18.435 -18.364  1.00  0.00    -0.382 N 
ATOM      2  H2  UNL     1     -22.448 -17.718 -18.474  1.00  0.00     0.160 HD
ENDROOT
BRANCH   1   3
HETATM    3  C4  UNL     1     -23.161 -19.188 -17.146  1.00  0.00     0.166 C 
BRANCH   3   4
HETATM    4  C2  UNL     1     -21.854 -19.265 -16.433  1.00  0.00     0.187 C 
HETATM    5  C1  UNL     1     -21.277 -20.633 -16.289  1.00  0.00     0.056 C 
BRANCH   4   6
HETATM    6  N1  UNL     1     -21.963 -18.711 -15.084  1.00  0.00    -0.063 N 
ATOM      7  H13 UNL     1     -22.926 -18.545 -14.794  1.00  0.00     0.275 HD
ATOM      8  H12 UNL     1     -21.722 -19.381 -14.354  1.00  0.00     0.275 HD
ATOM      9  H11 UNL     1     -21.385 -17.870 -15.066  1.00  0.00     0.275 HD
ENDBRANCH   4   6
BRANCH   4  10
HETATM   10  C3  UNL     1     -20.873 -18.447 -17.226  1.00  0.00     0.271 C 
HETATM   11  O1  UNL     1     -19.679 -18.674 -17.177  1.00  0.00    -0.304 OA
ENDBRANCH   4  10
ENDBRANCH   3   4
ENDBRANCH   1   3
BRANCH   1  12
HETATM   12  C5  UNL     1     -24.072 -18.604 -19.414  1.00  0.00     0.194 C 
HETATM   13  N3  UNL     1     -23.902 -17.997 -20.570  1.00  0.00    -0.283 N 
ATOM     14  H3  UNL     1     -24.568 -18.125 -21.332  1.00  0.00     0.189 HD
BRANCH  13  15
HETATM   15  N4  UNL     1     -22.773 -17.162 -20.728  1.00  0.00    -0.248 N 
HETATM   16  N5  UNL     1     -22.780 -16.417 -21.749  1.00  0.00    -0.331 N 
ATOM     17  H52 UNL     1     -23.559 -16.429 -22.408  1.00  0.00     0.178 HD
ATOM     18  H51 UNL     1     -21.965 -15.814 -21.863  1.00  0.00     0.178 HD
ATOM     19  H4  UNL     1     -22.002 -17.161 -20.061  1.00  0.00     0.207 HD
ENDBRANCH  13  15
ENDBRANCH   1  12
TORSDOF 6
ENDMDL
MODEL 2
REMARK VINA RESULT: -3.833260256      1.219      1.511
REMARK  6 active torsions:
REMARK  status: ('A' for Active; 'I' for Inactive)
REMARK    1  A    between atoms: C2_2  and  N1_3 
REMARK    2  A    between atoms: C2_2  and  C3_7 
REMARK    3  A    between atoms: C2_2  and  C4_9 
REMARK    4  A    between atoms: C4_9  and  N2_10 
REMARK    5  A    between atoms: N2_10  and  C5_12 
REMARK    6  A    between atoms: N3_13  and  N4_15 
ROOT
HETATM    1  N2  UNL     1     -23.079 -18.405 -18.317  1.00  0.00    -0.382 N 
ATOM      2  H2  UNL     1     -22.385 -17.677 -18.489  1.00  0.00     0.160 HD
ENDROOT
BRANCH   1   3
HETATM    3  C4  UNL     1     -22.967 -19.146 -17.098  1.00  0.00     0.166 C 
BRANCH   3   4
HETATM    4  C2  UNL     1     -21.594 -19.261 -16.530  1.00  0.00     0.187 C 
HETATM    5  C1  UNL     1     -20.524 -18.532 -17.273  1.00  0.00     0.056 C 
BRANCH   4   6
HETATM    6  N1  UNL     1     -21.174 -20.659 -16.456  1.00  0.00    -0.063 N 
ATOM      7  H13 UNL     1     -20.910 -21.048 -17.361  1.00  0.00     0.275 HD
ATOM      8  H12 UNL     1     -20.274 -20.786 -15.994  1.00  0.00     0.275 HD
ATOM      9  H11 UNL     1     -21.934 -21.169 -16.005  1.00  0.00     0.275 HD
ENDBRANCH   4   6
BRANCH   4  10
HETATM   10  C3  UNL     1     -21.645 -18.686 -15.142  1.00  0.00     0.271 C 
HETATM   11  O1  UNL     1     -20.752 -17.976 -14.721  1.00  0.00    -0.304 OA
ENDBRANCH   4  10
ENDBRANCH   3   4
ENDBRANCH   1   3
BRANCH   1  12
HETATM   12  C5  UNL     1     -24.063 -18.598 -19.292  1.00  0.00     0.194 C 
HETATM   13  N3  UNL     1     -23.970 -18.037 -20.480  1.00  0.00    -0.283 N 
ATOM     14  H3  UNL     1     -24.692 -18.182 -21.185  1.00  0.00     0.189 HD
BRANCH  13  15
HETATM   15  N4  UNL     1     -22.845 -17.226 -20.751  1.00  0.00    -0.248 N 
HETATM   16  N5  UNL     1     -22.909 -16.532 -21.805  1.00  0.00    -0.331 N 
ATOM     17  H52 UNL     1     -23.729 -16.565 -22.411  1.00  0.00     0.178 HD
ATOM     18  H51 UNL     1     -22.097 -15.946 -22.000  1.00  0.00     0.178 HD
ATOM     19  H4  UNL     1     -22.032 -17.204 -20.135  1.00  0.00     0.207 HD
ENDBRANCH  13  15
ENDBRANCH   1  12
TORSDOF 6
ENDMDL
MODEL 3
REMARK VINA RESULT: -3.829079308      5.244      6.482
REMARK  6 active torsions:
REMARK  status: ('A' for Active; 'I' for Inactive)
REMARK    1  A    between atoms: C2_2  and  N1_3 
REMARK    2  A    between atoms: C2_2  and  C3_7 
REMARK    3  A    between atoms: C2_2  and  C4_9 
REMARK    4  A    between atoms: C4_9  and  N2_10 
REMARK    5  A    between atoms: N2_10  and  C5_12 
REMARK    6  A    between atoms: N3_13  and  N4_15 
ROOT
HETATM    1  N2  UNL     1     -17.402 -22.239 -16.612  1.00  0.00    -0.382 N 
ATOM      2  H2  UNL     1     -17.848 -21.512 -16.053  1.00  0.00     0.160 HD
ENDROOT
BRANCH   1   3
HETATM    3  C4  UNL     1     -17.948 -23.560 -16.533  1.00  0.00     0.166 C 
BRANCH   3   4
HETATM    4  C2  UNL     1     -19.386 -23.693 -16.903  1.00  0.00     0.187 C 
HETATM    5  C1  UNL     1     -20.231 -22.488 -16.654  1.00  0.00     0.056 C 
BRANCH   4   6
HETATM    6  N1  UNL     1     -20.010 -24.799 -16.180  1.00  0.00    -0.063 N 
ATOM      7  H13 UNL     1     -20.814 -24.512 -15.622  1.00  0.00     0.275 HD
ATOM      8  H12 UNL     1     -20.503 -25.451 -16.790  1.00  0.00     0.275 HD
ATOM      9  H11 UNL     1     -19.274 -25.241 -15.629  1.00  0.00     0.275 HD
ENDBRANCH   4   6
BRANCH   4  10
HETATM   10  C3  UNL     1     -19.433 -23.976 -18.379  1.00  0.00     0.271 C 
HETATM   11  O1  UNL     1     -18.492 -23.708 -19.101  1.00  0.00    -0.304 OA
ENDBRANCH   4  10
ENDBRANCH   3   4
ENDBRANCH   1   3
BRANCH   1  12
HETATM   12  C5  UNL     1     -16.305 -21.865 -17.395  1.00  0.00     0.194 C 
HETATM   13  N3  UNL     1     -16.457 -21.156 -18.494  1.00  0.00    -0.283 N 
ATOM     14  H3  UNL     1     -15.653 -20.888 -19.059  1.00  0.00     0.189 HD
BRANCH  13  15
HETATM   15  N4  UNL     1     -17.766 -20.778 -18.869  1.00  0.00    -0.248 N 
HETATM   16  N5  UNL     1     -18.046 -19.553 -18.728  1.00  0.00    -0.331 N 
ATOM     17  H52 UNL     1     -17.359 -18.893 -18.364  1.00  0.00     0.178 HD
ATOM     18  H51 UNL     1     -18.990 -19.280 -18.999  1.00  0.00     0.178 HD
ATOM     19  H4  UNL     1     -18.442 -21.450 -19.232  1.00  0.00     0.207 HD
ENDBRANCH  13  15
ENDBRANCH   1  12
TORSDOF 6
ENDMDL
MODEL 4
REMARK VINA RESULT: -3.812436541     12.323     12.920
REMARK  6 active torsions:
REMARK  status: ('A' for Active; 'I' for Inactive)
REMARK    1  A    between atoms: C2_2  and  N1_3 
REMARK    2  A    between atoms: C2_2  and  C3_7 
REMARK    3  A    between atoms: C2_2  and  C4_9 
REMARK    4  A    between atoms: C4_9  and  N2_10 
REMARK    5  A    between atoms: N2_10  and  C5_12 
REMARK    6  A    between atoms: N3_13  and  N4_15 
ROOT
HETATM    1  N2  UNL     1     -30.910 -10.340 -13.650  1.00  0.00    -0.382 N 
ATOM      2  H2  UNL     1     -30.375  -9.520 -13.363  1.00  0.00     0.160 HD
ENDROOT
BRANCH   1   3
HETATM    3  C4  UNL     1     -30.230 -11.599 -13.660  1.00  0.00     0.166 C 
BRANCH   3   4
HETATM    4  C2  UNL     1     -28.984 -11.672 -12.845  1.00  0.00     0.187 C 
HETATM    5  C1  UNL     1     -28.145 -10.438 -12.836  1.00  0.00     0.056 C 
BRANCH   4   6
HETATM    6  N1  UNL     1     -28.123 -12.761 -13.305  1.00  0.00    -0.063 N 
ATOM      7  H13 UNL     1     -28.547 -13.326 -14.040  1.00  0.00     0.275 HD
ATOM      8  H12 UNL     1     -27.317 -12.438 -13.839  1.00  0.00     0.275 HD
ATOM      9  H11 UNL     1     -27.869 -13.301 -12.478  1.00  0.00     0.275 HD
ENDBRANCH   4   6
BRANCH   4  10
HETATM   10  C3  UNL     1     -29.404 -11.938 -11.426  1.00  0.00     0.271 C 
HETATM   11  O1  UNL     1     -30.184 -11.201 -10.853  1.00  0.00    -0.304 OA
ENDBRANCH   4  10
ENDBRANCH   3   4
ENDBRANCH   1   3
BRANCH   1  12
HETATM   12  C5  UNL     1     -32.250 -10.143 -14.001  1.00  0.00     0.194 C 
HETATM   13  N3  UNL     1     -33.190 -10.042 -13.085  1.00  0.00    -0.283 N 
ATOM     14  H3  UNL     1     -34.165  -9.899 -13.348  1.00  0.00     0.189 HD
BRANCH  13  15
HETATM   15  N4  UNL     1     -32.814 -10.137 -11.726  1.00  0.00    -0.248 N 
HETATM   16  N5  UNL     1     -33.175 -11.191 -11.128  1.00  0.00    -0.331 N 
ATOM     17  H52 UNL     1     -33.704 -11.917 -11.610  1.00  0.00     0.178 HD
ATOM     18  H51 UNL     1     -32.903 -11.259 -10.147  1.00  0.00     0.178 HD
ATOM     19  H4  UNL     1     -32.284  -9.402 -11.257  1.00  0.00     0.207 HD
ENDBRANCH  13  15
ENDBRANCH   1  12
TORSDOF 6
ENDMDL
MODEL 5
REMARK VINA RESULT: -3.805918774      2.567      2.815
REMARK  6 active torsions:
REMARK  status: ('A' for Active; 'I' for Inactive)
REMARK    1  A    between atoms: C2_2  and  N1_3 
REMARK    2  A    between atoms: C2_2  and  C3_7 
REMARK    3  A    between atoms: C2_2  and  C4_9 
REMARK    4  A    between atoms: C4_9  and  N2_10 
REMARK    5  A    between atoms: N2_10  and  C5_12 
REMARK    6  A    between atoms: N3_13  and  N4_15 
ROOT
HETATM    1  N2  UNL     1     -23.924 -18.067 -18.609  1.00  0.00    -0.382 N 
ATOM      2  H2  UNL     1     -24.282 -17.151 -18.340  1.00  0.00     0.160 HD
ENDROOT
BRANCH   1   3
HETATM    3  C4  UNL     1     -23.142 -18.777 -17.643  1.00  0.00     0.166 C 
BRANCH   3   4
HETATM    4  C2  UNL     1     -23.903 -19.407 -16.527  1.00  0.00     0.187 C 
HETATM    5  C1  UNL     1     -23.213 -19.424 -15.203  1.00  0.00     0.056 C 
BRANCH   4   6
HETATM    6  N1  UNL     1     -24.239 -20.794 -16.842  1.00  0.00    -0.063 N 
ATOM      7  H13 UNL     1     -24.992 -21.167 -16.265  1.00  0.00     0.275 HD
ATOM      8  H12 UNL     1     -24.702 -20.901 -17.744  1.00  0.00     0.275 HD
ATOM      9  H11 UNL     1     -23.373 -21.329 -16.769  1.00  0.00     0.275 HD
ENDBRANCH   4   6
BRANCH   4  10
HETATM   10  C3  UNL     1     -25.170 -18.616 -16.360  1.00  0.00     0.271 C 
HETATM   11  O1  UNL     1     -26.211 -18.980 -16.875  1.00  0.00    -0.304 OA
ENDBRANCH   4  10
ENDBRANCH   3   4
ENDBRANCH   1   3
BRANCH   1  12
HETATM   12  C5  UNL     1     -24.234 -18.528 -19.893  1.00  0.00     0.194 C 
HETATM   13  N3  UNL     1     -23.724 -17.960 -20.966  1.00  0.00    -0.283 N 
ATOM     14  H3  UNL     1     -23.955 -18.302 -21.898  1.00  0.00     0.189 HD
BRANCH  13  15
HETATM   15  N4  UNL     1     -22.848 -16.865 -20.792  1.00  0.00    -0.248 N 
HETATM   16  N5  UNL     1     -22.672 -16.136 -21.809  1.00  0.00    -0.331 N 
ATOM     17  H52 UNL     1     -23.140 -16.338 -22.692  1.00  0.00     0.178 HD
ATOM     18  H51 UNL     1     -22.040 -15.345 -21.683  1.00  0.00     0.178 HD
ATOM     19  H4  UNL     1     -22.387 -16.676 -19.902  1.00  0.00     0.207 HD
ENDBRANCH  13  15
ENDBRANCH   1  12
TORSDOF 6
ENDMDL
