MODEL 1
REMARK VINA RESULT: -4.070965199      0.000      0.000
REMARK  6 active torsions:
REMARK  status: ('A' for Active; 'I' for Inactive)
REMARK    1  A    between atoms: N1_1  and  C1_5 
REMARK    2  A    between atoms: C1_5  and  N2_6 
REMARK    3  A    between atoms: C2_8  and  C3_9 
REMARK    4  A    between atoms: C5_11  and  C6_12 
REMARK    5  A    between atoms: C6_12  and  N3_13 
REMARK    6  A    between atoms: N3_13  and  C7_15 
ROOT
HETATM    1  C3  UNL     1     -24.628 -18.447 -18.713  1.00  0.00     0.030 A 
HETATM    2  C4  UNL     1     -24.018 -19.366 -17.677  1.00  0.00     0.017 A 
HETATM    3  C5  UNL     1     -25.226 -19.790 -18.534  1.00  0.00     0.013 A 
ENDROOT
BRANCH   1   4
HETATM    4  C2  UNL     1     -23.783 -18.234 -19.923  1.00  0.00     0.062 C 
HETATM    5  N2  UNL     1     -23.107 -17.150 -20.085  1.00  0.00    -0.380 N 
ATOM      6  H2  UNL     1     -23.158 -16.428 -19.366  1.00  0.00     0.160 HD
BRANCH   5   7
HETATM    7  C1  UNL     1     -22.288 -16.920 -21.239  1.00  0.00     0.351 C 
BRANCH   7   8
HETATM    8  N1  UNL     1     -23.026 -16.162 -22.219  1.00  0.00    -0.064 N 
ATOM      9  H13 UNL     1     -23.885 -16.633 -22.501  1.00  0.00     0.276 HD
ATOM     10  H12 UNL     1     -23.442 -15.321 -21.820  1.00  0.00     0.276 HD
ATOM     11  H11 UNL     1     -22.425 -15.951 -23.016  1.00  0.00     0.276 HD
ENDBRANCH   7   8
ENDBRANCH   5   7
ENDBRANCH   1   4
BRANCH   3  12
HETATM   12  C6  UNL     1     -26.466 -20.025 -17.752  1.00  0.00     0.127 C 
BRANCH  12  13
HETATM   13  N3  UNL     1     -27.249 -21.052 -18.396  1.00  0.00    -0.368 N 
ATOM     14  H3  UNL     1     -28.260 -21.054 -18.258  1.00  0.00     0.161 HD
BRANCH  13  15
HETATM   15  C7  UNL     1     -26.670 -22.062 -19.215  1.00  0.00     0.348 C 
HETATM   16  O1  UNL     1     -27.424 -22.701 -19.981  1.00  0.00    -0.284 OA
ENDBRANCH  13  15
ENDBRANCH  12  13
ENDBRANCH   3  12
TORSDOF 6
ENDMDL
MODEL 2
REMARK VINA RESULT: -4.037955224      2.997      5.703
REMARK  6 active torsions:
REMARK  status: ('A' for Active; 'I' for Inactive)
REMARK    1  A    between atoms: N1_1  and  C1_5 
REMARK    2  A    between atoms: C1_5  and  N2_6 
REMARK    3  A    between atoms: C2_8  and  C3_9 
REMARK    4  A    between atoms: C5_11  and  C6_12 
REMARK    5  A    between atoms: C6_12  and  N3_13 
REMARK    6  A    between atoms: N3_13  and  C7_15 
ROOT
HETATM    1  C3  UNL     1     -24.834 -19.635 -18.636  1.00  0.00     0.030 A 
HETATM    2  C4  UNL     1     -23.928 -19.060 -17.569  1.00  0.00     0.017 A 
HETATM    3  C5  UNL     1     -24.300 -18.267 -18.836  1.00  0.00     0.013 A 
ENDROOT
BRANCH   1   4
HETATM    4  C2  UNL     1     -26.264 -19.754 -18.233  1.00  0.00     0.062 C 
HETATM    5  N2  UNL     1     -26.633 -19.560 -17.014  1.00  0.00    -0.380 N 
ATOM      6  H2  UNL     1     -25.927 -19.320 -16.319  1.00  0.00     0.160 HD
BRANCH   5   7
HETATM    7  C1  UNL     1     -28.001 -19.669 -16.599  1.00  0.00     0.351 C 
BRANCH   7   8
HETATM    8  N1  UNL     1     -28.220 -18.865 -15.421  1.00  0.00    -0.064 N 
ATOM      9  H13 UNL     1     -28.166 -19.415 -14.565  1.00  0.00     0.276 HD
ATOM     10  H12 UNL     1     -27.442 -18.231 -15.239  1.00  0.00     0.276 HD
ATOM     11  H11 UNL     1     -29.107 -18.368 -15.502  1.00  0.00     0.276 HD
ENDBRANCH   7   8
ENDBRANCH   5   7
ENDBRANCH   1   4
BRANCH   3  12
HETATM   12  C6  UNL     1     -23.146 -17.972 -19.722  1.00  0.00     0.127 C 
BRANCH  12  13
HETATM   13  N3  UNL     1     -23.628 -17.671 -21.049  1.00  0.00    -0.368 N 
ATOM     14  H3  UNL     1     -24.528 -18.052 -21.340  1.00  0.00     0.161 HD
BRANCH  13  15
HETATM   15  C7  UNL     1     -22.899 -16.864 -21.968  1.00  0.00     0.348 C 
HETATM   16  O1  UNL     1     -21.676 -16.699 -21.763  1.00  0.00    -0.284 OA
ENDBRANCH  13  15
ENDBRANCH  12  13
ENDBRANCH   3  12
TORSDOF 6
ENDMDL
MODEL 3
REMARK VINA RESULT: -3.939311143      1.574      1.648
REMARK  6 active torsions:
REMARK  status: ('A' for Active; 'I' for Inactive)
REMARK    1  A    between atoms: N1_1  and  C1_5 
REMARK    2  A    between atoms: C1_5  and  N2_6 
REMARK    3  A    between atoms: C2_8  and  C3_9 
REMARK    4  A    between atoms: C5_11  and  C6_12 
REMARK    5  A    between atoms: C6_12  and  N3_13 
REMARK    6  A    between atoms: N3_13  and  C7_15 
ROOT
HETATM    1  C3  UNL     1     -24.622 -18.445 -18.686  1.00  0.00     0.030 A 
HETATM    2  C4  UNL     1     -23.948 -19.345 -17.673  1.00  0.00     0.017 A 
HETATM    3  C5  UNL     1     -25.193 -19.794 -18.461  1.00  0.00     0.013 A 
ENDROOT
BRANCH   1   4
HETATM    4  C2  UNL     1     -23.843 -18.237 -19.940  1.00  0.00     0.062 C 
HETATM    5  N2  UNL     1     -23.109 -17.192 -20.105  1.00  0.00    -0.380 N 
ATOM      6  H2  UNL     1     -23.066 -16.499 -19.358  1.00  0.00     0.160 HD
BRANCH   5   7
HETATM    7  C1  UNL     1     -22.350 -16.967 -21.300  1.00  0.00     0.351 C 
BRANCH   7   8
HETATM    8  N1  UNL     1     -23.085 -16.102 -22.190  1.00  0.00    -0.064 N 
ATOM      9  H13 UNL     1     -23.661 -15.430 -21.684  1.00  0.00     0.276 HD
ATOM     10  H12 UNL     1     -22.476 -15.441 -22.673  1.00  0.00     0.276 HD
ATOM     11  H11 UNL     1     -23.634 -16.662 -22.842  1.00  0.00     0.276 HD
ENDBRANCH   7   8
ENDBRANCH   5   7
ENDBRANCH   1   4
BRANCH   3  12
HETATM   12  C6  UNL     1     -26.388 -20.035 -17.614  1.00  0.00     0.127 C 
BRANCH  12  13
HETATM   13  N3  UNL     1     -27.461 -20.542 -18.436  1.00  0.00    -0.368 N 
ATOM     14  H3  UNL     1     -27.282 -21.353 -19.027  1.00  0.00     0.161 HD
BRANCH  13  15
HETATM   15  C7  UNL     1     -28.758 -19.955 -18.455  1.00  0.00     0.348 C 
HETATM   16  O1  UNL     1     -28.838 -18.708 -18.499  1.00  0.00    -0.284 OA
ENDBRANCH  13  15
ENDBRANCH  12  13
ENDBRANCH   3  12
TORSDOF 6
ENDMDL
MODEL 4
REMARK VINA RESULT: -3.909767467      1.829      1.849
REMARK  6 active torsions:
REMARK  status: ('A' for Active; 'I' for Inactive)
REMARK    1  A    between atoms: N1_1  and  C1_5 
REMARK    2  A    between atoms: C1_5  and  N2_6 
REMARK    3  A    between atoms: C2_8  and  C3_9 
REMARK    4  A    between atoms: C5_11  and  C6_12 
REMARK    5  A    between atoms: C6_12  and  N3_13 
REMARK    6  A    between atoms: N3_13  and  C7_15 
ROOT
HETATM    1  C3  UNL     1     -24.430 -18.517 -18.207  1.00  0.00     0.030 A 
HETATM    2  C4  UNL     1     -23.392 -19.258 -17.393  1.00  0.00     0.017 A 
HETATM    3  C5  UNL     1     -24.805 -19.826 -17.622  1.00  0.00     0.013 A 
ENDROOT
BRANCH   1   4
HETATM    4  C2  UNL     1     -24.154 -18.482 -19.672  1.00  0.00     0.062 C 
HETATM    5  N2  UNL     1     -23.489 -17.516 -20.204  1.00  0.00    -0.380 N 
ATOM      6  H2  UNL     1     -23.148 -16.766 -19.604  1.00  0.00     0.160 HD
BRANCH   5   7
HETATM    7  C1  UNL     1     -23.210 -17.457 -21.609  1.00  0.00     0.351 C 
BRANCH   7   8
HETATM    8  N1  UNL     1     -22.823 -16.116 -21.975  1.00  0.00    -0.064 N 
ATOM      9  H13 UNL     1     -23.272 -15.809 -22.838  1.00  0.00     0.276 HD
ATOM     10  H12 UNL     1     -23.218 -15.418 -21.346  1.00  0.00     0.276 HD
ATOM     11  H11 UNL     1     -21.806 -16.053 -22.028  1.00  0.00     0.276 HD
ENDBRANCH   7   8
ENDBRANCH   5   7
ENDBRANCH   1   4
BRANCH   3  12
HETATM   12  C6  UNL     1     -25.610 -19.955 -16.381  1.00  0.00     0.127 C 
BRANCH  12  13
HETATM   13  N3  UNL     1     -26.924 -19.401 -16.605  1.00  0.00    -0.368 N 
ATOM     14  H3  UNL     1     -27.239 -18.635 -16.011  1.00  0.00     0.161 HD
BRANCH  13  15
HETATM   15  C7  UNL     1     -27.798 -19.880 -17.622  1.00  0.00     0.348 C 
HETATM   16  O1  UNL     1     -28.311 -19.044 -18.398  1.00  0.00    -0.284 OA
ENDBRANCH  13  15
ENDBRANCH  12  13
ENDBRANCH   3  12
TORSDOF 6
ENDMDL
MODEL 5
REMARK VINA RESULT: -3.802003766      2.782      5.650
REMARK  6 active torsions:
REMARK  status: ('A' for Active; 'I' for Inactive)
REMARK    1  A    between atoms: N1_1  and  C1_5 
REMARK    2  A    between atoms: C1_5  and  N2_6 
REMARK    3  A    between atoms: C2_8  and  C3_9 
REMARK    4  A    between atoms: C5_11  and  C6_12 
REMARK    5  A    between atoms: C6_12  and  N3_13 
REMARK    6  A    between atoms: N3_13  and  C7_15 
ROOT
HETATM    1  C3  UNL     1     -24.888 -19.640 -18.651  1.00  0.00     0.030 A 
HETATM    2  C4  UNL     1     -23.976 -19.125 -17.559  1.00  0.00     0.017 A 
HETATM    3  C5  UNL     1     -24.326 -18.277 -18.795  1.00  0.00     0.013 A 
ENDROOT
BRANCH   1   4
HETATM    4  C2  UNL     1     -26.322 -19.746 -18.257  1.00  0.00     0.062 C 
HETATM    5  N2  UNL     1     -26.960 -20.862 -18.347  1.00  0.00    -0.380 N 
ATOM      6  H2  UNL     1     -26.465 -21.683 -18.694  1.00  0.00     0.160 HD
BRANCH   5   7
HETATM    7  C1  UNL     1     -28.338 -20.991 -17.976  1.00  0.00     0.351 C 
BRANCH   7   8
HETATM    8  N1  UNL     1     -29.173 -20.868 -19.146  1.00  0.00    -0.064 N 
ATOM      9  H13 UNL     1     -28.719 -21.234 -19.982  1.00  0.00     0.276 HD
ATOM     10  H12 UNL     1     -29.968 -21.506 -19.118  1.00  0.00     0.276 HD
ATOM     11  H11 UNL     1     -29.465 -19.897 -19.262  1.00  0.00     0.276 HD
ENDBRANCH   7   8
ENDBRANCH   5   7
ENDBRANCH   1   4
BRANCH   3  12
HETATM   12  C6  UNL     1     -23.162 -17.971 -19.665  1.00  0.00     0.127 C 
BRANCH  12  13
HETATM   13  N3  UNL     1     -23.625 -17.701 -21.005  1.00  0.00    -0.368 N 
ATOM     14  H3  UNL     1     -24.517 -18.096 -21.303  1.00  0.00     0.161 HD
BRANCH  13  15
HETATM   15  C7  UNL     1     -22.890 -16.904 -21.927  1.00  0.00     0.348 C 
HETATM   16  O1  UNL     1     -21.675 -16.712 -21.699  1.00  0.00    -0.284 OA
ENDBRANCH  13  15
ENDBRANCH  12  13
ENDBRANCH   3  12
TORSDOF 6
ENDMDL
