MODEL 1
REMARK VINA RESULT: -7.225037678      0.000      0.000
REMARK  19 active torsions:
REMARK  status: ('A' for Active; 'I' for Inactive)
REMARK    1  A    between atoms: O1_2  and  C2_3 
REMARK    2  A    between atoms: C3_5  and  C4_6 
REMARK    3  A    between atoms: C4_6  and  O3_7 
REMARK    4  A    between atoms: C5_9  and  O4_10 
REMARK    5  A    between atoms: C6_12  and  O5_13 
REMARK    6  A    between atoms: O5_13  and  C7_14 
REMARK    7  A    between atoms: C8_16  and  C9_17 
REMARK    8  A    between atoms: C9_17  and  O7_18 
REMARK    9  A    between atoms: C10_20  and  O8_21 
REMARK   10  A    between atoms: O8_21  and  C11_22 
REMARK   11  A    between atoms: C12_23  and  N1_24 
REMARK   12  A    between atoms: C13_31  and  O9_32 
REMARK   13  A    between atoms: O9_32  and  C14_33 
REMARK   14  A    between atoms: C19_38  and  O10_40 
REMARK   15  A    between atoms: C21_45  and  C22_46 
REMARK   16  A    between atoms: C22_46  and  O11_47 
REMARK   17  A    between atoms: C23_49  and  O12_50 
REMARK   18  A    between atoms: C24_52  and  N4_53 
REMARK   19  A    between atoms: C25_58  and  O14_59 
ROOT
HETATM    1  C11 UNL     1      -7.192  -2.860  11.245  1.00  0.00     0.215 C 
HETATM    2  C12 UNL     1      -7.576  -3.818  10.178  1.00  0.00     0.414 C 
HETATM    3  N2  UNL     1      -8.444  -3.170   9.234  1.00  0.00    -0.015 N 
ATOM      4  H21 UNL     1      -8.516  -3.699   8.365  1.00  0.00     0.282 HD
ATOM      5  H22 UNL     1      -8.025  -2.317   8.861  1.00  0.00     0.282 HD
HETATM    6  C13 UNL     1      -9.761  -2.913   9.822  1.00  0.00     0.355 C 
HETATM    7  C23 UNL     1      -9.669  -2.632  11.271  1.00  0.00     0.207 C 
HETATM    8  C24 UNL     1      -8.356  -2.106  11.760  1.00  0.00     0.249 C 
ENDROOT
BRANCH   1   9
HETATM    9  O8  UNL     1      -6.412  -3.436  12.246  1.00  0.00    -0.347 OA
BRANCH   9  10
HETATM   10  C10 UNL     1      -7.007  -4.490  12.898  1.00  0.00     0.297 C 
HETATM   11  C8  UNL     1      -5.941  -5.407  13.404  1.00  0.00     0.205 C 
HETATM   12  O6  UNL     1      -5.666  -4.989  14.683  1.00  0.00    -0.326 OA
HETATM   13  C7  UNL     1      -6.635  -4.101  15.072  1.00  0.00     0.416 C 
HETATM   14  O13 UNL     1      -7.576  -3.993  14.065  1.00  0.00    -0.305 OA
BRANCH  11  15
HETATM   15  C9  UNL     1      -6.440  -6.854  13.489  1.00  0.00     0.201 C 
BRANCH  15  16
HETATM   16  O7  UNL     1      -7.831  -6.885  13.493  1.00  0.00    -0.398 OA
ATOM     17  H7  UNL     1      -8.149  -7.276  14.299  1.00  0.00     0.209 HD
ENDBRANCH  15  16
ENDBRANCH  11  15
BRANCH  13  18
HETATM   18  O5  UNL     1      -6.200  -2.835  15.385  1.00  0.00    -0.328 OA
BRANCH  18  19
HETATM   19  C6  UNL     1      -7.174  -2.100  16.053  1.00  0.00     0.191 C 
HETATM   20  C5  UNL     1      -7.796  -1.050  15.160  1.00  0.00     0.181 C 
HETATM   21  C3  UNL     1      -8.032   0.251  15.870  1.00  0.00     0.179 C 
HETATM   22  O2  UNL     1      -8.543   0.107  17.136  1.00  0.00    -0.349 OA
HETATM   23  C2  UNL     1      -7.835  -0.749  17.965  1.00  0.00     0.290 C 
HETATM   24  C25 UNL     1      -6.668  -1.413  17.279  1.00  0.00     0.205 C 
BRANCH  20  25
HETATM   25  O4  UNL     1      -6.863  -0.796  14.137  1.00  0.00    -0.390 OA
ATOM     26  H4  UNL     1      -7.333  -0.362  13.435  1.00  0.00     0.210 HD
ENDBRANCH  20  25
BRANCH  21  27
HETATM   27  C4  UNL     1      -9.094   1.004  15.055  1.00  0.00     0.198 C 
BRANCH  27  28
HETATM   28  O3  UNL     1      -9.577   0.103  14.106  1.00  0.00    -0.398 OA
ATOM     29  H3  UNL     1     -10.422   0.435  13.825  1.00  0.00     0.209 HD
ENDBRANCH  27  28
ENDBRANCH  21  27
BRANCH  23  30
HETATM   30  O1  UNL     1      -7.433  -0.104  19.129  1.00  0.00    -0.363 OA
HETATM   31  C1  UNL     1      -8.481  -0.008  20.042  1.00  0.00     0.204 C 
ENDBRANCH  23  30
BRANCH  24  32
HETATM   32  O14 UNL     1      -5.603  -0.575  17.051  1.00  0.00    -0.388 OA
ATOM     33  H14 UNL     1      -5.039  -0.852  16.339  1.00  0.00     0.210 HD
ENDBRANCH  24  32
ENDBRANCH  18  19
ENDBRANCH  13  18
ENDBRANCH   9  10
ENDBRANCH   1   9
BRANCH   2  34
HETATM   34  N1  UNL     1      -6.410  -4.288   9.414  1.00  0.00    -0.048 N 
ATOM     35  H13 UNL     1      -6.058  -3.562   8.791  1.00  0.00     0.276 HD
ATOM     36  H12 UNL     1      -5.593  -4.395  10.015  1.00  0.00     0.276 HD
ATOM     37  H11 UNL     1      -6.609  -5.148   8.904  1.00  0.00     0.276 HD
ENDBRANCH   2  34
BRANCH   8  38
HETATM   38  N4  UNL     1      -8.318  -0.675  11.414  1.00  0.00    -0.070 N 
ATOM     39  H43 UNL     1      -7.801  -0.145  12.116  1.00  0.00     0.274 HD
ATOM     40  H42 UNL     1      -7.718  -0.512  10.606  1.00  0.00     0.274 HD
ATOM     41  H41 UNL     1      -9.244  -0.273  11.265  1.00  0.00     0.274 HD
ENDBRANCH   8  38
BRANCH   7  42
HETATM   42  O12 UNL     1     -10.668  -1.825  11.794  1.00  0.00    -0.389 OA
ATOM     43  H12 UNL     1     -11.042  -1.190  11.195  1.00  0.00     0.210 HD
ENDBRANCH   7  42
BRANCH   6  44
HETATM   44  O9  UNL     1     -10.333  -1.851   9.142  1.00  0.00    -0.349 OA
BRANCH  44  45
HETATM   45  C14 UNL     1     -11.425  -2.195   8.356  1.00  0.00     0.164 C 
HETATM   46  C15 UNL     1     -12.702  -2.055   9.142  1.00  0.00     0.035 C 
HETATM   47  C16 UNL     1     -13.830  -2.700   8.354  1.00  0.00     0.017 C 
HETATM   48  C17 UNL     1     -13.052  -0.657   9.442  1.00  0.00    -0.019 C 
HETATM   49  C18 UNL     1     -12.869   0.498   8.839  1.00  0.00     0.037 C 
HETATM   50  C19 UNL     1     -12.196   0.752   7.563  1.00  0.00     0.239 C 
HETATM   51  C20 UNL     1     -13.238   0.821   6.465  1.00  0.00     0.083 C 
HETATM   52  N3  UNL     1     -11.081  -0.073   7.246  1.00  0.00    -0.031 N 
HETATM   53  C21 UNL     1     -11.506  -1.420   7.060  1.00  0.00     0.242 C 
ATOM     54  H32 UNL     1     -10.563   0.278   6.441  1.00  0.00     0.281 HD
ATOM     55  H31 UNL     1     -10.341   0.001   7.945  1.00  0.00     0.281 HD
BRANCH  50  56
HETATM   56  O10 UNL     1     -11.688   2.079   7.653  1.00  0.00    -0.362 OA
ATOM     57  H10 UNL     1     -12.258   2.610   7.109  1.00  0.00     0.213 HD
ENDBRANCH  50  56
BRANCH  53  58
HETATM   58  C22 UNL     1     -10.728  -2.050   5.944  1.00  0.00     0.199 C 
BRANCH  58  59
HETATM   59  O11 UNL     1      -9.366  -2.123   6.330  1.00  0.00    -0.399 OA
ATOM     60  H11 UNL     1      -8.879  -2.555   5.638  1.00  0.00     0.209 HD
ENDBRANCH  58  59
ENDBRANCH  53  58
ENDBRANCH  44  45
ENDBRANCH   6  44
TORSDOF 19
ENDMDL
MODEL 2
REMARK VINA RESULT: -7.204798673      2.489      8.801
REMARK  19 active torsions:
REMARK  status: ('A' for Active; 'I' for Inactive)
REMARK    1  A    between atoms: O1_2  and  C2_3 
REMARK    2  A    between atoms: C3_5  and  C4_6 
REMARK    3  A    between atoms: C4_6  and  O3_7 
REMARK    4  A    between atoms: C5_9  and  O4_10 
REMARK    5  A    between atoms: C6_12  and  O5_13 
REMARK    6  A    between atoms: O5_13  and  C7_14 
REMARK    7  A    between atoms: C8_16  and  C9_17 
REMARK    8  A    between atoms: C9_17  and  O7_18 
REMARK    9  A    between atoms: C10_20  and  O8_21 
REMARK   10  A    between atoms: O8_21  and  C11_22 
REMARK   11  A    between atoms: C12_23  and  N1_24 
REMARK   12  A    between atoms: C13_31  and  O9_32 
REMARK   13  A    between atoms: O9_32  and  C14_33 
REMARK   14  A    between atoms: C19_38  and  O10_40 
REMARK   15  A    between atoms: C21_45  and  C22_46 
REMARK   16  A    between atoms: C22_46  and  O11_47 
REMARK   17  A    between atoms: C23_49  and  O12_50 
REMARK   18  A    between atoms: C24_52  and  N4_53 
REMARK   19  A    between atoms: C25_58  and  O14_59 
ROOT
HETATM    1  C11 UNL     1      -7.721  -1.638  13.679  1.00  0.00     0.215 C 
HETATM    2  C12 UNL     1      -8.603  -0.445  13.668  1.00  0.00     0.414 C 
HETATM    3  N2  UNL     1      -8.295   0.397  14.792  1.00  0.00    -0.015 N 
ATOM      4  H21 UNL     1      -8.684   1.332  14.678  1.00  0.00     0.282 HD
ATOM      5  H22 UNL     1      -7.305   0.643  14.817  1.00  0.00     0.282 HD
HETATM    6  C13 UNL     1      -8.730  -0.222  16.046  1.00  0.00     0.355 C 
HETATM    7  C23 UNL     1      -8.627  -1.697  15.995  1.00  0.00     0.207 C 
HETATM    8  C24 UNL     1      -7.638  -2.256  15.021  1.00  0.00     0.249 C 
ENDROOT
BRANCH   1   9
HETATM    9  O8  UNL     1      -8.012  -2.546  12.663  1.00  0.00    -0.347 OA
BRANCH   9  10
HETATM   10  C10 UNL     1      -7.092  -3.557  12.519  1.00  0.00     0.297 C 
HETATM   11  C8  UNL     1      -7.789  -4.775  12.005  1.00  0.00     0.205 C 
HETATM   12  O6  UNL     1      -7.687  -4.714  10.638  1.00  0.00    -0.326 OA
HETATM   13  C7  UNL     1      -6.783  -3.739  10.308  1.00  0.00     0.416 C 
HETATM   14  O13 UNL     1      -6.249  -3.210  11.469  1.00  0.00    -0.305 OA
BRANCH  11  15
HETATM   15  C9  UNL     1      -7.088  -6.059  12.464  1.00  0.00     0.201 C 
BRANCH  15  16
HETATM   16  O7  UNL     1      -7.067  -6.991  11.432  1.00  0.00    -0.398 OA
ATOM     17  H7  UNL     1      -6.610  -7.777  11.708  1.00  0.00     0.209 HD
ENDBRANCH  15  16
ENDBRANCH  11  15
BRANCH  13  18
HETATM   18  O5  UNL     1      -7.268  -2.699   9.550  1.00  0.00    -0.328 OA
BRANCH  18  19
HETATM   19  C6  UNL     1      -8.481  -3.016   8.947  1.00  0.00     0.191 C 
HETATM   20  C5  UNL     1      -8.629  -2.345   7.599  1.00  0.00     0.181 C 
HETATM   21  C3  UNL     1     -10.015  -1.823   7.359  1.00  0.00     0.179 C 
HETATM   22  O2  UNL     1     -11.008  -2.685   7.755  1.00  0.00    -0.349 OA
HETATM   23  C2  UNL     1     -10.907  -3.142   9.060  1.00  0.00     0.290 C 
HETATM   24  C25 UNL     1      -9.672  -2.650   9.771  1.00  0.00     0.205 C 
BRANCH  20  25
HETATM   25  O4  UNL     1      -7.768  -1.232   7.613  1.00  0.00    -0.390 OA
ATOM     26  H4  UNL     1      -7.052  -1.443   8.201  1.00  0.00     0.210 HD
ENDBRANCH  20  25
BRANCH  21  27
HETATM   27  C4  UNL     1     -10.161  -1.661   5.839  1.00  0.00     0.198 C 
BRANCH  27  28
HETATM   28  O3  UNL     1      -9.657  -0.400   5.525  1.00  0.00    -0.398 OA
ATOM     29  H3  UNL     1      -9.792  -0.280   4.592  1.00  0.00     0.209 HD
ENDBRANCH  27  28
ENDBRANCH  21  27
BRANCH  23  30
HETATM   30  O1  UNL     1     -12.055  -2.849   9.788  1.00  0.00    -0.363 OA
HETATM   31  C1  UNL     1     -13.180  -2.820   8.967  1.00  0.00     0.204 C 
ENDBRANCH  23  30
BRANCH  24  32
HETATM   32  O14 UNL     1      -9.721  -1.323  10.124  1.00  0.00    -0.388 OA
ATOM     33  H14 UNL     1      -9.420  -1.147  11.007  1.00  0.00     0.210 HD
ENDBRANCH  24  32
ENDBRANCH  18  19
ENDBRANCH  13  18
ENDBRANCH   9  10
ENDBRANCH   1   9
BRANCH   2  34
HETATM   34  N1  UNL     1      -8.401   0.379  12.466  1.00  0.00    -0.048 N 
ATOM     35  H13 UNL     1      -7.557   0.102  11.965  1.00  0.00     0.276 HD
ATOM     36  H12 UNL     1      -9.093   0.162  11.748  1.00  0.00     0.276 HD
ATOM     37  H11 UNL     1      -8.392   1.375  12.682  1.00  0.00     0.276 HD
ENDBRANCH   2  34
BRANCH   8  38
HETATM   38  N4  UNL     1      -6.309  -2.120  15.640  1.00  0.00    -0.070 N 
ATOM     39  H43 UNL     1      -5.608  -1.866  14.944  1.00  0.00     0.274 HD
ATOM     40  H42 UNL     1      -6.267  -1.289  16.230  1.00  0.00     0.274 HD
ATOM     41  H41 UNL     1      -6.022  -2.949  16.160  1.00  0.00     0.274 HD
ENDBRANCH   8  38
BRANCH   7  42
HETATM   42  O12 UNL     1      -8.425  -2.330  17.211  1.00  0.00    -0.389 OA
ATOM     43  H12 UNL     1      -8.041  -3.199  17.166  1.00  0.00     0.210 HD
ENDBRANCH   7  42
BRANCH   6  44
HETATM   44  O9  UNL     1      -7.957   0.298  17.070  1.00  0.00    -0.349 OA
BRANCH  44  45
HETATM   45  C14 UNL     1      -8.628   1.188  17.899  1.00  0.00     0.164 C 
HETATM   46  C15 UNL     1      -8.876   0.565  19.247  1.00  0.00     0.035 C 
HETATM   47  C16 UNL     1      -9.843   1.447  20.019  1.00  0.00     0.017 C 
HETATM   48  C17 UNL     1      -7.648   0.378  20.038  1.00  0.00    -0.019 C 
HETATM   49  C18 UNL     1      -6.499   1.012  20.137  1.00  0.00     0.037 C 
HETATM   50  C19 UNL     1      -6.066   2.211  19.416  1.00  0.00     0.239 C 
HETATM   51  C20 UNL     1      -6.332   3.425  20.283  1.00  0.00     0.083 C 
HETATM   52  N3  UNL     1      -6.514   2.354  18.073  1.00  0.00    -0.031 N 
HETATM   53  C21 UNL     1      -7.929   2.521  18.045  1.00  0.00     0.242 C 
ATOM     54  H32 UNL     1      -6.031   3.109  17.588  1.00  0.00     0.281 HD
ATOM     55  H31 UNL     1      -6.210   1.578  17.485  1.00  0.00     0.281 HD
BRANCH  50  56
HETATM   56  O10 UNL     1      -4.647   2.128  19.348  1.00  0.00    -0.362 OA
ATOM     57  H10 UNL     1      -4.442   1.960  18.435  1.00  0.00     0.213 HD
ENDBRANCH  50  56
BRANCH  53  58
HETATM   58  C22 UNL     1      -8.304   3.507  16.978  1.00  0.00     0.199 C 
BRANCH  58  59
HETATM   59  O11 UNL     1      -7.566   3.203  15.806  1.00  0.00    -0.399 OA
ATOM     60  H11 UNL     1      -8.165   3.184  15.069  1.00  0.00     0.209 HD
ENDBRANCH  58  59
ENDBRANCH  53  58
ENDBRANCH  44  45
ENDBRANCH   6  44
TORSDOF 19
ENDMDL
MODEL 3
REMARK VINA RESULT: -7.204327616      2.651      8.718
REMARK  19 active torsions:
REMARK  status: ('A' for Active; 'I' for Inactive)
REMARK    1  A    between atoms: O1_2  and  C2_3 
REMARK    2  A    between atoms: C3_5  and  C4_6 
REMARK    3  A    between atoms: C4_6  and  O3_7 
REMARK    4  A    between atoms: C5_9  and  O4_10 
REMARK    5  A    between atoms: C6_12  and  O5_13 
REMARK    6  A    between atoms: O5_13  and  C7_14 
REMARK    7  A    between atoms: C8_16  and  C9_17 
REMARK    8  A    between atoms: C9_17  and  O7_18 
REMARK    9  A    between atoms: C10_20  and  O8_21 
REMARK   10  A    between atoms: O8_21  and  C11_22 
REMARK   11  A    between atoms: C12_23  and  N1_24 
REMARK   12  A    between atoms: C13_31  and  O9_32 
REMARK   13  A    between atoms: O9_32  and  C14_33 
REMARK   14  A    between atoms: C19_38  and  O10_40 
REMARK   15  A    between atoms: C21_45  and  C22_46 
REMARK   16  A    between atoms: C22_46  and  O11_47 
REMARK   17  A    between atoms: C23_49  and  O12_50 
REMARK   18  A    between atoms: C24_52  and  N4_53 
REMARK   19  A    between atoms: C25_58  and  O14_59 
ROOT
HETATM    1  C11 UNL     1      -8.621  -1.952  14.198  1.00  0.00     0.215 C 
HETATM    2  C12 UNL     1      -8.835  -2.659  15.485  1.00  0.00     0.414 C 
HETATM    3  N2  UNL     1      -8.639  -1.747  16.578  1.00  0.00    -0.015 N 
ATOM      4  H21 UNL     1      -9.025  -2.114  17.448  1.00  0.00     0.282 HD
ATOM      5  H22 UNL     1      -9.225  -0.917  16.486  1.00  0.00     0.282 HD
HETATM    6  C13 UNL     1      -7.224  -1.396  16.721  1.00  0.00     0.355 C 
HETATM    7  C23 UNL     1      -6.531  -1.367  15.414  1.00  0.00     0.207 C 
HETATM    8  C24 UNL     1      -7.394  -1.126  14.215  1.00  0.00     0.249 C 
ENDROOT
BRANCH   1   9
HETATM    9  O8  UNL     1      -8.716  -2.789  13.088  1.00  0.00    -0.347 OA
BRANCH   9  10
HETATM   10  C10 UNL     1      -7.620  -3.593  12.885  1.00  0.00     0.297 C 
HETATM   11  C8  UNL     1      -8.058  -4.839  12.186  1.00  0.00     0.205 C 
HETATM   12  O6  UNL     1      -7.913  -4.585  10.845  1.00  0.00    -0.326 OA
HETATM   13  C7  UNL     1      -7.191  -3.431  10.692  1.00  0.00     0.416 C 
HETATM   14  O13 UNL     1      -6.813  -2.970  11.940  1.00  0.00    -0.305 OA
BRANCH  11  15
HETATM   15  C9  UNL     1      -7.152  -6.026  12.533  1.00  0.00     0.201 C 
BRANCH  15  16
HETATM   16  O7  UNL     1      -7.051  -6.889  11.445  1.00  0.00    -0.398 OA
ATOM     17  H7  UNL     1      -6.276  -7.432  11.527  1.00  0.00     0.209 HD
ENDBRANCH  15  16
ENDBRANCH  11  15
BRANCH  13  18
HETATM   18  O5  UNL     1      -7.828  -2.405  10.034  1.00  0.00    -0.328 OA
BRANCH  18  19
HETATM   19  C6  UNL     1      -8.949  -2.849   9.339  1.00  0.00     0.191 C 
HETATM   20  C5  UNL     1      -8.943  -2.373   7.903  1.00  0.00     0.181 C 
HETATM   21  C3  UNL     1     -10.299  -1.943   7.427  1.00  0.00     0.179 C 
HETATM   22  O2  UNL     1     -11.315  -2.781   7.817  1.00  0.00    -0.349 OA
HETATM   23  C2  UNL     1     -11.366  -3.054   9.175  1.00  0.00     0.290 C 
HETATM   24  C25 UNL     1     -10.241  -2.422   9.955  1.00  0.00     0.205 C 
BRANCH  20  25
HETATM   25  O4  UNL     1      -8.115  -1.236   7.865  1.00  0.00    -0.390 OA
ATOM     26  H4  UNL     1      -7.548  -1.280   8.626  1.00  0.00     0.210 HD
ENDBRANCH  20  25
BRANCH  21  27
HETATM   27  C4  UNL     1     -10.258  -1.995   5.893  1.00  0.00     0.198 C 
BRANCH  27  28
HETATM   28  O3  UNL     1      -9.726  -0.777   5.470  1.00  0.00    -0.398 OA
ATOM     29  H3  UNL     1      -9.674  -0.820   4.522  1.00  0.00     0.209 HD
ENDBRANCH  27  28
ENDBRANCH  21  27
BRANCH  23  30
HETATM   30  O1  UNL     1     -12.603  -2.709   9.712  1.00  0.00    -0.363 OA
HETATM   31  C1  UNL     1     -13.614  -2.814   8.759  1.00  0.00     0.204 C 
ENDBRANCH  23  30
BRANCH  24  32
HETATM   32  O14 UNL     1     -10.364  -1.062  10.110  1.00  0.00    -0.388 OA
ATOM     33  H14 UNL     1      -9.784  -0.694  10.767  1.00  0.00     0.210 HD
ENDBRANCH  24  32
ENDBRANCH  18  19
ENDBRANCH  13  18
ENDBRANCH   9  10
ENDBRANCH   1   9
BRANCH   2  34
HETATM   34  N1  UNL     1     -10.210  -3.168  15.612  1.00  0.00    -0.048 N 
ATOM     35  H13 UNL     1     -10.473  -3.283  16.590  1.00  0.00     0.276 HD
ATOM     36  H12 UNL     1     -10.893  -2.460  15.344  1.00  0.00     0.276 HD
ATOM     37  H11 UNL     1     -10.347  -4.032  15.088  1.00  0.00     0.276 HD
ENDBRANCH   2  34
BRANCH   8  38
HETATM   38  N4  UNL     1      -7.668   0.321  14.175  1.00  0.00    -0.070 N 
ATOM     39  H43 UNL     1      -8.655   0.498  13.987  1.00  0.00     0.274 HD
ATOM     40  H42 UNL     1      -7.599   0.729  15.106  1.00  0.00     0.274 HD
ATOM     41  H41 UNL     1      -7.076   0.823  13.513  1.00  0.00     0.274 HD
ENDBRANCH   8  38
BRANCH   7  42
HETATM   42  O12 UNL     1      -5.441  -0.516  15.327  1.00  0.00    -0.389 OA
ATOM     43  H12 UNL     1      -4.603  -0.933  15.164  1.00  0.00     0.210 HD
ENDBRANCH   7  42
BRANCH   6  44
HETATM   44  O9  UNL     1      -7.150  -0.166  17.353  1.00  0.00    -0.349 OA
BRANCH  44  45
HETATM   45  C14 UNL     1      -8.293   0.184  18.060  1.00  0.00     0.164 C 
HETATM   46  C15 UNL     1      -8.149  -0.196  19.510  1.00  0.00     0.035 C 
HETATM   47  C16 UNL     1      -9.504  -0.058  20.185  1.00  0.00     0.017 C 
HETATM   48  C17 UNL     1      -7.159   0.622  20.232  1.00  0.00    -0.019 C 
HETATM   49  C18 UNL     1      -6.729   1.861  20.138  1.00  0.00     0.037 C 
HETATM   50  C19 UNL     1      -7.157   2.894  19.191  1.00  0.00     0.239 C 
HETATM   51  C20 UNL     1      -8.215   3.755  19.850  1.00  0.00     0.083 C 
HETATM   52  N3  UNL     1      -7.502   2.464  17.879  1.00  0.00    -0.031 N 
HETATM   53  C21 UNL     1      -8.666   1.643  17.923  1.00  0.00     0.242 C 
ATOM     54  H32 UNL     1      -7.612   3.248  17.236  1.00  0.00     0.281 HD
ATOM     55  H31 UNL     1      -6.723   1.997  17.413  1.00  0.00     0.281 HD
BRANCH  50  56
HETATM   56  O10 UNL     1      -6.040   3.762  19.036  1.00  0.00    -0.362 OA
ATOM     57  H10 UNL     1      -6.383   4.556  18.642  1.00  0.00     0.213 HD
ENDBRANCH  50  56
BRANCH  53  58
HETATM   58  C22 UNL     1      -9.532   1.924  16.731  1.00  0.00     0.199 C 
BRANCH  58  59
HETATM   59  O11 UNL     1      -9.969   0.687  16.192  1.00  0.00    -0.399 OA
ATOM     60  H11 UNL     1      -9.774   0.679  15.262  1.00  0.00     0.209 HD
ENDBRANCH  58  59
ENDBRANCH  53  58
ENDBRANCH  44  45
ENDBRANCH   6  44
TORSDOF 19
ENDMDL
MODEL 4
REMARK VINA RESULT: -7.196470874      3.014      5.169
REMARK  19 active torsions:
REMARK  status: ('A' for Active; 'I' for Inactive)
REMARK    1  A    between atoms: O1_2  and  C2_3 
REMARK    2  A    between atoms: C3_5  and  C4_6 
REMARK    3  A    between atoms: C4_6  and  O3_7 
REMARK    4  A    between atoms: C5_9  and  O4_10 
REMARK    5  A    between atoms: C6_12  and  O5_13 
REMARK    6  A    between atoms: O5_13  and  C7_14 
REMARK    7  A    between atoms: C8_16  and  C9_17 
REMARK    8  A    between atoms: C9_17  and  O7_18 
REMARK    9  A    between atoms: C10_20  and  O8_21 
REMARK   10  A    between atoms: O8_21  and  C11_22 
REMARK   11  A    between atoms: C12_23  and  N1_24 
REMARK   12  A    between atoms: C13_31  and  O9_32 
REMARK   13  A    between atoms: O9_32  and  C14_33 
REMARK   14  A    between atoms: C19_38  and  O10_40 
REMARK   15  A    between atoms: C21_45  and  C22_46 
REMARK   16  A    between atoms: C22_46  and  O11_47 
REMARK   17  A    between atoms: C23_49  and  O12_50 
REMARK   18  A    between atoms: C24_52  and  N4_53 
REMARK   19  A    between atoms: C25_58  and  O14_59 
ROOT
HETATM    1  C11 UNL     1      -9.961  -2.024  10.406  1.00  0.00     0.215 C 
HETATM    2  C12 UNL     1     -11.087  -2.244   9.464  1.00  0.00     0.414 C 
HETATM    3  N2  UNL     1     -11.781  -1.006   9.241  1.00  0.00    -0.015 N 
ATOM      4  H21 UNL     1     -12.381  -1.054   8.418  1.00  0.00     0.282 HD
ATOM      5  H22 UNL     1     -11.148  -0.270   8.928  1.00  0.00     0.282 HD
HETATM    6  C13 UNL     1     -12.531  -0.602  10.434  1.00  0.00     0.355 C 
HETATM    7  C23 UNL     1     -11.847  -1.017  11.678  1.00  0.00     0.207 C 
HETATM    8  C24 UNL     1     -10.368  -1.222  11.581  1.00  0.00     0.249 C 
ENDROOT
BRANCH   1   9
HETATM    9  O8  UNL     1      -9.284  -3.196  10.737  1.00  0.00    -0.347 OA
BRANCH   9  10
HETATM   10  C10 UNL     1      -8.324  -3.576   9.830  1.00  0.00     0.297 C 
HETATM   11  C8  UNL     1      -7.378  -2.437   9.623  1.00  0.00     0.205 C 
HETATM   12  O6  UNL     1      -6.362  -2.628  10.527  1.00  0.00    -0.326 OA
HETATM   13  C7  UNL     1      -6.473  -3.888  11.053  1.00  0.00     0.416 C 
HETATM   14  O13 UNL     1      -7.529  -4.539  10.440  1.00  0.00    -0.305 OA
BRANCH  11  15
HETATM   15  C9  UNL     1      -6.761  -2.467   8.220  1.00  0.00     0.201 C 
BRANCH  15  16
HETATM   16  O7  UNL     1      -7.420  -3.398   7.424  1.00  0.00    -0.398 OA
ATOM     17  H7  UNL     1      -7.213  -4.280   7.708  1.00  0.00     0.209 HD
ENDBRANCH  15  16
ENDBRANCH  11  15
BRANCH  13  18
HETATM   18  O5  UNL     1      -6.663  -3.958  12.413  1.00  0.00    -0.328 OA
BRANCH  18  19
HETATM   19  C6  UNL     1      -5.677  -4.716  13.038  1.00  0.00     0.191 C 
HETATM   20  C5  UNL     1      -6.126  -6.143  13.263  1.00  0.00     0.181 C 
HETATM   21  C3  UNL     1      -5.701  -6.681  14.598  1.00  0.00     0.179 C 
HETATM   22  O2  UNL     1      -4.413  -6.356  14.943  1.00  0.00    -0.349 OA
HETATM   23  C2  UNL     1      -4.106  -5.006  14.871  1.00  0.00     0.290 C 
HETATM   24  C25 UNL     1      -5.243  -4.162  14.355  1.00  0.00     0.205 C 
BRANCH  20  25
HETATM   25  O4  UNL     1      -7.533  -6.123  13.257  1.00  0.00    -0.390 OA
ATOM     26  H4  UNL     1      -7.805  -6.028  12.352  1.00  0.00     0.210 HD
ENDBRANCH  20  25
BRANCH  21  27
HETATM   27  C4  UNL     1      -5.747  -8.212  14.483  1.00  0.00     0.198 C 
BRANCH  27  28
HETATM   28  O3  UNL     1      -4.652  -8.584  13.703  1.00  0.00    -0.398 OA
ATOM     29  H3  UNL     1      -4.995  -8.805  12.845  1.00  0.00     0.209 HD
ENDBRANCH  27  28
ENDBRANCH  21  27
BRANCH  23  30
HETATM   30  O1  UNL     1      -3.640  -4.529  16.092  1.00  0.00    -0.363 OA
HETATM   31  C1  UNL     1      -2.280  -4.237  16.035  1.00  0.00     0.204 C 
ENDBRANCH  23  30
BRANCH  24  32
HETATM   32  O14 UNL     1      -6.268  -3.993  15.256  1.00  0.00    -0.388 OA
ATOM     33  H14 UNL     1      -6.662  -3.129  15.235  1.00  0.00     0.210 HD
ENDBRANCH  24  32
ENDBRANCH  18  19
ENDBRANCH  13  18
ENDBRANCH   9  10
ENDBRANCH   1   9
BRANCH   2  34
HETATM   34  N1  UNL     1     -10.621  -2.701   8.146  1.00  0.00    -0.048 N 
ATOM     35  H13 UNL     1     -11.377  -2.693   7.462  1.00  0.00     0.276 HD
ATOM     36  H12 UNL     1     -10.005  -2.013   7.713  1.00  0.00     0.276 HD
ATOM     37  H11 UNL     1     -10.176  -3.617   8.194  1.00  0.00     0.276 HD
ENDBRANCH   2  34
BRANCH   8  38
HETATM   38  N4  UNL     1      -9.752   0.115  11.612  1.00  0.00    -0.070 N 
ATOM     39  H43 UNL     1      -9.575   0.412  12.572  1.00  0.00     0.274 HD
ATOM     40  H42 UNL     1      -8.793   0.081  11.267  1.00  0.00     0.274 HD
ATOM     41  H41 UNL     1     -10.293   0.818  11.108  1.00  0.00     0.274 HD
ENDBRANCH   8  38
BRANCH   7  42
HETATM   42  O12 UNL     1     -12.091  -0.230  12.792  1.00  0.00    -0.389 OA
ATOM     43  H12 UNL     1     -12.272   0.687  12.620  1.00  0.00     0.210 HD
ENDBRANCH   7  42
BRANCH   6  44
HETATM   44  O9  UNL     1     -12.698   0.771  10.389  1.00  0.00    -0.349 OA
BRANCH  44  45
HETATM   45  C14 UNL     1     -13.621   1.207   9.447  1.00  0.00     0.164 C 
HETATM   46  C15 UNL     1     -14.971   1.400  10.086  1.00  0.00     0.035 C 
HETATM   47  C16 UNL     1     -16.003   1.600   8.989  1.00  0.00     0.017 C 
HETATM   48  C17 UNL     1     -15.018   2.542  11.015  1.00  0.00    -0.019 C 
HETATM   49  C18 UNL     1     -14.411   3.707  11.090  1.00  0.00     0.037 C 
HETATM   50  C19 UNL     1     -13.411   4.262  10.175  1.00  0.00     0.239 C 
HETATM   51  C20 UNL     1     -14.109   5.162   9.175  1.00  0.00     0.083 C 
HETATM   52  N3  UNL     1     -12.498   3.346   9.583  1.00  0.00    -0.031 N 
HETATM   53  C21 UNL     1     -13.192   2.457   8.712  1.00  0.00     0.242 C 
ATOM     54  H32 UNL     1     -11.731   3.823   9.109  1.00  0.00     0.281 HD
ATOM     55  H31 UNL     1     -11.952   2.845  10.285  1.00  0.00     0.281 HD
BRANCH  50  56
HETATM   56  O10 UNL     1     -12.621   5.150  10.960  1.00  0.00    -0.362 OA
ATOM     57  H10 UNL     1     -13.198   5.867  11.196  1.00  0.00     0.213 HD
ENDBRANCH  50  56
BRANCH  53  58
HETATM   58  C22 UNL     1     -12.354   2.173   7.501  1.00  0.00     0.199 C 
BRANCH  58  59
HETATM   59  O11 UNL     1     -11.062   1.777   7.930  1.00  0.00    -0.399 OA
ATOM     60  H11 UNL     1     -10.428   2.068   7.286  1.00  0.00     0.209 HD
ENDBRANCH  58  59
ENDBRANCH  53  58
ENDBRANCH  44  45
ENDBRANCH   6  44
TORSDOF 19
ENDMDL
MODEL 5
REMARK VINA RESULT: -7.178135835      2.518      8.034
REMARK  19 active torsions:
REMARK  status: ('A' for Active; 'I' for Inactive)
REMARK    1  A    between atoms: O1_2  and  C2_3 
REMARK    2  A    between atoms: C3_5  and  C4_6 
REMARK    3  A    between atoms: C4_6  and  O3_7 
REMARK    4  A    between atoms: C5_9  and  O4_10 
REMARK    5  A    between atoms: C6_12  and  O5_13 
REMARK    6  A    between atoms: O5_13  and  C7_14 
REMARK    7  A    between atoms: C8_16  and  C9_17 
REMARK    8  A    between atoms: C9_17  and  O7_18 
REMARK    9  A    between atoms: C10_20  and  O8_21 
REMARK   10  A    between atoms: O8_21  and  C11_22 
REMARK   11  A    between atoms: C12_23  and  N1_24 
REMARK   12  A    between atoms: C13_31  and  O9_32 
REMARK   13  A    between atoms: O9_32  and  C14_33 
REMARK   14  A    between atoms: C19_38  and  O10_40 
REMARK   15  A    between atoms: C21_45  and  C22_46 
REMARK   16  A    between atoms: C22_46  and  O11_47 
REMARK   17  A    between atoms: C23_49  and  O12_50 
REMARK   18  A    between atoms: C24_52  and  N4_53 
REMARK   19  A    between atoms: C25_58  and  O14_59 
ROOT
HETATM    1  C11 UNL     1      -8.708  -2.809  11.802  1.00  0.00     0.215 C 
HETATM    2  C12 UNL     1      -9.408  -3.774  12.687  1.00  0.00     0.414 C 
HETATM    3  N2  UNL     1      -9.841  -3.108  13.884  1.00  0.00    -0.015 N 
ATOM      4  H21 UNL     1     -10.538  -3.655  14.387  1.00  0.00     0.282 HD
ATOM      5  H22 UNL     1     -10.409  -2.288  13.675  1.00  0.00     0.282 HD
HETATM    6  C13 UNL     1      -8.700  -2.771  14.739  1.00  0.00     0.355 C 
HETATM    7  C23 UNL     1      -7.492  -2.457  13.943  1.00  0.00     0.207 C 
HETATM    8  C24 UNL     1      -7.729  -1.984  12.544  1.00  0.00     0.249 C 
ENDROOT
BRANCH   1   9
HETATM    9  O8  UNL     1      -8.186  -3.397  10.651  1.00  0.00    -0.347 OA
BRANCH   9  10
HETATM   10  C10 UNL     1      -7.166  -2.690  10.062  1.00  0.00     0.297 C 
HETATM   11  C8  UNL     1      -6.319  -3.634   9.271  1.00  0.00     0.205 C 
HETATM   12  O6  UNL     1      -6.836  -3.624   8.000  1.00  0.00    -0.326 OA
HETATM   13  C7  UNL     1      -7.721  -2.584   7.894  1.00  0.00     0.416 C 
HETATM   14  O13 UNL     1      -7.729  -1.878   9.084  1.00  0.00    -0.305 OA
BRANCH  11  15
HETATM   15  C9  UNL     1      -4.868  -3.147   9.184  1.00  0.00     0.201 C 
BRANCH  15  16
HETATM   16  O7  UNL     1      -4.188  -3.444  10.361  1.00  0.00    -0.398 OA
ATOM     17  H7  UNL     1      -3.520  -4.100  10.199  1.00  0.00     0.209 HD
ENDBRANCH  15  16
ENDBRANCH  11  15
BRANCH  13  18
HETATM   18  O5  UNL     1      -9.019  -2.926   7.594  1.00  0.00    -0.328 OA
BRANCH  18  19
HETATM   19  C6  UNL     1      -9.914  -1.912   7.923  1.00  0.00     0.191 C 
HETATM   20  C5  UNL     1     -10.854  -2.331   9.030  1.00  0.00     0.181 C 
HETATM   21  C3  UNL     1     -12.262  -1.863   8.805  1.00  0.00     0.179 C 
HETATM   22  O2  UNL     1     -12.351  -0.571   8.348  1.00  0.00    -0.349 OA
HETATM   23  C2  UNL     1     -11.585  -0.288   7.228  1.00  0.00     0.290 C 
HETATM   24  C25 UNL     1     -10.744  -1.453   6.769  1.00  0.00     0.205 C 
BRANCH  20  25
HETATM   25  O4  UNL     1     -10.883  -3.738   9.016  1.00  0.00    -0.390 OA
ATOM     26  H4  UNL     1     -10.766  -4.026   9.914  1.00  0.00     0.210 HD
ENDBRANCH  20  25
BRANCH  21  27
HETATM   27  C4  UNL     1     -12.952  -1.886  10.177  1.00  0.00     0.198 C 
BRANCH  27  28
HETATM   28  O3  UNL     1     -11.952  -1.682  11.127  1.00  0.00    -0.398 OA
ATOM     29  H3  UNL     1     -11.903  -0.744  11.270  1.00  0.00     0.209 HD
ENDBRANCH  27  28
ENDBRANCH  21  27
BRANCH  23  30
HETATM   30  O1  UNL     1     -12.372   0.201   6.190  1.00  0.00    -0.363 OA
HETATM   31  C1  UNL     1     -13.485   0.883   6.678  1.00  0.00     0.204 C 
ENDBRANCH  23  30
BRANCH  24  32
HETATM   32  O14 UNL     1     -11.462  -2.455   6.162  1.00  0.00    -0.388 OA
ATOM     33  H14 UNL     1     -10.999  -3.283   6.108  1.00  0.00     0.210 HD
ENDBRANCH  24  32
ENDBRANCH  18  19
ENDBRANCH  13  18
ENDBRANCH   9  10
ENDBRANCH   1   9
BRANCH   2  34
HETATM   34  N1  UNL     1     -10.619  -4.321  12.056  1.00  0.00    -0.048 N 
ATOM     35  H13 UNL     1     -10.857  -5.235  12.442  1.00  0.00     0.276 HD
ATOM     36  H12 UNL     1     -11.450  -3.805  12.342  1.00  0.00     0.276 HD
ATOM     37  H11 UNL     1     -10.537  -4.359  11.040  1.00  0.00     0.276 HD
ENDBRANCH   2  34
BRANCH   8  38
HETATM   38  N4  UNL     1      -8.117  -0.566  12.635  1.00  0.00    -0.070 N 
ATOM     39  H43 UNL     1      -7.414   0.031  12.200  1.00  0.00     0.274 HD
ATOM     40  H42 UNL     1      -8.908  -0.367  12.024  1.00  0.00     0.274 HD
ATOM     41  H41 UNL     1      -8.310  -0.264  13.590  1.00  0.00     0.274 HD
ENDBRANCH   8  38
BRANCH   7  42
HETATM   42  O12 UNL     1      -6.589  -1.588  14.535  1.00  0.00    -0.389 OA
ATOM     43  H12 UNL     1      -6.550  -0.715  14.162  1.00  0.00     0.210 HD
ENDBRANCH   7  42
BRANCH   6  44
HETATM   44  O9  UNL     1      -9.065  -1.700  15.537  1.00  0.00    -0.349 OA
BRANCH  44  45
HETATM   45  C14 UNL     1     -10.330  -1.810  16.100  1.00  0.00     0.164 C 
HETATM   46  C15 UNL     1     -10.231  -2.306  17.519  1.00  0.00     0.035 C 
HETATM   47  C16 UNL     1     -11.623  -2.678  18.001  1.00  0.00     0.017 C 
HETATM   48  C17 UNL     1      -9.641  -1.321  18.441  1.00  0.00    -0.019 C 
HETATM   49  C18 UNL     1      -9.625  -0.008  18.514  1.00  0.00     0.037 C 
HETATM   50  C19 UNL     1     -10.255   0.953  17.607  1.00  0.00     0.239 C 
HETATM   51  C20 UNL     1     -11.599   1.357  18.178  1.00  0.00     0.083 C 
HETATM   52  N3  UNL     1     -10.298   0.607  16.227  1.00  0.00    -0.031 N 
HETATM   53  C21 UNL     1     -11.134  -0.531  16.035  1.00  0.00     0.242 C 
ATOM     54  H32 UNL     1     -10.584   1.393  15.644  1.00  0.00     0.281 HD
ATOM     55  H31 UNL     1      -9.365   0.464  15.840  1.00  0.00     0.281 HD
BRANCH  50  56
HETATM   56  O10 UNL     1      -9.466   2.136  17.688  1.00  0.00    -0.362 OA
ATOM     57  H10 UNL     1      -9.505   2.531  16.824  1.00  0.00     0.213 HD
ENDBRANCH  50  56
BRANCH  53  58
HETATM   58  C22 UNL     1     -11.909  -0.383  14.758  1.00  0.00     0.199 C 
BRANCH  58  59
HETATM   59  O11 UNL     1     -10.993  -0.360  13.677  1.00  0.00    -0.399 OA
ATOM     60  H11 UNL     1     -10.475   0.433  13.737  1.00  0.00     0.209 HD
ENDBRANCH  58  59
ENDBRANCH  53  58
ENDBRANCH  44  45
ENDBRANCH   6  44
TORSDOF 19
ENDMDL
