MODEL 1
REMARK VINA RESULT: -8.806902735      0.000      0.000
REMARK  6 active torsions:
REMARK  status: ('A' for Active; 'I' for Inactive)
REMARK    1  A    between atoms: C2_2  and  N3_25 
REMARK    2  A    between atoms: N1_3  and  N2_5 
REMARK       I    between atoms: N2_5  and  C3_7 
REMARK    3  A    between atoms: C3_7  and  C4_9 
REMARK    4  A    between atoms: C11_16  and  C12_17 
REMARK    5  A    between atoms: C12_17  and  C13_18 
REMARK    6  A    between atoms: C13_18  and  C14_19 
ROOT
HETATM    1  C4  UNL     1      25.206   6.572  16.214  1.00  0.00     0.084 C 
HETATM    2  C5  UNL     1      24.980   7.973  16.697  1.00  0.00     0.019 C 
HETATM    3  C6  UNL     1      24.929   8.110  18.179  1.00  0.00    -0.013 C 
HETATM    4  C7  UNL     1      26.114   7.520  18.891  1.00  0.00     0.005 C 
HETATM    5  C8  UNL     1      26.207   6.057  18.875  1.00  0.00     0.005 C 
HETATM    6  C9  UNL     1      25.046   5.288  18.387  1.00  0.00    -0.009 C 
HETATM    7  C10 UNL     1      23.906   5.467  19.425  1.00  0.00     0.014 C 
HETATM    8  C11 UNL     1      23.049   6.484  18.804  1.00  0.00    -0.039 C 
HETATM    9  C15 UNL     1      23.640   7.883  18.841  1.00  0.00     0.014 C 
HETATM   10  C16 UNL     1      23.041   6.080  17.331  1.00  0.00     0.015 C 
HETATM   11  C17 UNL     1      24.459   5.617  17.079  1.00  0.00     0.003 C 
ENDROOT
BRANCH   1  12
HETATM   12  C3  UNL     1      24.729   6.438  14.815  1.00  0.00     0.240 C 
HETATM   13  N2  UNL     1      23.979   5.303  14.402  1.00  0.00    -0.268 N 
ATOM     14  H2  UNL     1      23.781   4.587  15.100  1.00  0.00     0.190 HD
HETATM   15  O1  UNL     1      24.976   7.331  13.946  1.00  0.00    -0.271 OA
BRANCH  13  16
HETATM   16  N1  UNL     1      23.504   5.100  13.133  1.00  0.00    -0.287 N 
HETATM   17  C2  UNL     1      22.267   5.268  12.811  1.00  0.00     0.090 C 
HETATM   18  C1  UNL     1      21.339   5.704  13.913  1.00  0.00     0.090 C 
ATOM     19  H1  UNL     1      24.158   4.803  12.410  1.00  0.00     0.188 HD
BRANCH  17  20
HETATM   20  N3  UNL     1      21.805   5.053  11.495  1.00  0.00    -0.367 N 
HETATM   21  C18 UNL     1      20.391   4.943  11.214  1.00  0.00     0.154 C 
HETATM   22  C19 UNL     1      20.251   3.950  10.065  1.00  0.00     0.291 C 
HETATM   23  N4  UNL     1      20.855   4.466   8.854  1.00  0.00     0.087 N 
HETATM   24  C20 UNL     1      19.857   5.263   8.143  1.00  0.00     0.310 C 
HETATM   25  C21 UNL     1      22.011   5.272   9.089  1.00  0.00     0.291 C 
HETATM   26  C22 UNL     1      22.726   4.937  10.383  1.00  0.00     0.154 C 
ENDBRANCH  17  20
ENDBRANCH  13  16
ENDBRANCH   1  12
BRANCH   8  27
HETATM   27  C12 UNL     1      21.656   6.685  19.321  1.00  0.00     0.020 C 
BRANCH  27  28
HETATM   28  C13 UNL     1      21.220   6.027  20.552  1.00  0.00     0.114 C 
BRANCH  28  29
HETATM   29  C14 UNL     1      20.066   6.588  21.271  1.00  0.00     0.172 C 
HETATM   30  O2  UNL     1      19.356   7.518  20.836  1.00  0.00    -0.648 OA
HETATM   31  O3  UNL     1      19.749   6.042  22.525  1.00  0.00    -0.648 OA
ENDBRANCH  28  29
ENDBRANCH  27  28
ENDBRANCH   8  27
TORSDOF 6
ENDMDL
MODEL 2
REMARK VINA RESULT: -8.796991004      0.461      1.003
REMARK  6 active torsions:
REMARK  status: ('A' for Active; 'I' for Inactive)
REMARK    1  A    between atoms: C2_2  and  N3_25 
REMARK    2  A    between atoms: N1_3  and  N2_5 
REMARK       I    between atoms: N2_5  and  C3_7 
REMARK    3  A    between atoms: C3_7  and  C4_9 
REMARK    4  A    between atoms: C11_16  and  C12_17 
REMARK    5  A    between atoms: C12_17  and  C13_18 
REMARK    6  A    between atoms: C13_18  and  C14_19 
ROOT
HETATM    1  C4  UNL     1      25.249   6.610  16.268  1.00  0.00     0.084 C 
HETATM    2  C5  UNL     1      25.051   7.996  16.803  1.00  0.00     0.019 C 
HETATM    3  C6  UNL     1      24.988   8.077  18.289  1.00  0.00    -0.013 C 
HETATM    4  C7  UNL     1      26.153   7.432  18.988  1.00  0.00     0.005 C 
HETATM    5  C8  UNL     1      26.212   5.969  18.916  1.00  0.00     0.005 C 
HETATM    6  C9  UNL     1      25.038   5.247  18.389  1.00  0.00    -0.009 C 
HETATM    7  C10 UNL     1      23.893   5.412  19.423  1.00  0.00     0.014 C 
HETATM    8  C11 UNL     1      23.065   6.472  18.835  1.00  0.00    -0.039 C 
HETATM    9  C15 UNL     1      23.689   7.855  18.930  1.00  0.00     0.014 C 
HETATM   10  C16 UNL     1      23.062   6.126  17.347  1.00  0.00     0.015 C 
HETATM   11  C17 UNL     1      24.471   5.640  17.089  1.00  0.00     0.003 C 
ENDROOT
BRANCH   1  12
HETATM   12  C3  UNL     1      24.782   6.541  14.861  1.00  0.00     0.240 C 
HETATM   13  N2  UNL     1      24.082   5.403  14.375  1.00  0.00    -0.268 N 
ATOM     14  H2  UNL     1      23.913   4.638  15.028  1.00  0.00     0.190 HD
HETATM   15  O1  UNL     1      24.994   7.495  14.049  1.00  0.00    -0.271 OA
BRANCH  13  16
HETATM   16  N1  UNL     1      23.620   5.258  13.094  1.00  0.00    -0.287 N 
HETATM   17  C2  UNL     1      22.379   5.403  12.774  1.00  0.00     0.090 C 
HETATM   18  C1  UNL     1      21.433   5.744  13.894  1.00  0.00     0.090 C 
ATOM     19  H1  UNL     1      24.287   5.025  12.359  1.00  0.00     0.188 HD
BRANCH  17  20
HETATM   20  N3  UNL     1      21.931   5.249  11.445  1.00  0.00    -0.367 N 
HETATM   21  C18 UNL     1      22.816   5.501  10.330  1.00  0.00     0.154 C 
HETATM   22  C19 UNL     1      21.952   6.069   9.208  1.00  0.00     0.291 C 
HETATM   23  N4  UNL     1      20.996   5.089   8.739  1.00  0.00     0.087 N 
HETATM   24  C20 UNL     1      21.630   4.285   7.696  1.00  0.00     0.310 C 
HETATM   25  C21 UNL     1      20.516   4.220   9.767  1.00  0.00     0.291 C 
HETATM   26  C22 UNL     1      20.575   4.834  11.152  1.00  0.00     0.154 C 
ENDBRANCH  17  20
ENDBRANCH  13  16
ENDBRANCH   1  12
BRANCH   8  27
HETATM   27  C12 UNL     1      21.673   6.685  19.347  1.00  0.00     0.020 C 
BRANCH  27  28
HETATM   28  C13 UNL     1      21.225   6.026  20.573  1.00  0.00     0.114 C 
BRANCH  28  29
HETATM   29  C14 UNL     1      20.063   6.587  21.280  1.00  0.00     0.172 C 
HETATM   30  O2  UNL     1      19.347   7.504  20.831  1.00  0.00    -0.648 OA
HETATM   31  O3  UNL     1      19.746   6.052  22.539  1.00  0.00    -0.648 OA
ENDBRANCH  28  29
ENDBRANCH  27  28
ENDBRANCH   8  27
TORSDOF 6
ENDMDL
MODEL 3
REMARK VINA RESULT: -8.702678862      3.398      9.615
REMARK  6 active torsions:
REMARK  status: ('A' for Active; 'I' for Inactive)
REMARK    1  A    between atoms: C2_2  and  N3_25 
REMARK    2  A    between atoms: N1_3  and  N2_5 
REMARK       I    between atoms: N2_5  and  C3_7 
REMARK    3  A    between atoms: C3_7  and  C4_9 
REMARK    4  A    between atoms: C11_16  and  C12_17 
REMARK    5  A    between atoms: C12_17  and  C13_18 
REMARK    6  A    between atoms: C13_18  and  C14_19 
ROOT
HETATM    1  C4  UNL     1      22.344   5.293  12.215  1.00  0.00     0.084 C 
HETATM    2  C5  UNL     1      21.481   6.517  12.275  1.00  0.00     0.019 C 
HETATM    3  C6  UNL     1      20.878   6.906  10.969  1.00  0.00    -0.013 C 
HETATM    4  C7  UNL     1      20.127   5.797  10.286  1.00  0.00     0.005 C 
HETATM    5  C8  UNL     1      20.946   4.702   9.757  1.00  0.00     0.005 C 
HETATM    6  C9  UNL     1      22.411   4.878   9.721  1.00  0.00    -0.009 C 
HETATM    7  C10 UNL     1      22.718   5.971   8.662  1.00  0.00     0.014 C 
HETATM    8  C11 UNL     1      22.946   7.169   9.479  1.00  0.00    -0.039 C 
HETATM    9  C15 UNL     1      21.675   7.751  10.075  1.00  0.00     0.014 C 
HETATM   10  C16 UNL     1      23.748   6.635  10.664  1.00  0.00     0.015 C 
HETATM   11  C17 UNL     1      23.120   5.287  10.944  1.00  0.00     0.003 C 
ENDROOT
BRANCH   1  12
HETATM   12  C3  UNL     1      23.287   5.285  13.361  1.00  0.00     0.240 C 
HETATM   13  N2  UNL     1      22.868   5.685  14.659  1.00  0.00    -0.268 N 
ATOM     14  H2  UNL     1      21.897   5.975  14.773  1.00  0.00     0.190 HD
HETATM   15  O1  UNL     1      24.497   4.922  13.217  1.00  0.00    -0.271 OA
BRANCH  13  16
HETATM   16  N1  UNL     1      23.672   5.708  15.767  1.00  0.00    -0.287 N 
HETATM   17  C2  UNL     1      23.286   6.171  16.907  1.00  0.00     0.090 C 
HETATM   18  C1  UNL     1      21.878   6.700  16.974  1.00  0.00     0.090 C 
ATOM     19  H1  UNL     1      24.621   5.343  15.688  1.00  0.00     0.188 HD
BRANCH  17  20
HETATM   20  N3  UNL     1      24.136   6.181  18.033  1.00  0.00    -0.367 N 
HETATM   21  C18 UNL     1      25.396   6.890  18.005  1.00  0.00     0.154 C 
HETATM   22  C19 UNL     1      26.365   6.092  18.870  1.00  0.00     0.291 C 
HETATM   23  N4  UNL     1      25.945   6.089  20.255  1.00  0.00     0.087 N 
HETATM   24  C20 UNL     1      26.504   7.270  20.911  1.00  0.00     0.310 C 
HETATM   25  C21 UNL     1      24.526   6.093  20.424  1.00  0.00     0.291 C 
HETATM   26  C22 UNL     1      23.779   5.487  19.253  1.00  0.00     0.154 C 
ENDBRANCH  17  20
ENDBRANCH  13  16
ENDBRANCH   1  12
BRANCH   8  27
HETATM   27  C12 UNL     1      23.614   8.360   8.862  1.00  0.00     0.020 C 
BRANCH  27  28
HETATM   28  C13 UNL     1      24.545   8.194   7.747  1.00  0.00     0.114 C 
BRANCH  28  29
HETATM   29  C14 UNL     1      25.987   8.211   8.035  1.00  0.00     0.172 C 
HETATM   30  O2  UNL     1      26.470   8.225   9.185  1.00  0.00    -0.648 OA
HETATM   31  O3  UNL     1      26.871   8.211   6.944  1.00  0.00    -0.648 OA
ENDBRANCH  28  29
ENDBRANCH  27  28
ENDBRANCH   8  27
TORSDOF 6
ENDMDL
MODEL 4
REMARK VINA RESULT: -8.612612053      2.808      7.978
REMARK  6 active torsions:
REMARK  status: ('A' for Active; 'I' for Inactive)
REMARK    1  A    between atoms: C2_2  and  N3_25 
REMARK    2  A    between atoms: N1_3  and  N2_5 
REMARK       I    between atoms: N2_5  and  C3_7 
REMARK    3  A    between atoms: C3_7  and  C4_9 
REMARK    4  A    between atoms: C11_16  and  C12_17 
REMARK    5  A    between atoms: C12_17  and  C13_18 
REMARK    6  A    between atoms: C13_18  and  C14_19 
ROOT
HETATM    1  C4  UNL     1      23.807   5.221  12.003  1.00  0.00     0.084 C 
HETATM    2  C5  UNL     1      22.775   4.135  12.046  1.00  0.00     0.019 C 
HETATM    3  C6  UNL     1      21.679   4.292  11.049  1.00  0.00    -0.013 C 
HETATM    4  C7  UNL     1      22.158   4.473   9.635  1.00  0.00     0.005 C 
HETATM    5  C8  UNL     1      22.817   5.749   9.341  1.00  0.00     0.005 C 
HETATM    6  C9  UNL     1      22.749   6.820  10.354  1.00  0.00    -0.009 C 
HETATM    7  C10 UNL     1      21.274   7.297  10.424  1.00  0.00     0.014 C 
HETATM    8  C11 UNL     1      20.761   6.616  11.619  1.00  0.00    -0.039 C 
HETATM    9  C15 UNL     1      20.533   5.127  11.421  1.00  0.00     0.014 C 
HETATM   10  C16 UNL     1      21.922   6.725  12.606  1.00  0.00     0.015 C 
HETATM   11  C17 UNL     1      23.148   6.530  11.741  1.00  0.00     0.003 C 
ENDROOT
BRANCH   1  12
HETATM   12  C3  UNL     1      24.522   5.288  13.303  1.00  0.00     0.240 C 
HETATM   13  N2  UNL     1      23.808   5.301  14.532  1.00  0.00    -0.268 N 
ATOM     14  H2  UNL     1      22.790   5.262  14.488  1.00  0.00     0.190 HD
HETATM   15  O1  UNL     1      25.791   5.336  13.355  1.00  0.00    -0.271 OA
BRANCH  13  16
HETATM   16  N1  UNL     1      24.388   5.363  15.771  1.00  0.00    -0.287 N 
HETATM   17  C2  UNL     1      23.931   6.098  16.726  1.00  0.00     0.090 C 
HETATM   18  C1  UNL     1      22.703   6.912  16.417  1.00  0.00     0.090 C 
ATOM     19  H1  UNL     1      25.221   4.801  15.947  1.00  0.00     0.188 HD
BRANCH  17  20
HETATM   20  N3  UNL     1      24.549   6.141  17.994  1.00  0.00    -0.367 N 
HETATM   21  C18 UNL     1      25.844   6.760  18.168  1.00  0.00     0.154 C 
HETATM   22  C19 UNL     1      26.563   5.969  19.256  1.00  0.00     0.291 C 
HETATM   23  N4  UNL     1      25.887   6.104  20.529  1.00  0.00     0.087 N 
HETATM   24  C20 UNL     1      26.405   7.293  21.204  1.00  0.00     0.310 C 
HETATM   25  C21 UNL     1      24.468   6.216  20.416  1.00  0.00     0.291 C 
HETATM   26  C22 UNL     1      23.910   5.571  19.162  1.00  0.00     0.154 C 
ENDBRANCH  17  20
ENDBRANCH  13  16
ENDBRANCH   1  12
BRANCH   8  27
HETATM   27  C12 UNL     1      19.477   7.083  12.235  1.00  0.00     0.020 C 
BRANCH  27  28
HETATM   28  C13 UNL     1      19.439   7.516  13.631  1.00  0.00     0.114 C 
BRANCH  28  29
HETATM   29  C14 UNL     1      18.899   6.587  14.635  1.00  0.00     0.172 C 
HETATM   30  O2  UNL     1      17.691   6.510  14.938  1.00  0.00    -0.648 OA
HETATM   31  O3  UNL     1      19.803   5.736  15.289  1.00  0.00    -0.648 OA
ENDBRANCH  28  29
ENDBRANCH  27  28
ENDBRANCH   8  27
TORSDOF 6
ENDMDL
MODEL 5
REMARK VINA RESULT: -8.605629721      3.415      9.700
REMARK  6 active torsions:
REMARK  status: ('A' for Active; 'I' for Inactive)
REMARK    1  A    between atoms: C2_2  and  N3_25 
REMARK    2  A    between atoms: N1_3  and  N2_5 
REMARK       I    between atoms: N2_5  and  C3_7 
REMARK    3  A    between atoms: C3_7  and  C4_9 
REMARK    4  A    between atoms: C11_16  and  C12_17 
REMARK    5  A    between atoms: C12_17  and  C13_18 
REMARK    6  A    between atoms: C13_18  and  C14_19 
ROOT
HETATM    1  C4  UNL     1      21.919   5.162  11.938  1.00  0.00     0.084 C 
HETATM    2  C5  UNL     1      21.138   6.438  11.848  1.00  0.00     0.019 C 
HETATM    3  C6  UNL     1      20.545   6.700  10.506  1.00  0.00    -0.013 C 
HETATM    4  C7  UNL     1      19.716   5.565   9.970  1.00  0.00     0.005 C 
HETATM    5  C8  UNL     1      20.456   4.362   9.579  1.00  0.00     0.005 C 
HETATM    6  C9  UNL     1      21.928   4.436   9.515  1.00  0.00    -0.009 C 
HETATM    7  C10 UNL     1      22.292   5.365   8.326  1.00  0.00     0.014 C 
HETATM    8  C11 UNL     1      22.607   6.638   8.985  1.00  0.00    -0.039 C 
HETATM    9  C15 UNL     1      21.384   7.372   9.509  1.00  0.00     0.014 C 
HETATM   10  C16 UNL     1      23.388   6.205  10.225  1.00  0.00     0.015 C 
HETATM   11  C17 UNL     1      22.677   4.947  10.674  1.00  0.00     0.003 C 
ENDROOT
BRANCH   1  12
HETATM   12  C3  UNL     1      22.875   5.236  13.072  1.00  0.00     0.240 C 
HETATM   13  N2  UNL     1      22.464   5.713  14.347  1.00  0.00    -0.268 N 
ATOM     14  H2  UNL     1      21.491   6.000  14.453  1.00  0.00     0.190 HD
HETATM   15  O1  UNL     1      24.086   4.876  12.938  1.00  0.00    -0.271 OA
BRANCH  13  16
HETATM   16  N1  UNL     1      23.279   5.814  15.443  1.00  0.00    -0.287 N 
HETATM   17  C2  UNL     1      22.896   6.331  16.560  1.00  0.00     0.090 C 
HETATM   18  C1  UNL     1      21.478   6.835  16.613  1.00  0.00     0.090 C 
ATOM     19  H1  UNL     1      24.235   5.464  15.372  1.00  0.00     0.188 HD
BRANCH  17  20
HETATM   20  N3  UNL     1      23.757   6.421  17.673  1.00  0.00    -0.367 N 
HETATM   21  C18 UNL     1      24.617   5.317  18.037  1.00  0.00     0.154 C 
HETATM   22  C19 UNL     1      24.727   5.333  19.558  1.00  0.00     0.291 C 
HETATM   23  N4  UNL     1      25.403   6.528  20.019  1.00  0.00     0.087 N 
HETATM   24  C20 UNL     1      26.842   6.272  20.026  1.00  0.00     0.310 C 
HETATM   25  C21 UNL     1      25.140   7.680  19.215  1.00  0.00     0.291 C 
HETATM   26  C22 UNL     1      23.812   7.618  18.487  1.00  0.00     0.154 C 
ENDBRANCH  17  20
ENDBRANCH  13  16
ENDBRANCH   1  12
BRANCH   8  27
HETATM   27  C12 UNL     1      23.343   7.697   8.221  1.00  0.00     0.020 C 
BRANCH  27  28
HETATM   28  C13 UNL     1      24.709   8.064   8.591  1.00  0.00     0.114 C 
BRANCH  28  29
HETATM   29  C14 UNL     1      25.745   8.037   7.547  1.00  0.00     0.172 C 
HETATM   30  O2  UNL     1      25.537   7.695   6.365  1.00  0.00    -0.648 OA
HETATM   31  O3  UNL     1      27.046   8.419   7.908  1.00  0.00    -0.648 OA
ENDBRANCH  28  29
ENDBRANCH  27  28
ENDBRANCH   8  27
TORSDOF 6
ENDMDL
