MODEL 1
REMARK VINA RESULT: -7.966516697      0.000      0.000
REMARK  10 active torsions:
REMARK  status: ('A' for Active; 'I' for Inactive)
REMARK    1  A    between atoms: C2_2  and  O1_3 
REMARK    2  A    between atoms: O1_3  and  C3_4 
REMARK    3  A    between atoms: C3_4  and  C4_6 
REMARK       I    between atoms: N1_12  and  C9_13 
REMARK    4  A    between atoms: C9_13  and  C10_15 
REMARK    5  A    between atoms: C10_15  and  C11_16 
REMARK    6  A    between atoms: C10_15  and  N2_27 
REMARK    7  A    between atoms: C11_16  and  C12_17 
REMARK    8  A    between atoms: C15_21  and  O4_22 
REMARK       I    between atoms: N2_27  and  C18_29 
REMARK    9  A    between atoms: C18_29  and  O6_31 
REMARK   10  A    between atoms: O6_31  and  C19_32 
ROOT
HETATM    1  C10 UNL     1      43.621  47.603  20.640  1.00  0.00     0.086 C 
ENDROOT
BRANCH   1   2
HETATM    2  C9  UNL     1      44.426  48.191  21.685  1.00  0.00     0.267 C 
HETATM    3  N1  UNL     1      44.138  49.068  22.726  1.00  0.00    -0.332 N 
HETATM    4  C4  UNL     1      45.257  49.504  23.596  1.00  0.00     0.187 C 
HETATM    5  C8  UNL     1      42.915  49.651  23.158  1.00  0.00     0.143 C 
HETATM    6  C5  UNL     1      44.826  50.589  24.544  1.00  0.00     0.037 C 
HETATM    7  C6  UNL     1      44.007  51.676  23.946  1.00  0.00     0.020 C 
HETATM    8  C7  UNL     1      43.024  51.153  22.894  1.00  0.00     0.076 C 
HETATM    9  S1  UNL     1      43.762  51.520  21.285  1.00  0.00    -0.091 SA
HETATM   10  O3  UNL     1      45.664  47.801  21.612  1.00  0.00    -0.266 OA
BRANCH   4  11
HETATM   11  C3  UNL     1      45.610  48.340  24.439  1.00  0.00     0.282 C 
HETATM   12  O2  UNL     1      44.709  47.552  24.801  1.00  0.00    -0.263 OA
BRANCH  11  13
HETATM   13  O1  UNL     1      46.914  48.085  24.846  1.00  0.00    -0.320 OA
BRANCH  13  14
HETATM   14  C2  UNL     1      47.451  46.783  24.742  1.00  0.00     0.174 C 
HETATM   15  C1  UNL     1      47.704  46.259  26.128  1.00  0.00     0.034 C 
ENDBRANCH  13  14
ENDBRANCH  11  13
ENDBRANCH   4  11
ENDBRANCH   1   2
BRANCH   1  16
HETATM   16  C11 UNL     1      44.170  47.415  19.282  1.00  0.00     0.101 C 
BRANCH  16  17
HETATM   17  C12 UNL     1      43.244  46.611  18.401  1.00  0.00    -0.049 A 
HETATM   18  C13 UNL     1      42.573  47.197  17.356  1.00  0.00     0.034 A 
HETATM   19  C14 UNL     1      41.726  46.468  16.521  1.00  0.00     0.069 A 
HETATM   20 CL1  UNL     1      40.871  47.232  15.185  1.00  0.00    -0.081 Cl
HETATM   21  C15 UNL     1      41.538  45.119  16.728  1.00  0.00     0.109 A 
HETATM   22  C16 UNL     1      42.210  44.528  17.775  1.00  0.00     0.069 A 
HETATM   23 CL2  UNL     1      42.006  42.824  18.074  1.00  0.00    -0.081 Cl
HETATM   24  C17 UNL     1      43.058  45.262  18.609  1.00  0.00     0.034 A 
BRANCH  21  25
HETATM   25  O4  UNL     1      40.689  44.389  15.888  1.00  0.00    -0.357 OA
ATOM     26  H4  UNL     1      39.871  44.039  16.223  1.00  0.00     0.217 HD
ENDBRANCH  21  25
ENDBRANCH  16  17
ENDBRANCH   1  16
BRANCH   1  27
HETATM   27  N2  UNL     1      42.286  48.167  20.657  1.00  0.00    -0.301 N 
HETATM   28  C18 UNL     1      41.102  47.460  20.956  1.00  0.00     0.365 C 
HETATM   29  O5  UNL     1      41.182  46.246  21.236  1.00  0.00    -0.238 OA
ATOM     30  H2  UNL     1      42.195  49.158  20.434  1.00  0.00     0.171 HD
BRANCH  28  31
HETATM   31  O6  UNL     1      39.866  48.059  20.950  1.00  0.00    -0.294 OA
BRANCH  31  32
HETATM   32  C19 UNL     1      39.136  48.312  19.783  1.00  0.00     0.061 C 
HETATM   33  C20 UNL     1      37.660  48.556  20.104  1.00  0.00     0.046 C 
HETATM   34  C21 UNL     1      39.192  47.155  18.809  1.00  0.00     0.046 C 
HETATM   35  C22 UNL     1      39.643  49.532  19.062  1.00  0.00     0.046 C 
ENDBRANCH  31  32
ENDBRANCH  28  31
ENDBRANCH   1  27
TORSDOF 10
ENDMDL
MODEL 2
REMARK VINA RESULT: -7.904513572      0.081      1.563
REMARK  10 active torsions:
REMARK  status: ('A' for Active; 'I' for Inactive)
REMARK    1  A    between atoms: C2_2  and  O1_3 
REMARK    2  A    between atoms: O1_3  and  C3_4 
REMARK    3  A    between atoms: C3_4  and  C4_6 
REMARK       I    between atoms: N1_12  and  C9_13 
REMARK    4  A    between atoms: C9_13  and  C10_15 
REMARK    5  A    between atoms: C10_15  and  C11_16 
REMARK    6  A    between atoms: C10_15  and  N2_27 
REMARK    7  A    between atoms: C11_16  and  C12_17 
REMARK    8  A    between atoms: C15_21  and  O4_22 
REMARK       I    between atoms: N2_27  and  C18_29 
REMARK    9  A    between atoms: C18_29  and  O6_31 
REMARK   10  A    between atoms: O6_31  and  C19_32 
ROOT
HETATM    1  C10 UNL     1      43.622  47.589  20.620  1.00  0.00     0.086 C 
ENDROOT
BRANCH   1   2
HETATM    2  C9  UNL     1      44.423  48.185  21.663  1.00  0.00     0.267 C 
HETATM    3  N1  UNL     1      44.130  49.068  22.698  1.00  0.00    -0.332 N 
HETATM    4  C4  UNL     1      45.246  49.512  23.568  1.00  0.00     0.187 C 
HETATM    5  C8  UNL     1      42.905  49.652  23.123  1.00  0.00     0.143 C 
HETATM    6  C5  UNL     1      44.811  50.602  24.508  1.00  0.00     0.037 C 
HETATM    7  C6  UNL     1      43.991  51.684  23.901  1.00  0.00     0.020 C 
HETATM    8  C7  UNL     1      43.012  51.152  22.850  1.00  0.00     0.076 C 
HETATM    9  S1  UNL     1      43.754  51.511  21.240  1.00  0.00    -0.091 SA
HETATM   10  O3  UNL     1      45.661  47.798  21.596  1.00  0.00    -0.266 OA
BRANCH   4  11
HETATM   11  C3  UNL     1      45.600  48.354  24.419  1.00  0.00     0.282 C 
HETATM   12  O2  UNL     1      44.704  47.552  24.762  1.00  0.00    -0.263 OA
BRANCH  11  13
HETATM   13  O1  UNL     1      46.898  48.120  24.855  1.00  0.00    -0.320 OA
BRANCH  13  14
HETATM   14  C2  UNL     1      47.467  46.833  24.739  1.00  0.00     0.174 C 
HETATM   15  C1  UNL     1      47.677  46.278  26.120  1.00  0.00     0.034 C 
ENDBRANCH  13  14
ENDBRANCH  11  13
ENDBRANCH   4  11
ENDBRANCH   1   2
BRANCH   1  16
HETATM   16  C11 UNL     1      44.186  47.360  19.275  1.00  0.00     0.101 C 
BRANCH  16  17
HETATM   17  C12 UNL     1      43.246  46.577  18.389  1.00  0.00    -0.049 A 
HETATM   18  C13 UNL     1      43.029  45.238  18.595  1.00  0.00     0.034 A 
HETATM   19  C14 UNL     1      42.153  44.500  17.799  1.00  0.00     0.069 A 
HETATM   20 CL1  UNL     1      41.884  42.782  18.074  1.00  0.00    -0.081 Cl
HETATM   21  C15 UNL     1      41.472  45.109  16.767  1.00  0.00     0.109 A 
HETATM   22  C16 UNL     1      41.687  46.453  16.558  1.00  0.00     0.069 A 
HETATM   23 CL2  UNL     1      40.846  47.266  15.267  1.00  0.00    -0.081 Cl
HETATM   24  C17 UNL     1      42.566  47.188  17.358  1.00  0.00     0.034 A 
BRANCH  21  25
HETATM   25  O4  UNL     1      40.592  44.367  15.970  1.00  0.00    -0.357 OA
ATOM     26  H4  UNL     1      40.641  44.426  15.023  1.00  0.00     0.217 HD
ENDBRANCH  21  25
ENDBRANCH  16  17
ENDBRANCH   1  16
BRANCH   1  27
HETATM   27  N2  UNL     1      42.298  48.179  20.604  1.00  0.00    -0.301 N 
HETATM   28  C18 UNL     1      41.096  47.504  20.905  1.00  0.00     0.365 C 
HETATM   29  O5  UNL     1      41.149  46.297  21.219  1.00  0.00    -0.238 OA
ATOM     30  H2  UNL     1      42.229  49.166  20.354  1.00  0.00     0.171 HD
BRANCH  28  31
HETATM   31  O6  UNL     1      39.873  48.126  20.867  1.00  0.00    -0.294 OA
BRANCH  31  32
HETATM   32  C19 UNL     1      39.165  48.367  19.684  1.00  0.00     0.061 C 
HETATM   33  C20 UNL     1      37.711  48.740  19.982  1.00  0.00     0.046 C 
HETATM   34  C21 UNL     1      39.134  47.155  18.777  1.00  0.00     0.046 C 
HETATM   35  C22 UNL     1      39.764  49.502  18.897  1.00  0.00     0.046 C 
ENDBRANCH  31  32
ENDBRANCH  28  31
ENDBRANCH   1  27
TORSDOF 10
ENDMDL
MODEL 3
REMARK VINA RESULT: -7.631803881      1.836      3.211
REMARK  10 active torsions:
REMARK  status: ('A' for Active; 'I' for Inactive)
REMARK    1  A    between atoms: C2_2  and  O1_3 
REMARK    2  A    between atoms: O1_3  and  C3_4 
REMARK    3  A    between atoms: C3_4  and  C4_6 
REMARK       I    between atoms: N1_12  and  C9_13 
REMARK    4  A    between atoms: C9_13  and  C10_15 
REMARK    5  A    between atoms: C10_15  and  C11_16 
REMARK    6  A    between atoms: C10_15  and  N2_27 
REMARK    7  A    between atoms: C11_16  and  C12_17 
REMARK    8  A    between atoms: C15_21  and  O4_22 
REMARK       I    between atoms: N2_27  and  C18_29 
REMARK    9  A    between atoms: C18_29  and  O6_31 
REMARK   10  A    between atoms: O6_31  and  C19_32 
ROOT
HETATM    1  C10 UNL     1      42.644  47.719  20.347  1.00  0.00     0.086 C 
ENDROOT
BRANCH   1   2
HETATM    2  C9  UNL     1      43.732  48.135  21.201  1.00  0.00     0.267 C 
HETATM    3  N1  UNL     1      43.805  48.982  22.302  1.00  0.00    -0.332 N 
HETATM    4  C4  UNL     1      45.137  49.217  22.910  1.00  0.00     0.187 C 
HETATM    5  C8  UNL     1      42.801  49.695  23.012  1.00  0.00     0.143 C 
HETATM    6  C5  UNL     1      45.082  50.293  23.959  1.00  0.00     0.037 C 
HETATM    7  C6  UNL     1      44.313  51.511  23.588  1.00  0.00     0.020 C 
HETATM    8  C7  UNL     1      43.060  51.182  22.771  1.00  0.00     0.076 C 
HETATM    9  S1  UNL     1      43.473  51.540  21.046  1.00  0.00    -0.091 SA
HETATM   10  O3  UNL     1      44.856  47.591  20.841  1.00  0.00    -0.266 OA
BRANCH   4  11
HETATM   11  C3  UNL     1      45.499  47.970  23.621  1.00  0.00     0.282 C 
HETATM   12  O2  UNL     1      44.665  47.441  24.388  1.00  0.00    -0.263 OA
BRANCH  11  13
HETATM   13  O1  UNL     1      46.737  47.359  23.469  1.00  0.00    -0.320 OA
BRANCH  13  14
HETATM   14  C2  UNL     1      47.700  47.435  24.499  1.00  0.00     0.174 C 
HETATM   15  C1  UNL     1      47.649  46.160  25.294  1.00  0.00     0.034 C 
ENDBRANCH  13  14
ENDBRANCH  11  13
ENDBRANCH   4  11
ENDBRANCH   1   2
BRANCH   1  16
HETATM   16  C11 UNL     1      41.733  46.634  20.763  1.00  0.00     0.101 C 
BRANCH  16  17
HETATM   17  C12 UNL     1      41.123  45.920  19.580  1.00  0.00    -0.049 A 
HETATM   18  C13 UNL     1      41.506  44.645  19.248  1.00  0.00     0.034 A 
HETATM   19  C14 UNL     1      40.944  43.961  18.169  1.00  0.00     0.069 A 
HETATM   20 CL1  UNL     1      41.446  42.326  17.753  1.00  0.00    -0.081 Cl
HETATM   21  C15 UNL     1      39.972  44.561  17.398  1.00  0.00     0.109 A 
HETATM   22  C16 UNL     1      39.584  45.840  17.729  1.00  0.00     0.069 A 
HETATM   23 CL2  UNL     1      38.357  46.637  16.784  1.00  0.00    -0.081 Cl
HETATM   24  C17 UNL     1      40.151  46.521  18.810  1.00  0.00     0.034 A 
BRANCH  21  25
HETATM   25  O4  UNL     1      39.408  43.873  16.317  1.00  0.00    -0.357 OA
ATOM     26  H4  UNL     1      38.617  44.199  15.903  1.00  0.00     0.217 HD
ENDBRANCH  21  25
ENDBRANCH  16  17
ENDBRANCH   1  16
BRANCH   1  27
HETATM   27  N2  UNL     1      43.097  47.606  18.975  1.00  0.00    -0.301 N 
HETATM   28  C18 UNL     1      43.002  48.617  17.995  1.00  0.00     0.365 C 
HETATM   29  O5  UNL     1      42.493  49.712  18.310  1.00  0.00    -0.238 OA
ATOM     30  H2  UNL     1      43.520  46.722  18.694  1.00  0.00     0.171 HD
BRANCH  28  31
HETATM   31  O6  UNL     1      43.450  48.440  16.709  1.00  0.00    -0.294 OA
BRANCH  31  32
HETATM   32  C19 UNL     1      42.603  48.195  15.622  1.00  0.00     0.061 C 
HETATM   33  C20 UNL     1      43.319  48.473  14.298  1.00  0.00     0.046 C 
HETATM   34  C21 UNL     1      41.368  49.070  15.650  1.00  0.00     0.046 C 
HETATM   35  C22 UNL     1      42.141  46.763  15.587  1.00  0.00     0.046 C 
ENDBRANCH  31  32
ENDBRANCH  28  31
ENDBRANCH   1  27
TORSDOF 10
ENDMDL
MODEL 4
REMARK VINA RESULT: -7.500043023      1.953      2.889
REMARK  10 active torsions:
REMARK  status: ('A' for Active; 'I' for Inactive)
REMARK    1  A    between atoms: C2_2  and  O1_3 
REMARK    2  A    between atoms: O1_3  and  C3_4 
REMARK    3  A    between atoms: C3_4  and  C4_6 
REMARK       I    between atoms: N1_12  and  C9_13 
REMARK    4  A    between atoms: C9_13  and  C10_15 
REMARK    5  A    between atoms: C10_15  and  C11_16 
REMARK    6  A    between atoms: C10_15  and  N2_27 
REMARK    7  A    between atoms: C11_16  and  C12_17 
REMARK    8  A    between atoms: C15_21  and  O4_22 
REMARK       I    between atoms: N2_27  and  C18_29 
REMARK    9  A    between atoms: C18_29  and  O6_31 
REMARK   10  A    between atoms: O6_31  and  C19_32 
ROOT
HETATM    1  C10 UNL     1      43.107  47.683  20.226  1.00  0.00     0.086 C 
ENDROOT
BRANCH   1   2
HETATM    2  C9  UNL     1      44.116  48.266  21.080  1.00  0.00     0.267 C 
HETATM    3  N1  UNL     1      44.054  48.987  22.268  1.00  0.00    -0.332 N 
HETATM    4  C4  UNL     1      45.326  49.480  22.848  1.00  0.00     0.187 C 
HETATM    5  C8  UNL     1      42.955  49.354  23.092  1.00  0.00     0.143 C 
HETATM    6  C5  UNL     1      45.081  50.397  24.014  1.00  0.00     0.037 C 
HETATM    7  C6  UNL     1      44.019  51.419  23.815  1.00  0.00     0.020 C 
HETATM    8  C7  UNL     1      42.832  50.876  23.013  1.00  0.00     0.076 C 
HETATM    9  S1  UNL     1      43.034  51.499  21.327  1.00  0.00    -0.091 SA
HETATM   10  O3  UNL     1      45.312  48.055  20.618  1.00  0.00    -0.266 OA
BRANCH   4  11
HETATM   11  C3  UNL     1      46.023  48.295  23.397  1.00  0.00     0.282 C 
HETATM   12  O2  UNL     1      47.244  48.148  23.176  1.00  0.00    -0.263 OA
BRANCH  11  13
HETATM   13  O1  UNL     1      45.368  47.333  24.156  1.00  0.00    -0.320 OA
BRANCH  13  14
HETATM   14  C2  UNL     1      45.440  47.368  25.566  1.00  0.00     0.174 C 
HETATM   15  C1  UNL     1      46.565  46.474  26.008  1.00  0.00     0.034 C 
ENDBRANCH  13  14
ENDBRANCH  11  13
ENDBRANCH   4  11
ENDBRANCH   1   2
BRANCH   1  16
HETATM   16  C11 UNL     1      42.430  46.428  20.608  1.00  0.00     0.101 C 
BRANCH  16  17
HETATM   17  C12 UNL     1      41.619  45.851  19.472  1.00  0.00    -0.049 A 
HETATM   18  C13 UNL     1      40.531  46.518  18.967  1.00  0.00     0.034 A 
HETATM   19  C14 UNL     1      39.779  46.009  17.907  1.00  0.00     0.069 A 
HETATM   20 CL1  UNL     1      38.385  46.875  17.269  1.00  0.00    -0.081 Cl
HETATM   21  C15 UNL     1      40.116  44.803  17.332  1.00  0.00     0.109 A 
HETATM   22  C16 UNL     1      41.208  44.132  17.837  1.00  0.00     0.069 A 
HETATM   23 CL2  UNL     1      41.673  42.604  17.139  1.00  0.00    -0.081 Cl
HETATM   24  C17 UNL     1      41.958  44.645  18.898  1.00  0.00     0.034 A 
BRANCH  21  25
HETATM   25  O4  UNL     1      39.361  44.295  16.269  1.00  0.00    -0.357 OA
ATOM     26  H4  UNL     1      39.724  44.277  15.391  1.00  0.00     0.217 HD
ENDBRANCH  21  25
ENDBRANCH  16  17
ENDBRANCH   1  16
BRANCH   1  27
HETATM   27  N2  UNL     1      43.541  47.714  18.843  1.00  0.00    -0.301 N 
HETATM   28  C18 UNL     1      43.268  48.746  17.921  1.00  0.00     0.365 C 
HETATM   29  O5  UNL     1      42.601  49.730  18.303  1.00  0.00    -0.238 OA
ATOM     30  H2  UNL     1      44.091  46.922  18.508  1.00  0.00     0.171 HD
BRANCH  28  31
HETATM   31  O6  UNL     1      43.709  48.708  16.622  1.00  0.00    -0.294 OA
BRANCH  31  32
HETATM   32  C19 UNL     1      42.859  48.546  15.521  1.00  0.00     0.061 C 
HETATM   33  C20 UNL     1      41.836  49.681  15.448  1.00  0.00     0.046 C 
HETATM   34  C21 UNL     1      42.079  47.250  15.586  1.00  0.00     0.046 C 
HETATM   35  C22 UNL     1      43.622  48.548  14.224  1.00  0.00     0.046 C 
ENDBRANCH  31  32
ENDBRANCH  28  31
ENDBRANCH   1  27
TORSDOF 10
ENDMDL
MODEL 5
REMARK VINA RESULT: -7.448211571      2.589      3.772
REMARK  10 active torsions:
REMARK  status: ('A' for Active; 'I' for Inactive)
REMARK    1  A    between atoms: C2_2  and  O1_3 
REMARK    2  A    between atoms: O1_3  and  C3_4 
REMARK    3  A    between atoms: C3_4  and  C4_6 
REMARK       I    between atoms: N1_12  and  C9_13 
REMARK    4  A    between atoms: C9_13  and  C10_15 
REMARK    5  A    between atoms: C10_15  and  C11_16 
REMARK    6  A    between atoms: C10_15  and  N2_27 
REMARK    7  A    between atoms: C11_16  and  C12_17 
REMARK    8  A    between atoms: C15_21  and  O4_22 
REMARK       I    between atoms: N2_27  and  C18_29 
REMARK    9  A    between atoms: C18_29  and  O6_31 
REMARK   10  A    between atoms: O6_31  and  C19_32 
ROOT
HETATM    1  C10 UNL     1      44.521  48.060  20.049  1.00  0.00     0.086 C 
ENDROOT
BRANCH   1   2
HETATM    2  C9  UNL     1      45.023  48.599  21.291  1.00  0.00     0.267 C 
HETATM    3  N1  UNL     1      44.415  49.247  22.361  1.00  0.00    -0.332 N 
HETATM    4  C4  UNL     1      45.279  49.715  23.472  1.00  0.00     0.187 C 
HETATM    5  C8  UNL     1      43.052  49.555  22.626  1.00  0.00     0.143 C 
HETATM    6  C5  UNL     1      44.508  50.558  24.450  1.00  0.00     0.037 C 
HETATM    7  C6  UNL     1      43.612  51.582  23.849  1.00  0.00     0.020 C 
HETATM    8  C7  UNL     1      42.925  51.078  22.576  1.00  0.00     0.076 C 
HETATM    9  S1  UNL     1      43.835  51.802  21.191  1.00  0.00    -0.091 SA
HETATM   10  O3  UNL     1      46.307  48.426  21.402  1.00  0.00    -0.266 OA
BRANCH   4  11
HETATM   11  C3  UNL     1      45.698  48.505  24.214  1.00  0.00     0.282 C 
HETATM   12  O2  UNL     1      44.841  47.645  24.513  1.00  0.00    -0.263 OA
BRANCH  11  13
HETATM   13  O1  UNL     1      47.016  48.286  24.595  1.00  0.00    -0.320 OA
BRANCH  13  14
HETATM   14  C2  UNL     1      47.559  46.983  24.562  1.00  0.00     0.174 C 
HETATM   15  C1  UNL     1      47.767  46.516  25.976  1.00  0.00     0.034 C 
ENDBRANCH  13  14
ENDBRANCH  11  13
ENDBRANCH   4  11
ENDBRANCH   1   2
BRANCH   1  16
HETATM   16  C11 UNL     1      44.442  46.601  19.838  1.00  0.00     0.101 C 
BRANCH  16  17
HETATM   17  C12 UNL     1      43.130  46.185  19.217  1.00  0.00    -0.049 A 
HETATM   18  C13 UNL     1      43.032  45.043  18.462  1.00  0.00     0.034 A 
HETATM   19  C14 UNL     1      41.826  44.634  17.893  1.00  0.00     0.069 A 
HETATM   20 CL1  UNL     1      41.715  43.167  16.926  1.00  0.00    -0.081 Cl
HETATM   21  C15 UNL     1      40.682  45.379  18.079  1.00  0.00     0.109 A 
HETATM   22  C16 UNL     1      40.777  46.526  18.837  1.00  0.00     0.069 A 
HETATM   23 CL2  UNL     1      39.356  47.499  19.101  1.00  0.00    -0.081 Cl
HETATM   24  C17 UNL     1      41.987  46.932  19.404  1.00  0.00     0.034 A 
BRANCH  21  25
HETATM   25  O4  UNL     1      39.473  44.967  17.509  1.00  0.00    -0.357 OA
ATOM     26  H4  UNL     1      38.656  45.371  17.776  1.00  0.00     0.217 HD
ENDBRANCH  21  25
ENDBRANCH  16  17
ENDBRANCH   1  16
BRANCH   1  27
HETATM   27  N2  UNL     1      45.081  48.783  18.925  1.00  0.00    -0.301 N 
HETATM   28  C18 UNL     1      44.372  49.666  18.083  1.00  0.00     0.365 C 
HETATM   29  O5  UNL     1      43.160  49.862  18.305  1.00  0.00    -0.238 OA
ATOM     30  H2  UNL     1      46.071  48.642  18.725  1.00  0.00     0.171 HD
BRANCH  28  31
HETATM   31  O6  UNL     1      44.968  50.317  17.031  1.00  0.00    -0.294 OA
BRANCH  31  32
HETATM   32  C19 UNL     1      45.577  51.572  17.144  1.00  0.00     0.061 C 
HETATM   33  C20 UNL     1      46.474  51.855  15.937  1.00  0.00     0.046 C 
HETATM   34  C21 UNL     1      46.448  51.678  18.378  1.00  0.00     0.046 C 
HETATM   35  C22 UNL     1      44.561  52.680  17.214  1.00  0.00     0.046 C 
ENDBRANCH  31  32
ENDBRANCH  28  31
ENDBRANCH   1  27
TORSDOF 10
ENDMDL
