MODEL 1
REMARK VINA RESULT: -7.348436442      0.000      0.000
REMARK  12 active torsions:
REMARK  status: ('A' for Active; 'I' for Inactive)
REMARK    1  A    between atoms: C2_2  and  C5_5 
REMARK    2  A    between atoms: C7_10  and  C8_11 
REMARK    3  A    between atoms: C9_12  and  C10_13 
REMARK    4  A    between atoms: C10_13  and  C11_15 
REMARK    5  A    between atoms: C14_18  and  C15_19 
REMARK    6  A    between atoms: C15_19  and  O1_21 
REMARK    7  A    between atoms: C15_19  and  C17_23 
REMARK    8  A    between atoms: C17_23  and  O2_24 
REMARK    9  A    between atoms: C17_23  and  C18_26 
REMARK   10  A    between atoms: C18_26  and  O3_27 
REMARK   11  A    between atoms: N2_30  and  C19_31 
REMARK   12  A    between atoms: C19_31  and  C20_32 
ROOT
HETATM    1  C8  UNL     1      42.984  49.650  19.564  1.00  0.00    -0.044 C 
HETATM    2  C9  UNL     1      43.255  50.558  20.301  1.00  0.00    -0.081 C 
ENDROOT
BRANCH   1   3
HETATM    3  C7  UNL     1      42.699  48.525  18.682  1.00  0.00     0.129 A 
HETATM    4  C6  UNL     1      42.947  48.472  17.332  1.00  0.00     0.141 A 
HETATM    5  N1  UNL     1      42.557  47.274  16.927  1.00  0.00    -0.333 N 
HETATM    6 CL1  UNL     1      43.644  49.761  16.358  1.00  0.00    -0.061 Cl
HETATM    7  C5  UNL     1      42.058  46.537  17.983  1.00  0.00     0.093 A 
ATOM      8  H1  UNL     1      42.618  46.939  15.966  1.00  0.00     0.168 HD
HETATM    9  N2  UNL     1      42.159  47.332  19.032  1.00  0.00    -0.324 N 
BRANCH   7  10
HETATM   10  C2  UNL     1      41.571  45.169  17.741  1.00  0.00     0.008 C 
HETATM   11  C1  UNL     1      41.591  44.968  16.196  1.00  0.00     0.022 C 
HETATM   12  C3  UNL     1      40.103  45.099  18.092  1.00  0.00     0.022 C 
HETATM   13  C4  UNL     1      42.389  44.044  18.259  1.00  0.00     0.022 C 
ENDBRANCH   7  10
BRANCH   9  14
HETATM   14  C19 UNL     1      41.786  47.073  20.394  1.00  0.00     0.163 C 
BRANCH  14  15
HETATM   15  C20 UNL     1      40.435  47.545  20.802  1.00  0.00     0.140 C 
HETATM   16  C21 UNL     1      40.573  48.657  21.844  1.00  0.00     0.035 C 
HETATM   17  C22 UNL     1      39.139  48.745  22.363  1.00  0.00     0.029 C 
HETATM   18  C23 UNL     1      38.546  47.421  21.869  1.00  0.00     0.168 C 
HETATM   19  O5  UNL     1      39.649  46.655  21.485  1.00  0.00    -0.384 OA
ENDBRANCH  14  15
ENDBRANCH   9  14
ENDBRANCH   1   3
BRANCH   2  20
HETATM   20  C10 UNL     1      43.635  51.666  21.215  1.00  0.00     0.166 C 
HETATM   21 BR1  UNL     1      44.699  52.935  20.229  1.00  0.00    -0.075 Br
BRANCH  20  22
HETATM   22  C11 UNL     1      44.363  51.134  22.412  1.00  0.00     0.148 C 
HETATM   23  C12 UNL     1      43.669  51.375  23.721  1.00  0.00     0.036 C 
HETATM   24  C13 UNL     1      44.121  50.138  24.520  1.00  0.00     0.038 C 
HETATM   25  C14 UNL     1      45.211  49.567  23.644  1.00  0.00     0.158 C 
HETATM   26  O4  UNL     1      44.693  49.798  22.347  1.00  0.00    -0.375 OA
BRANCH  25  27
HETATM   27  C15 UNL     1      45.390  48.080  23.787  1.00  0.00     0.108 C 
HETATM   28  C16 UNL     1      45.155  47.642  25.225  1.00  0.00     0.051 C 
BRANCH  27  29
HETATM   29  O1  UNL     1      44.482  47.443  22.942  1.00  0.00    -0.385 OA
ATOM     30  H1  UNL     1      43.913  46.895  23.470  1.00  0.00     0.210 HD
ENDBRANCH  27  29
BRANCH  27  31
HETATM   31  C17 UNL     1      46.811  47.742  23.354  1.00  0.00     0.178 C 
BRANCH  31  32
HETATM   32  O2  UNL     1      47.439  48.854  22.769  1.00  0.00    -0.390 OA
ATOM     33  H2  UNL     1      47.632  48.695  21.853  1.00  0.00     0.210 HD
ENDBRANCH  31  32
BRANCH  31  34
HETATM   34  C18 UNL     1      47.620  47.263  24.554  1.00  0.00     0.199 C 
BRANCH  34  35
HETATM   35  O3  UNL     1      48.422  46.199  24.148  1.00  0.00    -0.398 OA
ATOM     36  H3  UNL     1      49.244  46.548  23.824  1.00  0.00     0.209 HD
ENDBRANCH  34  35
ENDBRANCH  31  34
ENDBRANCH  27  31
ENDBRANCH  25  27
ENDBRANCH  20  22
ENDBRANCH   2  20
TORSDOF 12
ENDMDL
MODEL 2
REMARK VINA RESULT: -7.227129954      2.012      3.504
REMARK  12 active torsions:
REMARK  status: ('A' for Active; 'I' for Inactive)
REMARK    1  A    between atoms: C2_2  and  C5_5 
REMARK    2  A    between atoms: C7_10  and  C8_11 
REMARK    3  A    between atoms: C9_12  and  C10_13 
REMARK    4  A    between atoms: C10_13  and  C11_15 
REMARK    5  A    between atoms: C14_18  and  C15_19 
REMARK    6  A    between atoms: C15_19  and  O1_21 
REMARK    7  A    between atoms: C15_19  and  C17_23 
REMARK    8  A    between atoms: C17_23  and  O2_24 
REMARK    9  A    between atoms: C17_23  and  C18_26 
REMARK   10  A    between atoms: C18_26  and  O3_27 
REMARK   11  A    between atoms: N2_30  and  C19_31 
REMARK   12  A    between atoms: C19_31  and  C20_32 
ROOT
HETATM    1  C8  UNL     1      41.763  48.932  20.455  1.00  0.00    -0.044 C 
HETATM    2  C9  UNL     1      42.117  49.956  20.972  1.00  0.00    -0.081 C 
ENDROOT
BRANCH   1   3
HETATM    3  C7  UNL     1      41.340  47.665  19.872  1.00  0.00     0.129 A 
HETATM    4  C6  UNL     1      40.204  46.964  20.197  1.00  0.00     0.141 A 
HETATM    5  N1  UNL     1      40.195  45.889  19.424  1.00  0.00    -0.333 N 
HETATM    6 CL1  UNL     1      39.014  47.428  21.406  1.00  0.00    -0.061 Cl
HETATM    7  C5  UNL     1      41.303  45.868  18.600  1.00  0.00     0.093 A 
ATOM      8  H1  UNL     1      39.469  45.173  19.436  1.00  0.00     0.168 HD
HETATM    9  N2  UNL     1      41.975  46.963  18.902  1.00  0.00    -0.324 N 
BRANCH   7  10
HETATM   10  C2  UNL     1      41.478  44.749  17.658  1.00  0.00     0.008 C 
HETATM   11  C1  UNL     1      40.188  43.882  17.767  1.00  0.00     0.022 C 
HETATM   12  C3  UNL     1      42.567  43.837  18.176  1.00  0.00     0.022 C 
HETATM   13  C4  UNL     1      41.572  45.072  16.213  1.00  0.00     0.022 C 
ENDBRANCH   7  10
BRANCH   9  14
HETATM   14  C19 UNL     1      43.209  47.440  18.346  1.00  0.00     0.163 C 
BRANCH  14  15
HETATM   15  C20 UNL     1      43.124  48.689  17.541  1.00  0.00     0.140 C 
HETATM   16  C21 UNL     1      42.877  48.336  16.073  1.00  0.00     0.035 C 
HETATM   17  C22 UNL     1      43.165  49.678  15.402  1.00  0.00     0.029 C 
HETATM   18  C23 UNL     1      43.927  50.421  16.505  1.00  0.00     0.168 C 
HETATM   19  O5  UNL     1      44.267  49.435  17.434  1.00  0.00    -0.384 OA
ENDBRANCH  14  15
ENDBRANCH   9  14
ENDBRANCH   1   3
BRANCH   2  20
HETATM   20  C10 UNL     1      42.572  51.199  21.646  1.00  0.00     0.166 C 
HETATM   21 BR1  UNL     1      43.043  52.492  20.296  1.00  0.00    -0.075 Br
BRANCH  20  22
HETATM   22  C11 UNL     1      43.718  50.908  22.568  1.00  0.00     0.148 C 
HETATM   23  C12 UNL     1      43.437  51.180  24.017  1.00  0.00     0.036 C 
HETATM   24  C13 UNL     1      44.322  50.113  24.689  1.00  0.00     0.038 C 
HETATM   25  C14 UNL     1      45.164  49.619  23.537  1.00  0.00     0.158 C 
HETATM   26  O4  UNL     1      44.235  49.635  22.468  1.00  0.00    -0.375 OA
BRANCH  25  27
HETATM   27  C15 UNL     1      45.632  48.196  23.691  1.00  0.00     0.108 C 
HETATM   28  C16 UNL     1      45.660  47.792  25.157  1.00  0.00     0.051 C 
BRANCH  27  29
HETATM   29  O1  UNL     1      44.762  47.367  22.985  1.00  0.00    -0.385 OA
ATOM     30  H1  UNL     1      45.267  46.868  22.354  1.00  0.00     0.210 HD
ENDBRANCH  27  29
BRANCH  27  31
HETATM   31  C17 UNL     1      47.027  48.101  23.086  1.00  0.00     0.178 C 
BRANCH  31  32
HETATM   32  O2  UNL     1      47.696  46.952  23.538  1.00  0.00    -0.390 OA
ATOM     33  H2  UNL     1      48.202  47.136  24.321  1.00  0.00     0.210 HD
ENDBRANCH  31  32
BRANCH  31  34
HETATM   34  C18 UNL     1      46.935  48.081  21.565  1.00  0.00     0.199 C 
BRANCH  34  35
HETATM   35  O3  UNL     1      48.025  48.776  21.048  1.00  0.00    -0.398 OA
ATOM     36  H3  UNL     1      47.711  49.374  20.379  1.00  0.00     0.209 HD
ENDBRANCH  34  35
ENDBRANCH  31  34
ENDBRANCH  27  31
ENDBRANCH  25  27
ENDBRANCH  20  22
ENDBRANCH   2  20
TORSDOF 12
ENDMDL
MODEL 3
REMARK VINA RESULT: -6.962046598      1.423      1.901
REMARK  12 active torsions:
REMARK  status: ('A' for Active; 'I' for Inactive)
REMARK    1  A    between atoms: C2_2  and  C5_5 
REMARK    2  A    between atoms: C7_10  and  C8_11 
REMARK    3  A    between atoms: C9_12  and  C10_13 
REMARK    4  A    between atoms: C10_13  and  C11_15 
REMARK    5  A    between atoms: C14_18  and  C15_19 
REMARK    6  A    between atoms: C15_19  and  O1_21 
REMARK    7  A    between atoms: C15_19  and  C17_23 
REMARK    8  A    between atoms: C17_23  and  O2_24 
REMARK    9  A    between atoms: C17_23  and  C18_26 
REMARK   10  A    between atoms: C18_26  and  O3_27 
REMARK   11  A    between atoms: N2_30  and  C19_31 
REMARK   12  A    between atoms: C19_31  and  C20_32 
ROOT
HETATM    1  C8  UNL     1      43.286  48.529  18.053  1.00  0.00    -0.044 C 
HETATM    2  C9  UNL     1      43.860  49.474  18.519  1.00  0.00    -0.081 C 
ENDROOT
BRANCH   1   3
HETATM    3  C7  UNL     1      42.634  47.356  17.484  1.00  0.00     0.129 A 
HETATM    4  C6  UNL     1      42.407  47.123  16.150  1.00  0.00     0.141 A 
HETATM    5  N1  UNL     1      41.812  45.943  16.072  1.00  0.00    -0.333 N 
HETATM    6 CL1  UNL     1      42.833  48.201  14.827  1.00  0.00    -0.061 Cl
HETATM    7  C5  UNL     1      41.642  45.395  17.328  1.00  0.00     0.093 A 
ATOM      8  H1  UNL     1      41.519  45.499  15.202  1.00  0.00     0.168 HD
HETATM    9  N2  UNL     1      42.153  46.284  18.160  1.00  0.00    -0.324 N 
BRANCH   7  10
HETATM   10  C2  UNL     1      40.998  44.078  17.458  1.00  0.00     0.008 C 
HETATM   11  C1  UNL     1      40.634  43.918  18.965  1.00  0.00     0.022 C 
HETATM   12  C3  UNL     1      42.031  43.000  17.223  1.00  0.00     0.022 C 
HETATM   13  C4  UNL     1      39.708  43.868  16.754  1.00  0.00     0.022 C 
ENDBRANCH   7  10
BRANCH   9  14
HETATM   14  C19 UNL     1      42.241  46.226  19.592  1.00  0.00     0.163 C 
BRANCH  14  15
HETATM   15  C20 UNL     1      41.287  47.086  20.342  1.00  0.00     0.140 C 
HETATM   16  C21 UNL     1      40.456  46.222  21.292  1.00  0.00     0.035 C 
HETATM   17  C22 UNL     1      39.352  47.204  21.683  1.00  0.00     0.029 C 
HETATM   18  C23 UNL     1      39.484  48.271  20.592  1.00  0.00     0.168 C 
HETATM   19  O5  UNL     1      40.295  47.690  19.615  1.00  0.00    -0.384 OA
ENDBRANCH  14  15
ENDBRANCH   9  14
ENDBRANCH   1   3
BRANCH   2  20
HETATM   20  C10 UNL     1      44.611  50.626  19.081  1.00  0.00     0.166 C 
HETATM   21 BR1  UNL     1      46.367  50.660  18.285  1.00  0.00    -0.075 Br
BRANCH  20  22
HETATM   22  C11 UNL     1      44.675  50.533  20.576  1.00  0.00     0.148 C 
HETATM   23  C12 UNL     1      43.401  50.903  21.278  1.00  0.00     0.036 C 
HETATM   24  C13 UNL     1      43.480  49.993  22.518  1.00  0.00     0.038 C 
HETATM   25  C14 UNL     1      44.901  49.486  22.458  1.00  0.00     0.158 C 
HETATM   26  O4  UNL     1      45.091  49.315  21.065  1.00  0.00    -0.375 OA
BRANCH  25  27
HETATM   27  C15 UNL     1      45.094  48.137  23.097  1.00  0.00     0.108 C 
HETATM   28  C16 UNL     1      44.742  48.184  24.576  1.00  0.00     0.051 C 
BRANCH  27  29
HETATM   29  O1  UNL     1      44.276  47.217  22.442  1.00  0.00    -0.385 OA
ATOM     30  H1  UNL     1      43.374  47.393  22.682  1.00  0.00     0.210 HD
ENDBRANCH  27  29
BRANCH  27  31
HETATM   31  C17 UNL     1      46.554  47.742  22.910  1.00  0.00     0.178 C 
BRANCH  31  32
HETATM   32  O2  UNL     1      47.317  48.829  22.455  1.00  0.00    -0.390 OA
ATOM     33  H2  UNL     1      48.057  48.992  23.028  1.00  0.00     0.210 HD
ENDBRANCH  31  32
BRANCH  31  34
HETATM   34  C18 UNL     1      47.125  47.225  24.226  1.00  0.00     0.199 C 
BRANCH  34  35
HETATM   35  O3  UNL     1      48.242  46.443  23.944  1.00  0.00    -0.398 OA
ATOM     36  H3  UNL     1      48.475  45.958  24.728  1.00  0.00     0.209 HD
ENDBRANCH  34  35
ENDBRANCH  31  34
ENDBRANCH  27  31
ENDBRANCH  25  27
ENDBRANCH  20  22
ENDBRANCH   2  20
TORSDOF 12
ENDMDL
MODEL 4
REMARK VINA RESULT: -6.784065686      3.060      7.624
REMARK  12 active torsions:
REMARK  status: ('A' for Active; 'I' for Inactive)
REMARK    1  A    between atoms: C2_2  and  C5_5 
REMARK    2  A    between atoms: C7_10  and  C8_11 
REMARK    3  A    between atoms: C9_12  and  C10_13 
REMARK    4  A    between atoms: C10_13  and  C11_15 
REMARK    5  A    between atoms: C14_18  and  C15_19 
REMARK    6  A    between atoms: C15_19  and  O1_21 
REMARK    7  A    between atoms: C15_19  and  C17_23 
REMARK    8  A    between atoms: C17_23  and  O2_24 
REMARK    9  A    between atoms: C17_23  and  C18_26 
REMARK   10  A    between atoms: C18_26  and  O3_27 
REMARK   11  A    between atoms: N2_30  and  C19_31 
REMARK   12  A    between atoms: C19_31  and  C20_32 
ROOT
HETATM    1  C8  UNL     1      43.652  50.344  20.170  1.00  0.00    -0.044 C 
HETATM    2  C9  UNL     1      43.735  49.487  19.333  1.00  0.00    -0.081 C 
ENDROOT
BRANCH   1   3
HETATM    3  C7  UNL     1      43.502  51.372  21.191  1.00  0.00     0.129 A 
HETATM    4  C6  UNL     1      43.476  52.729  20.977  1.00  0.00     0.141 A 
HETATM    5  N1  UNL     1      43.305  53.291  22.163  1.00  0.00    -0.333 N 
HETATM    6 CL1  UNL     1      43.641  53.532  19.421  1.00  0.00    -0.061 Cl
HETATM    7  C5  UNL     1      43.219  52.333  23.153  1.00  0.00     0.093 A 
ATOM      8  H1  UNL     1      43.244  54.296  22.324  1.00  0.00     0.168 HD
HETATM    9  N2  UNL     1      43.345  51.179  22.524  1.00  0.00    -0.324 N 
BRANCH   7  10
HETATM   10  C2  UNL     1      43.025  52.756  24.550  1.00  0.00     0.008 C 
HETATM   11  C1  UNL     1      42.888  54.308  24.520  1.00  0.00     0.022 C 
HETATM   12  C3  UNL     1      44.308  52.526  25.316  1.00  0.00     0.022 C 
HETATM   13  C4  UNL     1      41.795  52.301  25.245  1.00  0.00     0.022 C 
ENDBRANCH   7  10
BRANCH   9  14
HETATM   14  C19 UNL     1      43.329  49.852  23.071  1.00  0.00     0.163 C 
BRANCH  14  15
HETATM   15  C20 UNL     1      44.625  49.349  23.603  1.00  0.00     0.140 C 
HETATM   16  C21 UNL     1      45.123  48.195  22.731  1.00  0.00     0.035 C 
HETATM   17  C22 UNL     1      46.228  47.622  23.617  1.00  0.00     0.029 C 
HETATM   18  C23 UNL     1      45.891  48.241  24.977  1.00  0.00     0.168 C 
HETATM   19  O5  UNL     1      44.596  48.745  24.832  1.00  0.00    -0.384 OA
ENDBRANCH  14  15
ENDBRANCH   9  14
ENDBRANCH   1   3
BRANCH   2  20
HETATM   20  C10 UNL     1      43.792  48.427  18.294  1.00  0.00     0.166 C 
HETATM   21 BR1  UNL     1      42.595  48.908  16.862  1.00  0.00    -0.075 Br
BRANCH  20  22
HETATM   22  C11 UNL     1      43.450  47.093  18.886  1.00  0.00     0.148 C 
HETATM   23  C12 UNL     1      42.640  47.160  20.148  1.00  0.00     0.036 C 
HETATM   24  C13 UNL     1      41.817  45.863  20.033  1.00  0.00     0.038 C 
HETATM   25  C14 UNL     1      42.500  45.146  18.892  1.00  0.00     0.158 C 
HETATM   26  O4  UNL     1      42.823  46.219  18.026  1.00  0.00    -0.375 OA
BRANCH  25  27
HETATM   27  C15 UNL     1      41.594  44.220  18.126  1.00  0.00     0.108 C 
HETATM   28  C16 UNL     1      42.324  42.938  17.752  1.00  0.00     0.051 C 
BRANCH  27  29
HETATM   29  O1  UNL     1      40.490  43.922  18.923  1.00  0.00    -0.385 OA
ATOM     30  H1  UNL     1      39.922  43.332  18.442  1.00  0.00     0.210 HD
ENDBRANCH  27  29
BRANCH  27  31
HETATM   31  C17 UNL     1      41.134  44.955  16.873  1.00  0.00     0.178 C 
BRANCH  31  32
HETATM   32  O2  UNL     1      41.759  44.439  15.727  1.00  0.00    -0.390 OA
ATOM     33  H2  UNL     1      42.615  44.081  15.935  1.00  0.00     0.210 HD
ENDBRANCH  31  32
BRANCH  31  34
HETATM   34  C18 UNL     1      39.620  44.843  16.732  1.00  0.00     0.199 C 
BRANCH  34  35
HETATM   35  O3  UNL     1      39.323  43.625  16.125  1.00  0.00    -0.398 OA
ATOM     36  H3  UNL     1      40.084  43.342  15.631  1.00  0.00     0.209 HD
ENDBRANCH  34  35
ENDBRANCH  31  34
ENDBRANCH  27  31
ENDBRANCH  25  27
ENDBRANCH  20  22
ENDBRANCH   2  20
TORSDOF 12
ENDMDL
MODEL 5
REMARK VINA RESULT: -6.733197580      2.991      4.498
REMARK  12 active torsions:
REMARK  status: ('A' for Active; 'I' for Inactive)
REMARK    1  A    between atoms: C2_2  and  C5_5 
REMARK    2  A    between atoms: C7_10  and  C8_11 
REMARK    3  A    between atoms: C9_12  and  C10_13 
REMARK    4  A    between atoms: C10_13  and  C11_15 
REMARK    5  A    between atoms: C14_18  and  C15_19 
REMARK    6  A    between atoms: C15_19  and  O1_21 
REMARK    7  A    between atoms: C15_19  and  C17_23 
REMARK    8  A    between atoms: C17_23  and  O2_24 
REMARK    9  A    between atoms: C17_23  and  C18_26 
REMARK   10  A    between atoms: C18_26  and  O3_27 
REMARK   11  A    between atoms: N2_30  and  C19_31 
REMARK   12  A    between atoms: C19_31  and  C20_32 
ROOT
HETATM    1  C8  UNL     1      39.983  47.903  18.960  1.00  0.00    -0.044 C 
HETATM    2  C9  UNL     1      40.666  48.233  19.889  1.00  0.00    -0.081 C 
ENDROOT
BRANCH   1   3
HETATM    3  C7  UNL     1      39.121  47.479  17.863  1.00  0.00     0.129 A 
HETATM    4  C6  UNL     1      37.801  47.819  17.693  1.00  0.00     0.141 A 
HETATM    5  N1  UNL     1      37.408  47.239  16.569  1.00  0.00    -0.333 N 
HETATM    6 CL1  UNL     1      36.846  48.826  18.773  1.00  0.00    -0.061 Cl
HETATM    7  C5  UNL     1      38.442  46.524  15.998  1.00  0.00     0.093 A 
ATOM      8  H1  UNL     1      36.469  47.311  16.178  1.00  0.00     0.168 HD
HETATM    9  N2  UNL     1      39.466  46.692  16.814  1.00  0.00    -0.324 N 
BRANCH   7  10
HETATM   10  C2  UNL     1      38.208  45.804  14.735  1.00  0.00     0.008 C 
HETATM   11  C1  UNL     1      36.877  46.368  14.153  1.00  0.00     0.022 C 
HETATM   12  C3  UNL     1      37.880  44.361  15.045  1.00  0.00     0.022 C 
HETATM   13  C4  UNL     1      39.189  45.998  13.638  1.00  0.00     0.022 C 
ENDBRANCH   7  10
BRANCH   9  14
HETATM   14  C19 UNL     1      40.797  46.168  16.704  1.00  0.00     0.163 C 
BRANCH  14  15
HETATM   15  C20 UNL     1      40.943  44.702  16.913  1.00  0.00     0.140 C 
HETATM   16  C21 UNL     1      40.385  44.322  18.286  1.00  0.00     0.035 C 
HETATM   17  C22 UNL     1      40.931  42.904  18.436  1.00  0.00     0.029 C 
HETATM   18  C23 UNL     1      42.029  42.877  17.368  1.00  0.00     0.168 C 
HETATM   19  O5  UNL     1      42.218  44.214  17.013  1.00  0.00    -0.384 OA
ENDBRANCH  14  15
ENDBRANCH   9  14
ENDBRANCH   1   3
BRANCH   2  20
HETATM   20  C10 UNL     1      41.490  48.611  21.066  1.00  0.00     0.166 C 
HETATM   21 BR1  UNL     1      41.716  50.526  21.066  1.00  0.00    -0.075 Br
BRANCH  20  22
HETATM   22  C11 UNL     1      42.804  47.892  21.041  1.00  0.00     0.148 C 
HETATM   23  C12 UNL     1      43.444  47.808  19.685  1.00  0.00     0.036 C 
HETATM   24  C13 UNL     1      44.936  47.820  20.068  1.00  0.00     0.038 C 
HETATM   25  C14 UNL     1      44.888  47.616  21.564  1.00  0.00     0.158 C 
HETATM   26  O4  UNL     1      43.746  48.371  21.925  1.00  0.00    -0.375 OA
BRANCH  25  27
HETATM   27  C15 UNL     1      46.059  48.212  22.298  1.00  0.00     0.108 C 
HETATM   28  C16 UNL     1      47.263  48.346  21.376  1.00  0.00     0.051 C 
BRANCH  27  29
HETATM   29  O1  UNL     1      45.686  49.466  22.779  1.00  0.00    -0.385 OA
ATOM     30  H1  UNL     1      46.403  50.071  22.629  1.00  0.00     0.210 HD
ENDBRANCH  27  29
BRANCH  27  31
HETATM   31  C17 UNL     1      46.386  47.295  23.469  1.00  0.00     0.178 C 
BRANCH  31  32
HETATM   32  O2  UNL     1      47.764  47.034  23.536  1.00  0.00    -0.390 OA
ATOM     33  H2  UNL     1      48.214  47.698  24.045  1.00  0.00     0.210 HD
ENDBRANCH  31  32
BRANCH  31  34
HETATM   34  C18 UNL     1      45.916  47.929  24.773  1.00  0.00     0.199 C 
BRANCH  34  35
HETATM   35  O3  UNL     1      44.563  47.643  24.939  1.00  0.00    -0.398 OA
ATOM     36  H3  UNL     1      44.380  47.584  25.870  1.00  0.00     0.209 HD
ENDBRANCH  34  35
ENDBRANCH  31  34
ENDBRANCH  27  31
ENDBRANCH  25  27
ENDBRANCH  20  22
ENDBRANCH   2  20
TORSDOF 12
ENDMDL
