MODEL 1
REMARK VINA RESULT: -7.478591325      0.000      0.000
REMARK  8 active torsions:
REMARK  status: ('A' for Active; 'I' for Inactive)
REMARK    1  A    between atoms: C2_2  and  O1_3 
REMARK    2  A    between atoms: C2_2  and  C3_5 
REMARK    3  A    between atoms: N2_13  and  C10_14 
REMARK    4  A    between atoms: C12_16  and  N3_17 
REMARK    5  A    between atoms: C19_26  and  O2_27 
REMARK    6  A    between atoms: C20_29  and  O3_30 
REMARK    7  A    between atoms: C21_32  and  C22_33 
REMARK    8  A    between atoms: C23_34  and  C24_35 
ROOT
HETATM    1  C3  UNL     1      40.097  45.453  17.283  1.00  0.00     0.257 C 
HETATM    2  C4  UNL     1      40.081  45.694  18.763  1.00  0.00     0.049 C 
HETATM    3  C5  UNL     1      41.172  44.762  19.320  1.00  0.00     0.017 C 
HETATM    4  C6  UNL     1      42.428  45.053  18.538  1.00  0.00     0.039 C 
HETATM    5  C7  UNL     1      42.276  44.636  17.075  1.00  0.00     0.279 C 
HETATM    6  N1  UNL     1      41.339  45.691  16.629  1.00  0.00     0.098 N 
HETATM    7  C8  UNL     1      42.087  46.838  17.040  1.00  0.00     0.298 C 
HETATM    8  C9  UNL     1      42.609  46.527  18.433  1.00  0.00     0.119 C 
HETATM    9  N2  UNL     1      41.780  47.278  19.347  1.00  0.00    -0.363 N 
HETATM   10  C21 UNL     1      40.354  47.038  19.269  1.00  0.00     0.114 C 
ENDROOT
BRANCH   9  11
HETATM   11  C10 UNL     1      42.400  48.199  20.239  1.00  0.00     0.070 A 
HETATM   12  C11 UNL     1      43.380  47.748  21.112  1.00  0.00     0.063 A 
HETATM   13  C12 UNL     1      44.039  48.570  22.014  1.00  0.00     0.053 A 
HETATM   14  C18 UNL     1      43.679  49.890  22.017  1.00  0.00     0.073 A 
HETATM   15 BR1  UNL     1      44.529  51.099  23.233  1.00  0.00    -0.046 Br
HETATM   16  C19 UNL     1      42.693  50.358  21.141  1.00  0.00     0.121 A 
HETATM   17  C20 UNL     1      42.049  49.530  20.252  1.00  0.00     0.127 A 
BRANCH  13  18
HETATM   18  N3  UNL     1      45.051  48.010  22.881  1.00  0.00    -0.373 N 
HETATM   19  C13 UNL     1      46.391  47.748  22.454  1.00  0.00     0.167 C 
HETATM   20  C14 UNL     1      47.374  48.011  23.517  1.00  0.00     0.077 C 
HETATM   21  N4  UNL     1      47.049  47.819  24.857  1.00  0.00    -0.394 N 
HETATM   22  C15 UNL     1      47.715  46.770  25.555  1.00  0.00     0.148 C 
HETATM   23  C16 UNL     1      45.709  48.069  25.263  1.00  0.00     0.141 C 
HETATM   24  C17 UNL     1      44.688  47.675  24.235  1.00  0.00     0.143 C 
ENDBRANCH  13  18
BRANCH  16  25
HETATM   25  O2  UNL     1      42.327  51.698  21.144  1.00  0.00    -0.357 OA
ATOM     26  H2  UNL     1      42.741  52.310  20.546  1.00  0.00     0.218 HD
ENDBRANCH  16  25
BRANCH  17  27
HETATM   27  O3  UNL     1      41.060  50.031  19.382  1.00  0.00    -0.356 OA
ATOM     28  H3  UNL     1      40.337  49.486  19.096  1.00  0.00     0.218 HD
ENDBRANCH  17  27
ENDBRANCH   9  11
BRANCH  10  29
HETATM   29  C22 UNL     1      39.727  47.145  20.640  1.00  0.00    -0.003 C 
HETATM   30  C23 UNL     1      38.655  47.862  20.870  1.00  0.00     0.002 C 
BRANCH  30  31
HETATM   31  C24 UNL     1      38.053  47.956  22.217  1.00  0.00     0.249 C 
HETATM   32  F1  UNL     1      36.928  47.187  22.356  1.00  0.00    -0.251 F 
ENDBRANCH  30  31
ENDBRANCH  10  29
BRANCH   1  33
HETATM   33  C2  UNL     1      38.883  45.885  16.551  1.00  0.00     0.147 C 
HETATM   34  C1  UNL     1      38.364  45.051  15.454  1.00  0.00     0.041 C 
BRANCH  33  35
HETATM   35  O1  UNL     1      39.132  47.174  16.039  1.00  0.00    -0.394 OA
ATOM     36  H1  UNL     1      38.347  47.469  15.593  1.00  0.00     0.210 HD
ENDBRANCH  33  35
ENDBRANCH   1  33
TORSDOF 8
ENDMDL
MODEL 2
REMARK VINA RESULT: -7.204051410      0.612      1.046
REMARK  8 active torsions:
REMARK  status: ('A' for Active; 'I' for Inactive)
REMARK    1  A    between atoms: C2_2  and  O1_3 
REMARK    2  A    between atoms: C2_2  and  C3_5 
REMARK    3  A    between atoms: N2_13  and  C10_14 
REMARK    4  A    between atoms: C12_16  and  N3_17 
REMARK    5  A    between atoms: C19_26  and  O2_27 
REMARK    6  A    between atoms: C20_29  and  O3_30 
REMARK    7  A    between atoms: C21_32  and  C22_33 
REMARK    8  A    between atoms: C23_34  and  C24_35 
ROOT
HETATM    1  C3  UNL     1      40.231  45.724  17.629  1.00  0.00     0.257 C 
HETATM    2  C4  UNL     1      40.192  46.032  19.096  1.00  0.00     0.049 C 
HETATM    3  C5  UNL     1      41.328  45.189  19.702  1.00  0.00     0.017 C 
HETATM    4  C6  UNL     1      42.571  45.510  18.912  1.00  0.00     0.039 C 
HETATM    5  C7  UNL     1      42.452  45.018  17.469  1.00  0.00     0.279 C 
HETATM    6  N1  UNL     1      41.463  45.998  16.971  1.00  0.00     0.098 N 
HETATM    7  C8  UNL     1      42.146  47.202  17.330  1.00  0.00     0.298 C 
HETATM    8  C9  UNL     1      42.673  46.985  18.738  1.00  0.00     0.119 C 
HETATM    9  N2  UNL     1      41.798  47.732  19.613  1.00  0.00    -0.363 N 
HETATM   10  C21 UNL     1      40.388  47.411  19.540  1.00  0.00     0.114 C 
ENDROOT
BRANCH   9  11
HETATM   11  C10 UNL     1      42.361  48.726  20.463  1.00  0.00     0.070 A 
HETATM   12  C11 UNL     1      43.309  48.357  21.408  1.00  0.00     0.063 A 
HETATM   13  C12 UNL     1      43.911  49.254  22.278  1.00  0.00     0.053 A 
HETATM   14  C18 UNL     1      43.529  50.564  22.171  1.00  0.00     0.073 A 
HETATM   15 BR1  UNL     1      44.302  51.872  23.334  1.00  0.00    -0.046 Br
HETATM   16  C19 UNL     1      42.575  50.949  21.221  1.00  0.00     0.121 A 
HETATM   17  C20 UNL     1      41.987  50.047  20.366  1.00  0.00     0.127 A 
BRANCH  13  18
HETATM   18  N3  UNL     1      44.893  48.778  23.226  1.00  0.00    -0.373 N 
HETATM   19  C13 UNL     1      44.602  48.552  24.609  1.00  0.00     0.167 C 
HETATM   20  C14 UNL     1      45.323  47.385  25.143  1.00  0.00     0.077 C 
HETATM   21  N4  UNL     1      46.579  47.034  24.657  1.00  0.00    -0.394 N 
HETATM   22  C15 UNL     1      47.689  47.164  25.540  1.00  0.00     0.148 C 
HETATM   23  C16 UNL     1      46.858  47.279  23.283  1.00  0.00     0.141 C 
HETATM   24  C17 UNL     1      46.238  48.543  22.763  1.00  0.00     0.143 C 
ENDBRANCH  13  18
BRANCH  16  25
HETATM   25  O2  UNL     1      42.187  52.277  21.113  1.00  0.00    -0.357 OA
ATOM     26  H2  UNL     1      41.282  52.528  21.261  1.00  0.00     0.218 HD
ENDBRANCH  16  25
BRANCH  17  27
HETATM   27  O3  UNL     1      41.030  50.465  19.420  1.00  0.00    -0.356 OA
ATOM     28  H3  UNL     1      40.118  50.577  19.662  1.00  0.00     0.218 HD
ENDBRANCH  17  27
ENDBRANCH   9  11
BRANCH  10  29
HETATM   29  C22 UNL     1      39.747  47.549  20.901  1.00  0.00    -0.003 C 
HETATM   30  C23 UNL     1      38.524  47.992  21.063  1.00  0.00     0.002 C 
BRANCH  30  31
HETATM   31  C24 UNL     1      37.911  48.119  22.401  1.00  0.00     0.249 C 
HETATM   32  F1  UNL     1      36.824  47.303  22.572  1.00  0.00    -0.251 F 
ENDBRANCH  30  31
ENDBRANCH  10  29
BRANCH   1  33
HETATM   33  C2  UNL     1      39.001  46.054  16.872  1.00  0.00     0.147 C 
HETATM   34  C1  UNL     1      38.632  45.243  15.701  1.00  0.00     0.041 C 
BRANCH  33  35
HETATM   35  O1  UNL     1      39.106  47.397  16.456  1.00  0.00    -0.394 OA
ATOM     36  H1  UNL     1      38.926  47.430  15.524  1.00  0.00     0.210 HD
ENDBRANCH  33  35
ENDBRANCH   1  33
TORSDOF 8
ENDMDL
MODEL 3
REMARK VINA RESULT: -6.989238606      3.558      8.390
REMARK  8 active torsions:
REMARK  status: ('A' for Active; 'I' for Inactive)
REMARK    1  A    between atoms: C2_2  and  O1_3 
REMARK    2  A    between atoms: C2_2  and  C3_5 
REMARK    3  A    between atoms: N2_13  and  C10_14 
REMARK    4  A    between atoms: C12_16  and  N3_17 
REMARK    5  A    between atoms: C19_26  and  O2_27 
REMARK    6  A    between atoms: C20_29  and  O3_30 
REMARK    7  A    between atoms: C21_32  and  C22_33 
REMARK    8  A    between atoms: C23_34  and  C24_35 
ROOT
HETATM    1  C3  UNL     1      43.069  48.543  21.528  1.00  0.00     0.257 C 
HETATM    2  C4  UNL     1      42.332  47.419  20.863  1.00  0.00     0.049 C 
HETATM    3  C5  UNL     1      40.848  47.820  20.952  1.00  0.00     0.017 C 
HETATM    4  C6  UNL     1      40.743  49.211  20.381  1.00  0.00     0.039 C 
HETATM    5  C7  UNL     1      41.470  50.226  21.264  1.00  0.00     0.279 C 
HETATM    6  N1  UNL     1      42.866  49.835  20.966  1.00  0.00     0.098 N 
HETATM    7  C8  UNL     1      42.822  49.931  19.540  1.00  0.00     0.298 C 
HETATM    8  C9  UNL     1      41.518  49.280  19.112  1.00  0.00     0.119 C 
HETATM    9  N2  UNL     1      41.873  47.984  18.581  1.00  0.00    -0.363 N 
HETATM   10  C21 UNL     1      42.617  47.109  19.463  1.00  0.00     0.114 C 
ENDROOT
BRANCH   9  11
HETATM   11  C10 UNL     1      41.494  47.660  17.247  1.00  0.00     0.070 A 
HETATM   12  C11 UNL     1      40.252  47.083  17.014  1.00  0.00     0.063 A 
HETATM   13  C12 UNL     1      39.796  46.734  15.752  1.00  0.00     0.053 A 
HETATM   14  C18 UNL     1      40.640  46.984  14.703  1.00  0.00     0.073 A 
HETATM   15 BR1  UNL     1      40.098  46.529  12.925  1.00  0.00    -0.046 Br
HETATM   16  C19 UNL     1      41.894  47.566  14.926  1.00  0.00     0.121 A 
HETATM   17  C20 UNL     1      42.330  47.907  16.184  1.00  0.00     0.127 A 
BRANCH  13  18
HETATM   18  N3  UNL     1      38.485  46.143  15.605  1.00  0.00    -0.373 N 
HETATM   19  C13 UNL     1      37.282  46.915  15.535  1.00  0.00     0.167 C 
HETATM   20  C14 UNL     1      36.300  46.328  14.609  1.00  0.00     0.077 C 
HETATM   21  N4  UNL     1      36.224  44.950  14.424  1.00  0.00    -0.394 N 
HETATM   22  C15 UNL     1      35.049  44.286  14.881  1.00  0.00     0.148 C 
HETATM   23  C16 UNL     1      37.426  44.195  14.513  1.00  0.00     0.141 C 
HETATM   24  C17 UNL     1      38.379  44.707  15.553  1.00  0.00     0.143 C 
ENDBRANCH  13  18
BRANCH  16  25
HETATM   25  O2  UNL     1      42.750  47.820  13.862  1.00  0.00    -0.357 OA
ATOM     26  H2  UNL     1      42.851  48.703  13.526  1.00  0.00     0.218 HD
ENDBRANCH  16  25
BRANCH  17  27
HETATM   27  O3  UNL     1      43.599  48.491  16.376  1.00  0.00    -0.356 OA
ATOM     28  H3  UNL     1      43.714  49.231  16.960  1.00  0.00     0.218 HD
ENDBRANCH  17  27
ENDBRANCH   9  11
BRANCH  10  29
HETATM   29  C22 UNL     1      42.227  45.669  19.225  1.00  0.00    -0.003 C 
HETATM   30  C23 UNL     1      42.873  44.892  18.391  1.00  0.00     0.002 C 
BRANCH  30  31
HETATM   31  C24 UNL     1      42.479  43.484  18.171  1.00  0.00     0.249 C 
HETATM   32  F1  UNL     1      41.273  43.171  18.739  1.00  0.00    -0.251 F 
ENDBRANCH  30  31
ENDBRANCH  10  29
BRANCH   1  33
HETATM   33  C2  UNL     1      44.450  48.233  21.965  1.00  0.00     0.147 C 
HETATM   34  C1  UNL     1      45.420  47.713  20.988  1.00  0.00     0.041 C 
BRANCH  33  35
HETATM   35  O1  UNL     1      44.362  47.308  23.025  1.00  0.00    -0.394 OA
ATOM     36  H1  UNL     1      43.569  46.798  22.905  1.00  0.00     0.210 HD
ENDBRANCH  33  35
ENDBRANCH   1  33
TORSDOF 8
ENDMDL
MODEL 4
REMARK VINA RESULT: -6.824597245      3.987      7.752
REMARK  8 active torsions:
REMARK  status: ('A' for Active; 'I' for Inactive)
REMARK    1  A    between atoms: C2_2  and  O1_3 
REMARK    2  A    between atoms: C2_2  and  C3_5 
REMARK    3  A    between atoms: N2_13  and  C10_14 
REMARK    4  A    between atoms: C12_16  and  N3_17 
REMARK    5  A    between atoms: C19_26  and  O2_27 
REMARK    6  A    between atoms: C20_29  and  O3_30 
REMARK    7  A    between atoms: C21_32  and  C22_33 
REMARK    8  A    between atoms: C23_34  and  C24_35 
ROOT
HETATM    1  C3  UNL     1      43.033  47.934  21.497  1.00  0.00     0.257 C 
HETATM    2  C4  UNL     1      42.691  46.824  20.549  1.00  0.00     0.049 C 
HETATM    3  C5  UNL     1      41.176  46.614  20.725  1.00  0.00     0.017 C 
HETATM    4  C6  UNL     1      40.531  47.965  20.547  1.00  0.00     0.039 C 
HETATM    5  C7  UNL     1      40.922  48.918  21.677  1.00  0.00     0.279 C 
HETATM    6  N1  UNL     1      42.333  49.157  21.299  1.00  0.00     0.098 N 
HETATM    7  C8  UNL     1      42.130  49.587  19.951  1.00  0.00     0.298 C 
HETATM    8  C9  UNL     1      41.113  48.632  19.350  1.00  0.00     0.119 C 
HETATM    9  N2  UNL     1      41.859  47.737  18.496  1.00  0.00    -0.363 N 
HETATM   10  C21 UNL     1      42.942  47.005  19.120  1.00  0.00     0.114 C 
ENDROOT
BRANCH   9  11
HETATM   11  C10 UNL     1      41.504  47.643  17.120  1.00  0.00     0.070 A 
HETATM   12  C11 UNL     1      42.297  48.270  16.168  1.00  0.00     0.063 A 
HETATM   13  C12 UNL     1      42.030  48.234  14.807  1.00  0.00     0.053 A 
HETATM   14  C18 UNL     1      40.920  47.535  14.418  1.00  0.00     0.073 A 
HETATM   15 BR1  UNL     1      40.470  47.436  12.560  1.00  0.00    -0.046 Br
HETATM   16  C19 UNL     1      40.113  46.898  15.368  1.00  0.00     0.121 A 
HETATM   17  C20 UNL     1      40.392  46.943  16.714  1.00  0.00     0.127 A 
BRANCH  13  18
HETATM   18  N3  UNL     1      42.917  48.912  13.889  1.00  0.00    -0.373 N 
HETATM   19  C13 UNL     1      42.732  50.271  13.479  1.00  0.00     0.167 C 
HETATM   20  C14 UNL     1      44.011  50.978  13.311  1.00  0.00     0.077 C 
HETATM   21  N4  UNL     1      45.155  50.303  12.892  1.00  0.00    -0.394 N 
HETATM   22  C15 UNL     1      45.681  50.627  11.609  1.00  0.00     0.148 C 
HETATM   23  C16 UNL     1      45.317  48.948  13.295  1.00  0.00     0.141 C 
HETATM   24  C17 UNL     1      44.029  48.178  13.339  1.00  0.00     0.143 C 
ENDBRANCH  13  18
BRANCH  16  25
HETATM   25  O2  UNL     1      38.987  46.189  14.973  1.00  0.00    -0.357 OA
ATOM     26  H2  UNL     1      38.410  46.538  14.303  1.00  0.00     0.218 HD
ENDBRANCH  16  25
BRANCH  17  27
HETATM   27  O3  UNL     1      39.560  46.292  17.646  1.00  0.00    -0.356 OA
ATOM     28  H3  UNL     1      38.628  46.194  17.488  1.00  0.00     0.218 HD
ENDBRANCH  17  27
ENDBRANCH   9  11
BRANCH  10  29
HETATM   29  C22 UNL     1      43.074  45.633  18.502  1.00  0.00    -0.003 C 
HETATM   30  C23 UNL     1      42.209  44.674  18.723  1.00  0.00     0.002 C 
BRANCH  30  31
HETATM   31  C24 UNL     1      42.352  43.337  18.109  1.00  0.00     0.249 C 
HETATM   32  F1  UNL     1      41.352  42.473  18.470  1.00  0.00    -0.251 F 
ENDBRANCH  30  31
ENDBRANCH  10  29
BRANCH   1  33
HETATM   33  C2  UNL     1      44.467  48.054  21.850  1.00  0.00     0.147 C 
HETATM   34  C1  UNL     1      45.491  47.683  20.861  1.00  0.00     0.041 C 
BRANCH  33  35
HETATM   35  O1  UNL     1      44.684  47.286  23.012  1.00  0.00    -0.394 OA
ATOM     36  H1  UNL     1      44.089  46.546  22.990  1.00  0.00     0.210 HD
ENDBRANCH  33  35
ENDBRANCH   1  33
TORSDOF 8
ENDMDL
MODEL 5
REMARK VINA RESULT: -6.748117280      2.776      4.168
REMARK  8 active torsions:
REMARK  status: ('A' for Active; 'I' for Inactive)
REMARK    1  A    between atoms: C2_2  and  O1_3 
REMARK    2  A    between atoms: C2_2  and  C3_5 
REMARK    3  A    between atoms: N2_13  and  C10_14 
REMARK    4  A    between atoms: C12_16  and  N3_17 
REMARK    5  A    between atoms: C19_26  and  O2_27 
REMARK    6  A    between atoms: C20_29  and  O3_30 
REMARK    7  A    between atoms: C21_32  and  C22_33 
REMARK    8  A    between atoms: C23_34  and  C24_35 
ROOT
HETATM    1  C3  UNL     1      39.997  44.923  16.673  1.00  0.00     0.257 C 
HETATM    2  C4  UNL     1      39.835  45.376  18.093  1.00  0.00     0.049 C 
HETATM    3  C5  UNL     1      40.712  44.412  18.912  1.00  0.00     0.017 C 
HETATM    4  C6  UNL     1      42.081  44.434  18.281  1.00  0.00     0.039 C 
HETATM    5  C7  UNL     1      42.052  43.830  16.877  1.00  0.00     0.279 C 
HETATM    6  N1  UNL     1      41.330  44.913  16.174  1.00  0.00     0.098 N 
HETATM    7  C8  UNL     1      42.174  46.010  16.534  1.00  0.00     0.298 C 
HETATM    8  C9  UNL     1      42.474  45.845  18.014  1.00  0.00     0.119 C 
HETATM    9  N2  UNL     1      41.652  46.814  18.700  1.00  0.00    -0.363 N 
HETATM   10  C21 UNL     1      40.227  46.737  18.456  1.00  0.00     0.114 C 
ENDROOT
BRANCH   9  11
HETATM   11  C10 UNL     1      42.279  47.775  19.543  1.00  0.00     0.070 A 
HETATM   12  C11 UNL     1      42.497  49.061  19.065  1.00  0.00     0.063 A 
HETATM   13  C12 UNL     1      43.100  50.062  19.812  1.00  0.00     0.053 A 
HETATM   14  C18 UNL     1      43.488  49.732  21.082  1.00  0.00     0.073 A 
HETATM   15 BR1  UNL     1      44.334  51.048  22.184  1.00  0.00    -0.046 Br
HETATM   16  C19 UNL     1      43.273  48.439  21.575  1.00  0.00     0.121 A 
HETATM   17  C20 UNL     1      42.673  47.458  20.822  1.00  0.00     0.127 A 
BRANCH  13  18
HETATM   18  N3  UNL     1      43.280  51.374  19.232  1.00  0.00    -0.373 N 
HETATM   19  C13 UNL     1      42.306  52.418  19.337  1.00  0.00     0.167 C 
HETATM   20  C14 UNL     1      42.928  53.744  19.479  1.00  0.00     0.077 C 
HETATM   21  N4  UNL     1      44.153  54.029  18.881  1.00  0.00    -0.394 N 
HETATM   22  C15 UNL     1      44.165  54.980  17.821  1.00  0.00     0.148 C 
HETATM   23  C16 UNL     1      45.104  52.977  18.770  1.00  0.00     0.141 C 
HETATM   24  C17 UNL     1      44.486  51.638  18.489  1.00  0.00     0.143 C 
ENDBRANCH  13  18
BRANCH  16  25
HETATM   25  O2  UNL     1      43.666  48.104  22.864  1.00  0.00    -0.357 OA
ATOM     26  H2  UNL     1      43.548  47.218  23.188  1.00  0.00     0.218 HD
ENDBRANCH  16  25
BRANCH  17  27
HETATM   27  O3  UNL     1      42.471  46.166  21.347  1.00  0.00    -0.356 OA
ATOM     28  H3  UNL     1      42.290  45.428  20.777  1.00  0.00     0.218 HD
ENDBRANCH  17  27
ENDBRANCH   9  11
BRANCH  10  29
HETATM   29  C22 UNL     1      39.458  47.117  19.700  1.00  0.00    -0.003 C 
HETATM   30  C23 UNL     1      38.529  48.041  19.700  1.00  0.00     0.002 C 
BRANCH  30  31
HETATM   31  C24 UNL     1      37.786  48.400  20.927  1.00  0.00     0.249 C 
HETATM   32  F1  UNL     1      37.767  47.393  21.855  1.00  0.00    -0.251 F 
ENDBRANCH  30  31
ENDBRANCH  10  29
BRANCH   1  33
HETATM   33  C2  UNL     1      38.952  45.384  15.730  1.00  0.00     0.147 C 
HETATM   34  C1  UNL     1      37.876  46.264  16.215  1.00  0.00     0.041 C 
BRANCH  33  35
HETATM   35  O1  UNL     1      38.357  44.240  15.162  1.00  0.00    -0.394 OA
ATOM     36  H1  UNL     1      38.319  43.567  15.831  1.00  0.00     0.210 HD
ENDBRANCH  33  35
ENDBRANCH   1  33
TORSDOF 8
ENDMDL
