MODEL 1
REMARK VINA RESULT: -9.040151786      0.000      0.000
REMARK  10 active torsions:
REMARK  status: ('A' for Active; 'I' for Inactive)
REMARK       I    between atoms: C2_2  and  N1_4 
REMARK    1  A    between atoms: C3_6  and  C4_7 
REMARK    2  A    between atoms: C5_9  and  C6_10 
REMARK    3  A    between atoms: C6_10  and  C7_11 
REMARK    4  A    between atoms: C7_11  and  C8_12 
REMARK    5  A    between atoms: C7_11  and  C16_22 
REMARK    6  A    between atoms: C8_12  and  C9_13 
REMARK    7  A    between atoms: C22_31  and  C23_32 
REMARK    8  A    between atoms: C23_32  and  O6_33 
REMARK    9  A    between atoms: C24_35  and  O7_36 
REMARK   10  A    between atoms: C25_38  and  O8_39 
ROOT
HETATM    1  C7  UNL     1      41.887  48.124  20.124  1.00  0.00     0.018 C 
ENDROOT
BRANCH   1   2
HETATM    2  C6  UNL     1      42.984  47.721  21.108  1.00  0.00     0.042 C 
BRANCH   2   3
HETATM    3  C5  UNL     1      44.265  48.441  21.075  1.00  0.00     0.154 C 
HETATM    4  O2  UNL     1      44.952  48.426  22.252  1.00  0.00    -0.370 OA
HETATM    5  C4  UNL     1      46.216  47.925  22.083  1.00  0.00     0.191 C 
HETATM    6  C25 UNL     1      46.549  48.042  20.612  1.00  0.00     0.183 C 
HETATM    7  C24 UNL     1      45.185  47.801  20.012  1.00  0.00     0.178 C 
BRANCH   5   8
HETATM    8  C3  UNL     1      47.162  48.621  22.961  1.00  0.00     0.098 C 
HETATM    9  N1  UNL     1      47.496  48.211  24.140  1.00  0.00    -0.339 N 
HETATM   10  C2  UNL     1      47.000  47.045  24.739  1.00  0.00     0.217 C 
ATOM     11  H1  UNL     1      48.163  48.772  24.669  1.00  0.00     0.167 HD
HETATM   12  C1  UNL     1      47.869  45.880  24.974  1.00  0.00     0.117 C 
HETATM   13  O1  UNL     1      45.796  46.990  25.083  1.00  0.00    -0.274 OA
ENDBRANCH   5   8
BRANCH   6  14
HETATM   14  O8  UNL     1      47.036  49.313  20.310  1.00  0.00    -0.390 OA
ATOM     15  H8  UNL     1      46.390  49.820  19.834  1.00  0.00     0.210 HD
ENDBRANCH   6  14
BRANCH   7  16
HETATM   16  O7  UNL     1      44.914  46.431  19.994  1.00  0.00    -0.390 OA
ATOM     17  H7  UNL     1      45.209  46.093  19.157  1.00  0.00     0.210 HD
ENDBRANCH   7  16
ENDBRANCH   2   3
ENDBRANCH   1   2
BRANCH   1  18
HETATM   18  C8  UNL     1      41.015  47.038  19.730  1.00  0.00     0.016 C 
BRANCH  18  19
HETATM   19  C9  UNL     1      40.709  46.670  18.342  1.00  0.00     0.041 C 
HETATM   20  C10 UNL     1      39.985  45.272  18.325  1.00  0.00     0.009 C 
HETATM   21  C11 UNL     1      40.760  44.209  18.983  1.00  0.00     0.005 C 
HETATM   22  C12 UNL     1      42.069  43.991  18.307  1.00  0.00    -0.014 C 
HETATM   23  C13 UNL     1      41.955  43.197  17.027  1.00  0.00     0.010 C 
HETATM   24  C14 UNL     1      42.786  45.276  18.148  1.00  0.00     0.065 C 
HETATM   25  C15 UNL     1      41.967  46.365  17.500  1.00  0.00     0.183 C 
HETATM   26  F1  UNL     1      41.529  45.940  16.240  1.00  0.00    -0.225 F 
HETATM   27 CL1  UNL     1      43.022  47.726  17.224  1.00  0.00    -0.082 Cl
ENDBRANCH  18  19
ENDBRANCH   1  18
BRANCH   1  28
HETATM   28  C16 UNL     1      41.135  49.323  20.767  1.00  0.00     0.137 C 
HETATM   29  O3  UNL     1      41.975  50.386  21.000  1.00  0.00    -0.352 OA
HETATM   30  C17 UNL     1      41.391  51.220  21.920  1.00  0.00     0.293 C 
HETATM   31  O4  UNL     1      42.306  52.043  22.525  1.00  0.00    -0.324 OA
HETATM   32  C21 UNL     1      41.050  50.222  23.010  1.00  0.00     0.189 C 
HETATM   33  C18 UNL     1      42.785  51.424  23.667  1.00  0.00     0.160 C 
HETATM   34  C19 UNL     1      44.279  51.498  23.749  1.00  0.00     0.078 C 
HETATM   35  C20 UNL     1      42.202  52.100  24.903  1.00  0.00     0.078 C 
HETATM   36  O5  UNL     1      42.304  50.108  23.621  1.00  0.00    -0.345 OA
HETATM   37  C22 UNL     1      40.692  49.001  22.172  1.00  0.00     0.073 C 
BRANCH  37  38
HETATM   38  C23 UNL     1      39.184  48.884  22.303  1.00  0.00     0.174 C 
BRANCH  38  39
HETATM   39  O6  UNL     1      38.702  49.489  23.436  1.00  0.00    -0.400 OA
ATOM     40  H6  UNL     1      38.009  50.113  23.253  1.00  0.00     0.209 HD
ENDBRANCH  38  39
ENDBRANCH  37  38
ENDBRANCH   1  28
TORSDOF 10
ENDMDL
MODEL 2
REMARK VINA RESULT: -8.964455483      1.373      1.679
REMARK  10 active torsions:
REMARK  status: ('A' for Active; 'I' for Inactive)
REMARK       I    between atoms: C2_2  and  N1_4 
REMARK    1  A    between atoms: C3_6  and  C4_7 
REMARK    2  A    between atoms: C5_9  and  C6_10 
REMARK    3  A    between atoms: C6_10  and  C7_11 
REMARK    4  A    between atoms: C7_11  and  C8_12 
REMARK    5  A    between atoms: C7_11  and  C16_22 
REMARK    6  A    between atoms: C8_12  and  C9_13 
REMARK    7  A    between atoms: C22_31  and  C23_32 
REMARK    8  A    between atoms: C23_32  and  O6_33 
REMARK    9  A    between atoms: C24_35  and  O7_36 
REMARK   10  A    between atoms: C25_38  and  O8_39 
ROOT
HETATM    1  C7  UNL     1      42.738  48.838  19.917  1.00  0.00     0.018 C 
ENDROOT
BRANCH   1   2
HETATM    2  C6  UNL     1      43.639  48.193  20.968  1.00  0.00     0.042 C 
BRANCH   2   3
HETATM    3  C5  UNL     1      45.012  48.695  21.129  1.00  0.00     0.154 C 
HETATM    4  O2  UNL     1      45.502  48.598  22.397  1.00  0.00    -0.370 OA
HETATM    5  C4  UNL     1      46.679  47.895  22.422  1.00  0.00     0.191 C 
HETATM    6  C25 UNL     1      47.243  47.920  21.019  1.00  0.00     0.183 C 
HETATM    7  C24 UNL     1      45.962  47.888  20.219  1.00  0.00     0.178 C 
BRANCH   5   8
HETATM    8  C3  UNL     1      47.583  48.452  23.433  1.00  0.00     0.098 C 
HETATM    9  N1  UNL     1      47.739  47.960  24.618  1.00  0.00    -0.339 N 
HETATM   10  C2  UNL     1      47.065  46.828  25.097  1.00  0.00     0.217 C 
ATOM     11  H1  UNL     1      48.395  48.425  25.245  1.00  0.00     0.167 HD
HETATM   12  C1  UNL     1      47.782  45.569  25.362  1.00  0.00     0.117 C 
HETATM   13  O1  UNL     1      45.830  46.885  25.305  1.00  0.00    -0.274 OA
ENDBRANCH   5   8
BRANCH   6  14
HETATM   14  O8  UNL     1      47.970  49.088  20.794  1.00  0.00    -0.390 OA
ATOM     15  H8  UNL     1      48.903  48.931  20.887  1.00  0.00     0.210 HD
ENDBRANCH   6  14
BRANCH   7  16
HETATM   16  O7  UNL     1      45.477  46.580  20.160  1.00  0.00    -0.390 OA
ATOM     17  H7  UNL     1      45.884  46.158  19.413  1.00  0.00     0.210 HD
ENDBRANCH   7  16
ENDBRANCH   2   3
ENDBRANCH   1   2
BRANCH   1  18
HETATM   18  C8  UNL     1      41.976  47.892  19.129  1.00  0.00     0.016 C 
BRANCH  18  19
HETATM   19  C9  UNL     1      42.205  46.442  19.108  1.00  0.00     0.041 C 
HETATM   20  C10 UNL     1      42.407  45.972  17.619  1.00  0.00     0.009 C 
HETATM   21  C11 UNL     1      41.284  46.331  16.739  1.00  0.00     0.005 C 
HETATM   22  C12 UNL     1      40.015  45.696  17.191  1.00  0.00    -0.014 C 
HETATM   23  C13 UNL     1      39.913  44.235  16.823  1.00  0.00     0.010 C 
HETATM   24  C14 UNL     1      39.789  45.965  18.629  1.00  0.00     0.065 C 
HETATM   25  C15 UNL     1      40.962  45.621  19.513  1.00  0.00     0.183 C 
HETATM   26  F1  UNL     1      41.290  44.268  19.358  1.00  0.00    -0.225 F 
HETATM   27 CL1  UNL     1      40.451  45.819  21.169  1.00  0.00    -0.082 Cl
ENDBRANCH  18  19
ENDBRANCH   1  18
BRANCH   1  28
HETATM   28  C16 UNL     1      41.857  49.875  20.666  1.00  0.00     0.137 C 
HETATM   29  O3  UNL     1      42.612  50.886  21.212  1.00  0.00    -0.352 OA
HETATM   30  C17 UNL     1      41.876  51.515  22.184  1.00  0.00     0.293 C 
HETATM   31  O4  UNL     1      42.667  52.219  23.057  1.00  0.00    -0.324 OA
HETATM   32  C21 UNL     1      41.437  50.319  23.006  1.00  0.00     0.189 C 
HETATM   33  C18 UNL     1      43.016  51.398  24.115  1.00  0.00     0.160 C 
HETATM   34  C19 UNL     1      44.482  51.478  24.414  1.00  0.00     0.078 C 
HETATM   35  C20 UNL     1      42.246  51.809  25.364  1.00  0.00     0.078 C 
HETATM   36  O5  UNL     1      42.602  50.108  23.752  1.00  0.00    -0.345 OA
HETATM   37  C22 UNL     1      41.245  49.278  21.909  1.00  0.00     0.073 C 
BRANCH  37  38
HETATM   38  C23 UNL     1      39.740  49.113  21.805  1.00  0.00     0.174 C 
BRANCH  38  39
HETATM   39  O6  UNL     1      39.119  49.133  23.029  1.00  0.00    -0.400 OA
ATOM     40  H6  UNL     1      38.299  48.653  23.033  1.00  0.00     0.209 HD
ENDBRANCH  38  39
ENDBRANCH  37  38
ENDBRANCH   1  28
TORSDOF 10
ENDMDL
MODEL 3
REMARK VINA RESULT: -8.922970748      1.711      2.873
REMARK  10 active torsions:
REMARK  status: ('A' for Active; 'I' for Inactive)
REMARK       I    between atoms: C2_2  and  N1_4 
REMARK    1  A    between atoms: C3_6  and  C4_7 
REMARK    2  A    between atoms: C5_9  and  C6_10 
REMARK    3  A    between atoms: C6_10  and  C7_11 
REMARK    4  A    between atoms: C7_11  and  C8_12 
REMARK    5  A    between atoms: C7_11  and  C16_22 
REMARK    6  A    between atoms: C8_12  and  C9_13 
REMARK    7  A    between atoms: C22_31  and  C23_32 
REMARK    8  A    between atoms: C23_32  and  O6_33 
REMARK    9  A    between atoms: C24_35  and  O7_36 
REMARK   10  A    between atoms: C25_38  and  O8_39 
ROOT
HETATM    1  C7  UNL     1      41.785  48.046  20.378  1.00  0.00     0.018 C 
ENDROOT
BRANCH   1   2
HETATM    2  C6  UNL     1      42.748  47.762  21.529  1.00  0.00     0.042 C 
BRANCH   2   3
HETATM    3  C5  UNL     1      44.162  47.496  21.221  1.00  0.00     0.154 C 
HETATM    4  O2  UNL     1      44.647  48.193  20.155  1.00  0.00    -0.370 OA
HETATM    5  C4  UNL     1      45.756  48.921  20.502  1.00  0.00     0.191 C 
HETATM    6  C25 UNL     1      46.313  48.309  21.767  1.00  0.00     0.183 C 
HETATM    7  C24 UNL     1      45.032  47.875  22.438  1.00  0.00     0.178 C 
BRANCH   5   8
HETATM    8  C3  UNL     1      46.711  48.955  19.390  1.00  0.00     0.098 C 
HETATM    9  N1  UNL     1      46.713  49.853  18.460  1.00  0.00    -0.339 N 
HETATM   10  C2  UNL     1      45.802  50.916  18.390  1.00  0.00     0.217 C 
ATOM     11  H1  UNL     1      47.423  49.783  17.731  1.00  0.00     0.167 HD
HETATM   12  C1  UNL     1      46.235  52.306  18.609  1.00  0.00     0.117 C 
HETATM   13  O1  UNL     1      44.597  50.683  18.134  1.00  0.00    -0.274 OA
ENDBRANCH   5   8
BRANCH   6  14
HETATM   14  O8  UNL     1      47.142  47.227  21.475  1.00  0.00    -0.390 OA
ATOM     15  H8  UNL     1      46.632  46.461  21.240  1.00  0.00     0.210 HD
ENDBRANCH   6  14
BRANCH   7  16
HETATM   16  O7  UNL     1      44.430  48.973  23.058  1.00  0.00    -0.390 OA
ATOM     17  H7  UNL     1      45.045  49.696  23.019  1.00  0.00     0.210 HD
ENDBRANCH   7  16
ENDBRANCH   2   3
ENDBRANCH   1   2
BRANCH   1  18
HETATM   18  C8  UNL     1      41.066  46.882  19.906  1.00  0.00     0.016 C 
BRANCH  18  19
HETATM   19  C9  UNL     1      40.777  46.590  18.496  1.00  0.00     0.041 C 
HETATM   20  C10 UNL     1      40.046  45.199  18.395  1.00  0.00     0.009 C 
HETATM   21  C11 UNL     1      40.806  44.097  19.006  1.00  0.00     0.005 C 
HETATM   22  C12 UNL     1      42.123  43.908  18.337  1.00  0.00    -0.014 C 
HETATM   23  C13 UNL     1      42.022  43.184  17.015  1.00  0.00     0.010 C 
HETATM   24  C14 UNL     1      42.849  45.196  18.257  1.00  0.00     0.065 C 
HETATM   25  C15 UNL     1      42.045  46.322  17.656  1.00  0.00     0.183 C 
HETATM   26  F1  UNL     1      41.621  45.967  16.369  1.00  0.00    -0.225 F 
HETATM   27 CL1  UNL     1      43.110  47.689  17.467  1.00  0.00    -0.082 Cl
ENDBRANCH  18  19
ENDBRANCH   1  18
BRANCH   1  28
HETATM   28  C16 UNL     1      40.857  49.199  20.852  1.00  0.00     0.137 C 
HETATM   29  O3  UNL     1      41.555  50.368  21.044  1.00  0.00    -0.352 OA
HETATM   30  C17 UNL     1      40.811  51.203  21.839  1.00  0.00     0.293 C 
HETATM   31  O4  UNL     1      41.580  52.176  22.428  1.00  0.00    -0.324 OA
HETATM   32  C21 UNL     1      40.495  50.269  22.990  1.00  0.00     0.189 C 
HETATM   33  C18 UNL     1      42.030  51.715  23.653  1.00  0.00     0.160 C 
HETATM   34  C19 UNL     1      43.496  51.968  23.832  1.00  0.00     0.078 C 
HETATM   35  C20 UNL     1      41.280  52.421  24.777  1.00  0.00     0.078 C 
HETATM   36  O5  UNL     1      41.701  50.353  23.696  1.00  0.00    -0.345 OA
HETATM   37  C22 UNL     1      40.340  48.948  22.246  1.00  0.00     0.073 C 
BRANCH  37  38
HETATM   38  C23 UNL     1      38.849  48.668  22.282  1.00  0.00     0.174 C 
BRANCH  38  39
HETATM   39  O6  UNL     1      38.261  49.078  23.452  1.00  0.00    -0.400 OA
ATOM     40  H6  UNL     1      37.460  48.605  23.645  1.00  0.00     0.209 HD
ENDBRANCH  38  39
ENDBRANCH  37  38
ENDBRANCH   1  28
TORSDOF 10
ENDMDL
MODEL 4
REMARK VINA RESULT: -8.447765450      1.910      3.366
REMARK  10 active torsions:
REMARK  status: ('A' for Active; 'I' for Inactive)
REMARK       I    between atoms: C2_2  and  N1_4 
REMARK    1  A    between atoms: C3_6  and  C4_7 
REMARK    2  A    between atoms: C5_9  and  C6_10 
REMARK    3  A    between atoms: C6_10  and  C7_11 
REMARK    4  A    between atoms: C7_11  and  C8_12 
REMARK    5  A    between atoms: C7_11  and  C16_22 
REMARK    6  A    between atoms: C8_12  and  C9_13 
REMARK    7  A    between atoms: C22_31  and  C23_32 
REMARK    8  A    between atoms: C23_32  and  O6_33 
REMARK    9  A    between atoms: C24_35  and  O7_36 
REMARK   10  A    between atoms: C25_38  and  O8_39 
ROOT
HETATM    1  C7  UNL     1      42.815  47.231  20.058  1.00  0.00     0.018 C 
ENDROOT
BRANCH   1   2
HETATM    2  C6  UNL     1      44.202  47.008  20.658  1.00  0.00     0.042 C 
BRANCH   2   3
HETATM    3  C5  UNL     1      44.655  47.892  21.743  1.00  0.00     0.154 C 
HETATM    4  O2  UNL     1      44.654  47.314  22.978  1.00  0.00    -0.370 OA
HETATM    5  C4  UNL     1      45.891  47.394  23.563  1.00  0.00     0.191 C 
HETATM    6  C25 UNL     1      46.645  48.502  22.863  1.00  0.00     0.183 C 
HETATM    7  C24 UNL     1      46.103  48.347  21.463  1.00  0.00     0.178 C 
BRANCH   5   8
HETATM    8  C3  UNL     1      45.758  47.592  25.010  1.00  0.00     0.098 C 
HETATM    9  N1  UNL     1      46.592  47.136  25.886  1.00  0.00    -0.339 N 
HETATM   10  C2  UNL     1      47.737  46.391  25.571  1.00  0.00     0.217 C 
ATOM     11  H1  UNL     1      46.405  47.331  26.869  1.00  0.00     0.167 HD
HETATM   12  C1  UNL     1      49.086  46.948  25.769  1.00  0.00     0.117 C 
HETATM   13  O1  UNL     1      47.614  45.231  25.114  1.00  0.00    -0.274 OA
ENDBRANCH   5   8
BRANCH   6  14
HETATM   14  O8  UNL     1      46.329  49.745  23.411  1.00  0.00    -0.390 OA
ATOM     15  H8  UNL     1      47.034  50.367  23.273  1.00  0.00     0.210 HD
ENDBRANCH   6  14
BRANCH   7  16
HETATM   16  O7  UNL     1      46.757  47.294  20.819  1.00  0.00    -0.390 OA
ATOM     17  H7  UNL     1      46.971  47.586  19.941  1.00  0.00     0.210 HD
ENDBRANCH   7  16
ENDBRANCH   2   3
ENDBRANCH   1   2
BRANCH   1  18
HETATM   18  C8  UNL     1      42.286  46.086  19.347  1.00  0.00     0.016 C 
BRANCH  18  19
HETATM   19  C9  UNL     1      42.411  45.868  17.900  1.00  0.00     0.041 C 
HETATM   20  C10 UNL     1      41.569  46.960  17.139  1.00  0.00     0.009 C 
HETATM   21  C11 UNL     1      40.153  46.985  17.539  1.00  0.00     0.005 C 
HETATM   22  C12 UNL     1      39.483  45.687  17.248  1.00  0.00    -0.014 C 
HETATM   23  C13 UNL     1      39.130  45.510  15.790  1.00  0.00     0.010 C 
HETATM   24  C14 UNL     1      40.269  44.565  17.811  1.00  0.00     0.065 C 
HETATM   25  C15 UNL     1      41.725  44.573  17.417  1.00  0.00     0.183 C 
HETATM   26  F1  UNL     1      41.837  44.540  16.021  1.00  0.00    -0.225 F 
HETATM   27 CL1  UNL     1      42.438  43.093  18.004  1.00  0.00    -0.082 Cl
ENDBRANCH  18  19
ENDBRANCH   1  18
BRANCH   1  28
HETATM   28  C16 UNL     1      41.904  47.715  21.220  1.00  0.00     0.137 C 
HETATM   29  O3  UNL     1      40.622  47.234  21.097  1.00  0.00    -0.352 OA
HETATM   30  C17 UNL     1      39.784  47.999  21.867  1.00  0.00     0.293 C 
HETATM   31  O4  UNL     1      38.473  47.880  21.480  1.00  0.00    -0.324 OA
HETATM   32  C21 UNL     1      40.162  49.385  21.382  1.00  0.00     0.189 C 
HETATM   33  C18 UNL     1      38.190  48.853  20.536  1.00  0.00     0.160 C 
HETATM   34  C19 UNL     1      37.463  48.283  19.357  1.00  0.00     0.078 C 
HETATM   35  C20 UNL     1      37.319  49.938  21.159  1.00  0.00     0.078 C 
HETATM   36  O5  UNL     1      39.423  49.426  20.194  1.00  0.00    -0.345 OA
HETATM   37  C22 UNL     1      41.655  49.200  21.139  1.00  0.00     0.073 C 
BRANCH  37  38
HETATM   38  C23 UNL     1      42.318  49.972  22.266  1.00  0.00     0.174 C 
BRANCH  38  39
HETATM   39  O6  UNL     1      42.264  49.309  23.466  1.00  0.00    -0.400 OA
ATOM     40  H6  UNL     1      42.757  49.747  24.150  1.00  0.00     0.209 HD
ENDBRANCH  38  39
ENDBRANCH  37  38
ENDBRANCH   1  28
TORSDOF 10
ENDMDL
MODEL 5
REMARK VINA RESULT: -8.373403688      1.573      2.796
REMARK  10 active torsions:
REMARK  status: ('A' for Active; 'I' for Inactive)
REMARK       I    between atoms: C2_2  and  N1_4 
REMARK    1  A    between atoms: C3_6  and  C4_7 
REMARK    2  A    between atoms: C5_9  and  C6_10 
REMARK    3  A    between atoms: C6_10  and  C7_11 
REMARK    4  A    between atoms: C7_11  and  C8_12 
REMARK    5  A    between atoms: C7_11  and  C16_22 
REMARK    6  A    between atoms: C8_12  and  C9_13 
REMARK    7  A    between atoms: C22_31  and  C23_32 
REMARK    8  A    between atoms: C23_32  and  O6_33 
REMARK    9  A    between atoms: C24_35  and  O7_36 
REMARK   10  A    between atoms: C25_38  and  O8_39 
ROOT
HETATM    1  C7  UNL     1      42.589  48.024  20.385  1.00  0.00     0.018 C 
ENDROOT
BRANCH   1   2
HETATM    2  C6  UNL     1      43.866  47.447  20.993  1.00  0.00     0.042 C 
BRANCH   2   3
HETATM    3  C5  UNL     1      44.528  48.183  22.081  1.00  0.00     0.154 C 
HETATM    4  O2  UNL     1      44.490  47.556  23.290  1.00  0.00    -0.370 OA
HETATM    5  C4  UNL     1      45.751  47.388  23.801  1.00  0.00     0.191 C 
HETATM    6  C25 UNL     1      46.653  48.378  23.098  1.00  0.00     0.183 C 
HETATM    7  C24 UNL     1      46.017  48.388  21.729  1.00  0.00     0.178 C 
BRANCH   5   8
HETATM    8  C3  UNL     1      45.734  47.536  25.260  1.00  0.00     0.098 C 
HETATM    9  N1  UNL     1      46.651  47.079  26.048  1.00  0.00    -0.339 N 
HETATM   10  C2  UNL     1      47.786  46.381  25.615  1.00  0.00     0.217 C 
ATOM     11  H1  UNL     1      46.541  47.238  27.050  1.00  0.00     0.167 HD
HETATM   12  C1  UNL     1      49.131  46.972  25.719  1.00  0.00     0.117 C 
HETATM   13  O1  UNL     1      47.658  45.231  25.131  1.00  0.00    -0.274 OA
ENDBRANCH   5   8
BRANCH   6  14
HETATM   14  O8  UNL     1      46.595  49.629  23.711  1.00  0.00    -0.390 OA
ATOM     15  H8  UNL     1      46.874  50.313  23.114  1.00  0.00     0.210 HD
ENDBRANCH   6  14
BRANCH   7  16
HETATM   16  O7  UNL     1      46.435  47.269  21.007  1.00  0.00    -0.390 OA
ATOM     17  H7  UNL     1      46.353  46.514  21.577  1.00  0.00     0.210 HD
ENDBRANCH   7  16
ENDBRANCH   2   3
ENDBRANCH   1   2
BRANCH   1  18
HETATM   18  C8  UNL     1      41.567  47.037  20.106  1.00  0.00     0.016 C 
BRANCH  18  19
HETATM   19  C9  UNL     1      40.970  46.801  18.785  1.00  0.00     0.041 C 
HETATM   20  C10 UNL     1      40.158  45.451  18.819  1.00  0.00     0.009 C 
HETATM   21  C11 UNL     1      40.969  44.296  19.235  1.00  0.00     0.005 C 
HETATM   22  C12 UNL     1      42.100  44.060  18.296  1.00  0.00    -0.014 C 
HETATM   23  C13 UNL     1      41.681  43.379  17.015  1.00  0.00     0.010 C 
HETATM   24  C14 UNL     1      42.863  45.311  18.085  1.00  0.00     0.065 C 
HETATM   25  C15 UNL     1      42.013  46.493  17.690  1.00  0.00     0.183 C 
HETATM   26  F1  UNL     1      41.307  46.197  16.517  1.00  0.00    -0.225 F 
HETATM   27 CL1  UNL     1      43.088  47.810  17.300  1.00  0.00    -0.082 Cl
ENDBRANCH  18  19
ENDBRANCH   1  18
BRANCH   1  28
HETATM   28  C16 UNL     1      42.116  49.154  21.340  1.00  0.00     0.137 C 
HETATM   29  O3  UNL     1      41.084  48.740  22.148  1.00  0.00    -0.352 OA
HETATM   30  C17 UNL     1      40.440  49.843  22.648  1.00  0.00     0.293 C 
HETATM   31  O4  UNL     1      39.175  49.547  23.091  1.00  0.00    -0.324 OA
HETATM   32  C21 UNL     1      40.185  50.610  21.365  1.00  0.00     0.189 C 
HETATM   33  C18 UNL     1      38.279  49.725  22.051  1.00  0.00     0.160 C 
HETATM   34  C19 UNL     1      37.339  48.565  21.929  1.00  0.00     0.078 C 
HETATM   35  C20 UNL     1      37.457  50.987  22.289  1.00  0.00     0.078 C 
HETATM   36  O5  UNL     1      39.058  49.921  20.902  1.00  0.00    -0.345 OA
HETATM   37  C22 UNL     1      41.446  50.270  20.579  1.00  0.00     0.073 C 
BRANCH  37  38
HETATM   38  C23 UNL     1      42.251  51.556  20.585  1.00  0.00     0.174 C 
BRANCH  38  39
HETATM   39  O6  UNL     1      43.479  51.410  21.180  1.00  0.00    -0.400 OA
ATOM     40  H6  UNL     1      43.860  50.553  21.030  1.00  0.00     0.209 HD
ENDBRANCH  38  39
ENDBRANCH  37  38
ENDBRANCH   1  28
TORSDOF 10
ENDMDL
