MODEL 1
REMARK VINA RESULT: -5.829424914      0.000      0.000
REMARK  1 active torsions:
REMARK  status: ('A' for Active; 'I' for Inactive)
REMARK    1  A    between atoms: C2_2  and  C3_3 
ROOT
HETATM    1  C3  UNL     1      25.732  38.404  41.436  1.00  0.00     0.046 C 
HETATM    2  C4  UNL     1      25.512  39.514  42.372  1.00  0.00     0.019 C 
HETATM    3  C5  UNL     1      24.326  39.439  43.256  1.00  0.00     0.045 C 
HETATM    4  C6  UNL     1      23.200  38.601  42.752  1.00  0.00     0.060 C 
HETATM    5  N1  UNL     1      23.595  37.508  41.970  1.00  0.00    -0.382 N 
ATOM      6  H1  UNL     1      23.237  36.572  42.163  1.00  0.00     0.164 HD
HETATM    7  C7  UNL     1      24.493  37.730  40.915  1.00  0.00     0.068 C 
ENDROOT
BRANCH   1   8
HETATM    8  C2  UNL     1      26.570  37.338  42.081  1.00  0.00    -0.027 C 
HETATM    9  C1  UNL     1      27.205  37.547  43.221  1.00  0.00     0.007 C 
ENDBRANCH   1   8
TORSDOF 1
ENDMDL
MODEL 2
REMARK VINA RESULT: -5.722800518      0.900      1.196
REMARK  1 active torsions:
REMARK  status: ('A' for Active; 'I' for Inactive)
REMARK    1  A    between atoms: C2_2  and  C3_3 
ROOT
HETATM    1  C3  UNL     1      25.042  38.936  42.422  1.00  0.00     0.046 C 
HETATM    2  C4  UNL     1      24.385  39.252  43.696  1.00  0.00     0.019 C 
HETATM    3  C5  UNL     1      23.024  38.709  43.918  1.00  0.00     0.045 C 
HETATM    4  C6  UNL     1      22.243  38.409  42.683  1.00  0.00     0.060 C 
HETATM    5  N1  UNL     1      23.018  38.004  41.590  1.00  0.00    -0.382 N 
ATOM      6  H1  UNL     1      22.779  37.164  41.063  1.00  0.00     0.164 HD
HETATM    7  C7  UNL     1      24.132  38.781  41.235  1.00  0.00     0.068 C 
ENDROOT
BRANCH   1   8
HETATM    8  C2  UNL     1      25.823  37.659  42.541  1.00  0.00    -0.027 C 
HETATM    9  C1  UNL     1      27.058  37.641  43.012  1.00  0.00     0.007 C 
ENDBRANCH   1   8
TORSDOF 1
ENDMDL
MODEL 3
REMARK VINA RESULT: -5.282248695      1.533      3.207
REMARK  1 active torsions:
REMARK  status: ('A' for Active; 'I' for Inactive)
REMARK    1  A    between atoms: C2_2  and  C3_3 
ROOT
HETATM    1  C3  UNL     1      24.488  39.199  42.304  1.00  0.00     0.046 C 
HETATM    2  C4  UNL     1      24.078  37.935  41.680  1.00  0.00     0.019 C 
HETATM    3  C5  UNL     1      25.042  36.810  41.713  1.00  0.00     0.045 C 
HETATM    4  C6  UNL     1      26.477  37.198  41.835  1.00  0.00     0.060 C 
HETATM    5  N1  UNL     1      26.702  38.370  42.567  1.00  0.00    -0.382 N 
ATOM      6  H1  UNL     1      27.391  38.392  43.319  1.00  0.00     0.164 HD
HETATM    7  C7  UNL     1      25.957  39.514  42.243  1.00  0.00     0.068 C 
ENDROOT
BRANCH   1   8
HETATM    8  C2  UNL     1      24.100  39.213  43.755  1.00  0.00    -0.027 C 
HETATM    9  C1  UNL     1      22.926  38.765  44.165  1.00  0.00     0.007 C 
ENDBRANCH   1   8
TORSDOF 1
ENDMDL
MODEL 4
REMARK VINA RESULT: -5.228164940      1.379      3.326
REMARK  1 active torsions:
REMARK  status: ('A' for Active; 'I' for Inactive)
REMARK    1  A    between atoms: C2_2  and  C3_3 
ROOT
HETATM    1  C3  UNL     1      24.305  38.536  41.485  1.00  0.00     0.046 C 
HETATM    2  C4  UNL     1      24.595  37.105  41.336  1.00  0.00     0.019 C 
HETATM    3  C5  UNL     1      25.795  36.574  42.024  1.00  0.00     0.045 C 
HETATM    4  C6  UNL     1      26.872  37.570  42.298  1.00  0.00     0.060 C 
HETATM    5  N1  UNL     1      26.411  38.870  42.538  1.00  0.00    -0.382 N 
ATOM      6  H1  UNL     1      26.730  39.395  43.354  1.00  0.00     0.164 HD
HETATM    7  C7  UNL     1      25.500  39.436  41.633  1.00  0.00     0.068 C 
ENDROOT
BRANCH   1   8
HETATM    8  C2  UNL     1      23.435  38.768  42.687  1.00  0.00    -0.027 C 
HETATM    9  C1  UNL     1      22.239  38.215  42.797  1.00  0.00     0.007 C 
ENDBRANCH   1   8
TORSDOF 1
ENDMDL
MODEL 5
REMARK VINA RESULT: -5.210436101      1.034      2.529
REMARK  1 active torsions:
REMARK  status: ('A' for Active; 'I' for Inactive)
REMARK    1  A    between atoms: C2_2  and  C3_3 
ROOT
HETATM    1  C3  UNL     1      24.813  38.377  43.028  1.00  0.00     0.046 C 
HETATM    2  C4  UNL     1      25.751  37.688  42.134  1.00  0.00     0.019 C 
HETATM    3  C5  UNL     1      25.304  37.421  40.747  1.00  0.00     0.045 C 
HETATM    4  C6  UNL     1      23.827  37.338  40.552  1.00  0.00     0.060 C 
HETATM    5  N1  UNL     1      23.082  38.154  41.412  1.00  0.00    -0.382 N 
ATOM      6  H1  UNL     1      22.358  38.773  41.047  1.00  0.00     0.164 HD
HETATM    7  C7  UNL     1      23.355  38.102  42.788  1.00  0.00     0.068 C 
ENDROOT
BRANCH   1   8
HETATM    8  C2  UNL     1      24.997  39.865  42.929  1.00  0.00    -0.027 C 
HETATM    9  C1  UNL     1      25.967  40.398  42.208  1.00  0.00     0.007 C 
ENDBRANCH   1   8
TORSDOF 1
ENDMDL
