MODEL 1
REMARK VINA RESULT: -3.684214528      0.000      0.000
REMARK  3 active torsions:
REMARK  status: ('A' for Active; 'I' for Inactive)
REMARK    1  A    between atoms: N1_1  and  N2_4 
REMARK    2  A    between atoms: N2_4  and  C1_6 
REMARK    3  A    between atoms: N3_7  and  N4_9 
ROOT
HETATM    1  C1  UNL     1      54.276  17.965  19.245  1.00  0.00     0.213 C 
HETATM    2  N3  UNL     1      53.017  18.115  19.336  1.00  0.00    -0.294 N 
ATOM      3  H3  UNL     1      52.570  18.915  18.890  1.00  0.00     0.187 HD
ENDROOT
BRANCH   2   4
HETATM    4  N4  UNL     1      52.248  17.205  20.035  1.00  0.00    -0.287 N 
HETATM    5  C2  UNL     1      51.208  16.615  19.572  1.00  0.00     0.110 A 
HETATM    6  C3  UNL     1      50.084  15.737  19.600  1.00  0.00     0.198 A 
HETATM    7  N5  UNL     1      50.327  16.489  18.367  1.00  0.00    -0.370 N 
ATOM      8  H5  UNL     1      50.081  16.738  17.409  1.00  0.00     0.161 HD
ATOM      9  H4  UNL     1      52.529  16.985  20.991  1.00  0.00     0.188 HD
ENDBRANCH   2   4
BRANCH   1  10
HETATM   10  N2  UNL     1      55.020  18.936  18.511  1.00  0.00    -0.301 N 
ATOM     11  H2  UNL     1      54.713  19.909  18.535  1.00  0.00     0.187 HD
BRANCH  10  12
HETATM   12  N1  UNL     1      56.154  18.608  17.758  1.00  0.00    -0.344 N 
ATOM     13  H12 UNL     1      56.425  17.626  17.712  1.00  0.00     0.176 HD
ATOM     14  H11 UNL     1      56.708  19.308  17.263  1.00  0.00     0.176 HD
ENDBRANCH  10  12
ENDBRANCH   1  10
TORSDOF 3
ENDMDL
MODEL 2
REMARK VINA RESULT: -3.645995799      2.025      2.234
REMARK  3 active torsions:
REMARK  status: ('A' for Active; 'I' for Inactive)
REMARK    1  A    between atoms: N1_1  and  N2_4 
REMARK    2  A    between atoms: N2_4  and  C1_6 
REMARK    3  A    between atoms: N3_7  and  N4_9 
ROOT
HETATM    1  C1  UNL     1      53.409  17.908  19.029  1.00  0.00     0.213 C 
HETATM    2  N3  UNL     1      52.373  17.586  19.694  1.00  0.00    -0.294 N 
ATOM      3  H3  UNL     1      52.393  17.633  20.712  1.00  0.00     0.187 HD
ENDROOT
BRANCH   2   4
HETATM    4  N4  UNL     1      51.223  17.174  19.050  1.00  0.00    -0.287 N 
HETATM    5  C2  UNL     1      50.932  17.434  17.829  1.00  0.00     0.110 A 
HETATM    6  C3  UNL     1      50.143  17.408  16.641  1.00  0.00     0.198 A 
HETATM    7  N5  UNL     1      51.417  18.129  16.594  1.00  0.00    -0.370 N 
ATOM      8  H5  UNL     1      52.112  18.685  16.095  1.00  0.00     0.161 HD
ATOM      9  H4  UNL     1      50.555  16.620  19.587  1.00  0.00     0.188 HD
ENDBRANCH   2   4
BRANCH   1  10
HETATM   10  N2  UNL     1      54.568  18.325  19.747  1.00  0.00    -0.301 N 
ATOM     11  H2  UNL     1      55.063  19.160  19.435  1.00  0.00     0.187 HD
BRANCH  10  12
HETATM   12  N1  UNL     1      55.055  17.635  20.864  1.00  0.00    -0.344 N 
ATOM     13  H12 UNL     1      55.027  16.615  20.840  1.00  0.00     0.176 HD
ATOM     14  H11 UNL     1      55.428  18.111  21.686  1.00  0.00     0.176 HD
ENDBRANCH  10  12
ENDBRANCH   1  10
TORSDOF 3
ENDMDL
MODEL 3
REMARK VINA RESULT: -3.536328693      1.625      1.665
REMARK  3 active torsions:
REMARK  status: ('A' for Active; 'I' for Inactive)
REMARK    1  A    between atoms: N1_1  and  N2_4 
REMARK    2  A    between atoms: N2_4  and  C1_6 
REMARK    3  A    between atoms: N3_7  and  N4_9 
ROOT
HETATM    1  C1  UNL     1      53.890  17.922  18.501  1.00  0.00     0.213 C 
HETATM    2  N3  UNL     1      52.986  17.911  19.396  1.00  0.00    -0.294 N 
ATOM      3  H3  UNL     1      53.208  18.222  20.341  1.00  0.00     0.187 HD
ENDROOT
BRANCH   2   4
HETATM    4  N4  UNL     1      51.707  17.481  19.100  1.00  0.00    -0.287 N 
HETATM    5  C2  UNL     1      51.169  17.525  17.937  1.00  0.00     0.110 A 
HETATM    6  C3  UNL     1      50.140  17.337  16.966  1.00  0.00     0.198 A 
HETATM    7  N5  UNL     1      51.403  17.926  16.513  1.00  0.00    -0.370 N 
ATOM      8  H5  UNL     1      51.995  18.315  15.779  1.00  0.00     0.161 HD
ATOM      9  H4  UNL     1      51.149  17.099  19.864  1.00  0.00     0.188 HD
ENDBRANCH   2   4
BRANCH   1  10
HETATM   10  N2  UNL     1      55.192  18.376  18.864  1.00  0.00    -0.301 N 
ATOM     11  H2  UNL     1      55.443  18.406  19.852  1.00  0.00     0.187 HD
BRANCH  10  12
HETATM   12  N1  UNL     1      56.141  18.783  17.917  1.00  0.00    -0.344 N 
ATOM     13  H12 UNL     1      56.574  18.062  17.340  1.00  0.00     0.176 HD
ATOM     14  H11 UNL     1      56.408  19.760  17.790  1.00  0.00     0.176 HD
ENDBRANCH  10  12
ENDBRANCH   1  10
TORSDOF 3
ENDMDL
MODEL 4
REMARK VINA RESULT: -3.411424425     10.164     11.647
REMARK  3 active torsions:
REMARK  status: ('A' for Active; 'I' for Inactive)
REMARK    1  A    between atoms: N1_1  and  N2_4 
REMARK    2  A    between atoms: N2_4  and  C1_6 
REMARK    3  A    between atoms: N3_7  and  N4_9 
ROOT
HETATM    1  C1  UNL     1      60.996  23.502  26.878  1.00  0.00     0.213 C 
HETATM    2  N3  UNL     1      59.888  23.605  26.261  1.00  0.00    -0.294 N 
ATOM      3  H3  UNL     1      59.102  24.074  26.710  1.00  0.00     0.187 HD
ENDROOT
BRANCH   2   4
HETATM    4  N4  UNL     1      59.739  23.087  24.990  1.00  0.00    -0.287 N 
HETATM    5  C2  UNL     1      58.671  23.171  24.284  1.00  0.00     0.110 A 
HETATM    6  C3  UNL     1      57.843  22.967  23.141  1.00  0.00     0.198 A 
HETATM    7  N5  UNL     1      57.268  23.694  24.275  1.00  0.00    -0.370 N 
ATOM      8  H5  UNL     1      56.494  24.186  24.722  1.00  0.00     0.161 HD
ATOM      9  H4  UNL     1      60.538  22.602  24.581  1.00  0.00     0.188 HD
ENDBRANCH   2   4
BRANCH   1  10
HETATM   10  N2  UNL     1      61.092  24.055  28.189  1.00  0.00    -0.301 N 
ATOM     11  H2  UNL     1      62.002  24.373  28.521  1.00  0.00     0.187 HD
BRANCH  10  12
HETATM   12  N1  UNL     1      59.986  24.180  29.039  1.00  0.00    -0.344 N 
ATOM     13  H12 UNL     1      59.600  25.114  29.181  1.00  0.00     0.176 HD
ATOM     14  H11 UNL     1      59.562  23.382  29.511  1.00  0.00     0.176 HD
ENDBRANCH  10  12
ENDBRANCH   1  10
TORSDOF 3
ENDMDL
MODEL 5
REMARK VINA RESULT: -3.393967563      1.719      4.225
REMARK  3 active torsions:
REMARK  status: ('A' for Active; 'I' for Inactive)
REMARK    1  A    between atoms: N1_1  and  N2_4 
REMARK    2  A    between atoms: N2_4  and  C1_6 
REMARK    3  A    between atoms: N3_7  and  N4_9 
ROOT
HETATM    1  C1  UNL     1      51.222  17.906  17.616  1.00  0.00     0.213 C 
HETATM    2  N3  UNL     1      51.378  17.306  18.726  1.00  0.00    -0.294 N 
ATOM      3  H3  UNL     1      50.770  16.525  18.968  1.00  0.00     0.187 HD
ENDROOT
BRANCH   2   4
HETATM    4  N4  UNL     1      52.363  17.704  19.609  1.00  0.00    -0.287 N 
HETATM    5  C2  UNL     1      53.593  17.895  19.299  1.00  0.00     0.110 A 
HETATM    6  C3  UNL     1      54.960  18.231  19.527  1.00  0.00     0.198 A 
HETATM    7  N5  UNL     1      54.573  17.854  18.166  1.00  0.00    -0.370 N 
ATOM      8  H5  UNL     1      54.800  17.689  17.185  1.00  0.00     0.161 HD
ATOM      9  H4  UNL     1      52.093  17.857  20.580  1.00  0.00     0.188 HD
ENDBRANCH   2   4
BRANCH   1  10
HETATM   10  N2  UNL     1      50.188  17.453  16.744  1.00  0.00    -0.301 N 
ATOM     11  H2  UNL     1      49.216  17.580  17.028  1.00  0.00     0.187 HD
BRANCH  10  12
HETATM   12  N1  UNL     1      50.452  16.840  15.513  1.00  0.00    -0.344 N 
ATOM     13  H12 UNL     1      49.655  16.587  14.928  1.00  0.00     0.176 HD
ATOM     14  H11 UNL     1      51.399  16.641  15.189  1.00  0.00     0.176 HD
ENDBRANCH  10  12
ENDBRANCH   1  10
TORSDOF 3
ENDMDL
