MODEL 1
REMARK VINA RESULT: -3.026896241      0.000      0.000
REMARK  3 active torsions:
REMARK  status: ('A' for Active; 'I' for Inactive)
REMARK    1  A    between atoms: C1_4  and  N2_5 
REMARK    2  A    between atoms: N2_5  and  C2_7 
REMARK    3  A    between atoms: C3_11  and  N4_12 
ROOT
HETATM    1  C2  UNL     1      53.413  17.772  18.939  1.00  0.00     0.346 A 
HETATM    2  N3  UNL     1      54.170  19.027  18.917  1.00  0.00    -0.018 N 
ATOM      3  H31 UNL     1      54.042  19.977  19.265  1.00  0.00     0.282 HD
ATOM      4  H32 UNL     1      54.429  19.725  18.219  1.00  0.00     0.282 HD
HETATM    5  C3  UNL     1      54.742  17.736  19.439  1.00  0.00     0.432 A 
ENDROOT
BRANCH   1   6
HETATM    6  N2  UNL     1      52.216  17.825  19.717  1.00  0.00    -0.356 N 
ATOM      7  H2  UNL     1      52.002  18.669  20.250  1.00  0.00     0.162 HD
BRANCH   6   8
HETATM    8  C1  UNL     1      51.319  16.727  19.762  1.00  0.00     0.170 C 
HETATM    9  N1  UNL     1      50.429  16.541  20.673  1.00  0.00    -0.395 N 
ATOM     10  H12 UNL     1      50.378  17.245  21.409  1.00  0.00     0.156 HD
ATOM     11  H11 UNL     1      49.785  15.752  20.705  1.00  0.00     0.156 HD
ENDBRANCH   6   8
ENDBRANCH   1   6
BRANCH   5  12
HETATM   12  N4  UNL     1      55.133  17.788  20.822  1.00  0.00    -0.046 N 
ATOM     13  H43 UNL     1      56.123  17.545  20.849  1.00  0.00     0.276 HD
ATOM     14  H42 UNL     1      55.128  18.774  21.084  1.00  0.00     0.276 HD
ATOM     15  H41 UNL     1      54.693  17.285  21.592  1.00  0.00     0.276 HD
ENDBRANCH   5  12
TORSDOF 3
ENDMDL
MODEL 2
REMARK VINA RESULT: -2.979194890     12.638     13.481
REMARK  3 active torsions:
REMARK  status: ('A' for Active; 'I' for Inactive)
REMARK    1  A    between atoms: C1_4  and  N2_5 
REMARK    2  A    between atoms: N2_5  and  C2_7 
REMARK    3  A    between atoms: C3_11  and  N4_12 
ROOT
HETATM    1  C2  UNL     1      60.024  23.698  28.347  1.00  0.00     0.346 A 
HETATM    2  N3  UNL     1      60.512  24.410  29.531  1.00  0.00    -0.018 N 
ATOM      3  H31 UNL     1      61.300  25.016  29.760  1.00  0.00     0.282 HD
ATOM      4  H32 UNL     1      60.934  24.162  30.425  1.00  0.00     0.282 HD
HETATM    5  C3  UNL     1      59.118  24.584  28.989  1.00  0.00     0.432 A 
ENDROOT
BRANCH   1   6
HETATM    6  N2  UNL     1      60.770  23.962  27.157  1.00  0.00    -0.356 N 
ATOM      7  H2  UNL     1      60.436  24.672  26.504  1.00  0.00     0.162 HD
BRANCH   6   8
HETATM    8  C1  UNL     1      61.965  23.256  26.867  1.00  0.00     0.170 C 
HETATM    9  N1  UNL     1      63.149  23.757  26.931  1.00  0.00    -0.395 N 
ATOM     10  H12 UNL     1      63.215  24.735  27.212  1.00  0.00     0.156 HD
ATOM     11  H11 UNL     1      64.008  23.250  26.722  1.00  0.00     0.156 HD
ENDBRANCH   6   8
ENDBRANCH   1   6
BRANCH   5  12
HETATM   12  N4  UNL     1      58.813  25.929  28.583  1.00  0.00    -0.046 N 
ATOM     13  H43 UNL     1      57.935  25.880  28.066  1.00  0.00     0.276 HD
ATOM     14  H42 UNL     1      58.556  26.433  29.432  1.00  0.00     0.276 HD
ATOM     15  H41 UNL     1      59.422  26.553  28.054  1.00  0.00     0.276 HD
ENDBRANCH   5  12
TORSDOF 3
ENDMDL
MODEL 3
REMARK VINA RESULT: -2.872199356      8.296     10.036
REMARK  3 active torsions:
REMARK  status: ('A' for Active; 'I' for Inactive)
REMARK    1  A    between atoms: C1_4  and  N2_5 
REMARK    2  A    between atoms: N2_5  and  C2_7 
REMARK    3  A    between atoms: C3_11  and  N4_12 
ROOT
HETATM    1  C2  UNL     1      58.912  22.741  24.032  1.00  0.00     0.346 A 
HETATM    2  N3  UNL     1      57.636  22.043  23.854  1.00  0.00    -0.018 N 
ATOM      3  H31 UNL     1      56.854  21.763  24.446  1.00  0.00     0.282 HD
ATOM      4  H32 UNL     1      57.333  21.089  23.657  1.00  0.00     0.282 HD
HETATM    5  C3  UNL     1      58.022  23.257  23.051  1.00  0.00     0.432 A 
ENDROOT
BRANCH   1   6
HETATM    6  N2  UNL     1      59.117  23.260  25.347  1.00  0.00    -0.356 N 
ATOM      7  H2  UNL     1      58.330  23.671  25.851  1.00  0.00     0.162 HD
BRANCH   6   8
HETATM    8  C1  UNL     1      60.392  23.213  25.965  1.00  0.00     0.170 C 
HETATM    9  N1  UNL     1      60.711  23.841  27.042  1.00  0.00    -0.395 N 
ATOM     10  H12 UNL     1      59.981  24.410  27.471  1.00  0.00     0.156 HD
ATOM     11  H11 UNL     1      61.628  23.807  27.486  1.00  0.00     0.156 HD
ENDBRANCH   6   8
ENDBRANCH   1   6
BRANCH   5  12
HETATM   12  N4  UNL     1      57.131  24.373  23.215  1.00  0.00    -0.046 N 
ATOM     13  H43 UNL     1      57.721  25.201  23.301  1.00  0.00     0.276 HD
ATOM     14  H42 UNL     1      56.672  24.508  22.313  1.00  0.00     0.276 HD
ATOM     15  H41 UNL     1      56.402  24.465  23.923  1.00  0.00     0.276 HD
ENDBRANCH   5  12
TORSDOF 3
ENDMDL
MODEL 4
REMARK VINA RESULT: -2.855022476      1.427      1.786
REMARK  3 active torsions:
REMARK  status: ('A' for Active; 'I' for Inactive)
REMARK    1  A    between atoms: C1_4  and  N2_5 
REMARK    2  A    between atoms: N2_5  and  C2_7 
REMARK    3  A    between atoms: C3_11  and  N4_12 
ROOT
HETATM    1  C2  UNL     1      53.941  18.618  19.168  1.00  0.00     0.346 A 
HETATM    2  N3  UNL     1      54.922  17.810  19.898  1.00  0.00    -0.018 N 
ATOM      3  H31 UNL     1      55.102  16.817  20.047  1.00  0.00     0.282 HD
ATOM      4  H32 UNL     1      55.136  17.605  20.875  1.00  0.00     0.282 HD
HETATM    5  C3  UNL     1      55.314  18.855  18.888  1.00  0.00     0.432 A 
ENDROOT
BRANCH   1   6
HETATM    6  N2  UNL     1      53.033  17.855  18.371  1.00  0.00    -0.356 N 
ATOM      7  H2  UNL     1      53.304  17.583  17.425  1.00  0.00     0.162 HD
BRANCH   6   8
HETATM    8  C1  UNL     1      51.763  17.470  18.870  1.00  0.00     0.170 C 
HETATM    9  N1  UNL     1      51.513  17.178  20.099  1.00  0.00    -0.395 N 
ATOM     10  H12 UNL     1      52.298  17.232  20.748  1.00  0.00     0.156 HD
ATOM     11  H11 UNL     1      50.600  16.901  20.458  1.00  0.00     0.156 HD
ENDBRANCH   6   8
ENDBRANCH   1   6
BRANCH   5  12
HETATM   12  N4  UNL     1      56.056  18.338  17.771  1.00  0.00    -0.046 N 
ATOM     13  H43 UNL     1      56.047  19.068  17.058  1.00  0.00     0.276 HD
ATOM     14  H42 UNL     1      57.033  18.310  18.063  1.00  0.00     0.276 HD
ATOM     15  H41 UNL     1      55.879  17.460  17.283  1.00  0.00     0.276 HD
ENDBRANCH   5  12
TORSDOF 3
ENDMDL
MODEL 5
REMARK VINA RESULT: -2.731839325      1.429      4.003
REMARK  3 active torsions:
REMARK  status: ('A' for Active; 'I' for Inactive)
REMARK    1  A    between atoms: C1_4  and  N2_5 
REMARK    2  A    between atoms: N2_5  and  C2_7 
REMARK    3  A    between atoms: C3_11  and  N4_12 
ROOT
HETATM    1  C2  UNL     1      52.998  17.563  19.222  1.00  0.00     0.346 A 
HETATM    2  N3  UNL     1      51.792  17.964  19.951  1.00  0.00    -0.018 N 
ATOM      3  H31 UNL     1      51.420  18.824  20.355  1.00  0.00     0.282 HD
ATOM      4  H32 UNL     1      51.399  17.809  20.880  1.00  0.00     0.282 HD
HETATM    5  C3  UNL     1      51.747  17.273  18.614  1.00  0.00     0.432 A 
ENDROOT
BRANCH   1   6
HETATM    6  N2  UNL     1      53.870  18.646  18.894  1.00  0.00    -0.356 N 
ATOM      7  H2  UNL     1      53.472  19.555  18.657  1.00  0.00     0.162 HD
BRANCH   6   8
HETATM    8  C1  UNL     1      55.279  18.480  18.891  1.00  0.00     0.170 C 
HETATM    9  N1  UNL     1      56.037  18.645  17.864  1.00  0.00    -0.395 N 
ATOM     10  H12 UNL     1      55.575  18.914  16.996  1.00  0.00     0.156 HD
ATOM     11  H11 UNL     1      57.049  18.525  17.862  1.00  0.00     0.156 HD
ENDBRANCH   6   8
ENDBRANCH   1   6
BRANCH   5  12
HETATM   12  N4  UNL     1      51.106  18.040  17.581  1.00  0.00    -0.046 N 
ATOM     13  H43 UNL     1      50.958  18.973  17.967  1.00  0.00     0.276 HD
ATOM     14  H42 UNL     1      51.811  18.196  16.860  1.00  0.00     0.276 HD
ATOM     15  H41 UNL     1      50.246  17.793  17.091  1.00  0.00     0.276 HD
ENDBRANCH   5  12
TORSDOF 3
ENDMDL
