MODEL 1
REMARK VINA RESULT: -8.269310610      0.000      0.000
REMARK  9 active torsions:
REMARK  status: ('A' for Active; 'I' for Inactive)
REMARK    1  A    between atoms: C1_4  and  C2_5 
REMARK    2  A    between atoms: C1_4  and  N8_26 
REMARK    3  A    between atoms: C2_5  and  N2_6 
REMARK    4  A    between atoms: N8_26  and  C11_28 
REMARK    5  A    between atoms: C11_28  and  C12_29 
REMARK    6  A    between atoms: C13_34  and  C14_35 
REMARK    7  A    between atoms: C14_35  and  N11_36 
REMARK    8  A    between atoms: C14_35  and  O3_40 
REMARK    9  A    between atoms: C14_35  and  C15_42 
ROOT
HETATM    1  N1  UNL     1      25.610  65.130 -15.220  1.00  0.00    -0.388 N 
ATOM      2  H11 UNL     1      25.709  64.388 -15.913  1.00  0.00     0.157 HD
ATOM      3  H12 UNL     1      26.362  65.361 -14.571  1.00  0.00     0.157 HD
HETATM    4  C1  UNL     1      24.522  65.810 -15.136  1.00  0.00     0.089 C 
ENDROOT
BRANCH   4   5
HETATM    5  C2  UNL     1      24.378  66.895 -14.122  1.00  0.00     0.208 C 
BRANCH   5   6
HETATM    6  N2  UNL     1      25.253  68.012 -14.400  1.00  0.00    -0.310 N 
HETATM    7  C3  UNL     1      25.335  68.771 -15.493  1.00  0.00     0.125 A 
HETATM    8  N3  UNL     1      24.610  68.688 -16.639  1.00  0.00    -0.338 N 
HETATM    9  C6  UNL     1      26.325  69.743 -15.333  1.00  0.00     0.069 A 
HETATM   10  C4  UNL     1      24.865  69.567 -17.623  1.00  0.00     0.183 A 
ATOM     11  H3  UNL     1      23.889  67.975 -16.749  1.00  0.00     0.168 HD
HETATM   12  N4  UNL     1      25.818  70.502 -17.466  1.00  0.00    -0.340 N 
HETATM   13  C5  UNL     1      26.571  70.625 -16.338  1.00  0.00     0.132 A 
ATOM     14  H4  UNL     1      25.987  71.153 -18.233  1.00  0.00     0.167 HD
HETATM   15  N5  UNL     1      27.519  71.654 -16.343  1.00  0.00    -0.082 NA
HETATM   16  C7  UNL     1      26.858  69.558 -14.090  1.00  0.00     0.094 A 
HETATM   17  C8  UNL     1      27.848  70.214 -13.413  1.00  0.00     0.264 A 
HETATM   18  C10 UNL     1      26.173  68.472 -13.527  1.00  0.00     0.130 A 
HETATM   19  O1  UNL     1      28.495  71.184 -13.853  1.00  0.00    -0.267 OA
HETATM   20  N6  UNL     1      28.143  69.759 -12.152  1.00  0.00    -0.275 N 
HETATM   21  C9  UNL     1      27.486  68.720 -11.616  1.00  0.00     0.328 A 
ATOM     22  H6  UNL     1      28.875  70.221 -11.613  1.00  0.00     0.173 HD
HETATM   23  O2  UNL     1      27.792  68.341 -10.458  1.00  0.00    -0.247 OA
HETATM   24  N7  UNL     1      26.513  68.075 -12.279  1.00  0.00    -0.293 N 
ATOM     25  H7  UNL     1      26.031  67.289 -11.843  1.00  0.00     0.172 HD
ENDBRANCH   5   6
ENDBRANCH   4   5
BRANCH   4  26
HETATM   26  N8  UNL     1      23.475  65.488 -16.039  1.00  0.00    -0.371 N 
ATOM     27  H8  UNL     1      23.321  66.110 -16.833  1.00  0.00     0.161 HD
BRANCH  26  28
HETATM   28  C11 UNL     1      22.613  64.337 -15.906  1.00  0.00     0.207 C 
BRANCH  28  29
HETATM   29  C12 UNL     1      21.231  64.723 -15.528  1.00  0.00     0.158 A 
HETATM   30  N9  UNL     1      20.757  65.906 -15.132  1.00  0.00    -0.280 N 
HETATM   31  N10 UNL     1      19.453  65.791 -14.898  1.00  0.00    -0.277 N 
ATOM     32  H9  UNL     1      21.306  66.760 -15.027  1.00  0.00     0.189 HD
HETATM   33  C13 UNL     1      19.122  64.500 -15.157  1.00  0.00     0.213 A 
ATOM     34  H10 UNL     1      18.824  66.530 -14.584  1.00  0.00     0.189 HD
HETATM   35  O5  UNL     1      20.215  63.898 -15.531  1.00  0.00    -0.275 OA
BRANCH  33  36
HETATM   36  C14 UNL     1      17.758  63.885 -15.037  1.00  0.00     0.368 C 
BRANCH  36  37
HETATM   37  N11 UNL     1      17.572  62.800 -15.947  1.00  0.00    -0.030 N 
ATOM     38 3H11 UNL     1      18.290  62.799 -16.672  1.00  0.00     0.279 HD
ATOM     39 2H11 UNL     1      17.787  61.906 -15.504  1.00  0.00     0.279 HD
ATOM     40 1H11 UNL     1      16.637  62.793 -16.354  1.00  0.00     0.279 HD
ENDBRANCH  36  37
BRANCH  36  41
HETATM   41  O3  UNL     1      17.607  63.414 -13.735  1.00  0.00    -0.352 OA
ATOM     42  H3  UNL     1      17.744  64.141 -13.139  1.00  0.00     0.213 HD
ENDBRANCH  36  41
BRANCH  36  43
HETATM   43  C15 UNL     1      16.768  64.992 -15.275  1.00  0.00     0.303 C 
HETATM   44  N12 UNL     1      16.810  65.791 -16.434  1.00  0.00    -0.057 NA
HETATM   45  O4  UNL     1      15.874  65.222 -14.421  1.00  0.00    -0.271 OA
ENDBRANCH  36  43
ENDBRANCH  33  36
ENDBRANCH  28  29
ENDBRANCH  26  28
ENDBRANCH   4  26
TORSDOF 9
ENDMDL
MODEL 2
REMARK VINA RESULT: -7.906134454      1.198      1.208
REMARK  9 active torsions:
REMARK  status: ('A' for Active; 'I' for Inactive)
REMARK    1  A    between atoms: C1_4  and  C2_5 
REMARK    2  A    between atoms: C1_4  and  N8_26 
REMARK    3  A    between atoms: C2_5  and  N2_6 
REMARK    4  A    between atoms: N8_26  and  C11_28 
REMARK    5  A    between atoms: C11_28  and  C12_29 
REMARK    6  A    between atoms: C13_34  and  C14_35 
REMARK    7  A    between atoms: C14_35  and  N11_36 
REMARK    8  A    between atoms: C14_35  and  O3_40 
REMARK    9  A    between atoms: C14_35  and  C15_42 
ROOT
HETATM    1  N1  UNL     1      25.610  65.493 -16.047  1.00  0.00    -0.388 N 
ATOM      2  H11 UNL     1      25.753  64.812 -16.792  1.00  0.00     0.157 HD
ATOM      3  H12 UNL     1      26.386  65.848 -15.489  1.00  0.00     0.157 HD
HETATM    4  C1  UNL     1      24.433  65.936 -15.779  1.00  0.00     0.089 C 
ENDROOT
BRANCH   4   5
HETATM    5  C2  UNL     1      24.224  66.933 -14.688  1.00  0.00     0.208 C 
BRANCH   5   6
HETATM    6  N2  UNL     1      25.132  68.051 -14.799  1.00  0.00    -0.310 N 
HETATM    7  C3  UNL     1      25.321  68.892 -15.817  1.00  0.00     0.125 A 
HETATM    8  N3  UNL     1      24.699  68.911 -17.025  1.00  0.00    -0.338 N 
HETATM    9  C6  UNL     1      26.303  69.830 -15.495  1.00  0.00     0.069 A 
HETATM   10  C4  UNL     1      25.050  69.859 -17.911  1.00  0.00     0.183 A 
ATOM     11  H3  UNL     1      23.982  68.223 -17.254  1.00  0.00     0.168 HD
HETATM   12  N4  UNL     1      25.997  70.761 -17.598  1.00  0.00    -0.340 N 
HETATM   13  C5  UNL     1      26.647  70.782 -16.402  1.00  0.00     0.132 A 
ATOM     14  H4  UNL     1      26.240  71.467 -18.293  1.00  0.00     0.167 HD
HETATM   15  N5  UNL     1      27.605  71.790 -16.242  1.00  0.00    -0.082 NA
HETATM   16  C7  UNL     1      26.722  69.538 -14.228  1.00  0.00     0.094 A 
HETATM   17  C8  UNL     1      27.655  70.121 -13.417  1.00  0.00     0.264 A 
HETATM   18  C10 UNL     1      25.977  68.424 -13.815  1.00  0.00     0.130 A 
HETATM   19  O1  UNL     1      28.350  71.110 -13.722  1.00  0.00    -0.267 OA
HETATM   20  N6  UNL     1      27.832  69.564 -12.176  1.00  0.00    -0.275 N 
HETATM   21  C9  UNL     1      27.118  68.499 -11.783  1.00  0.00     0.328 A 
ATOM     22  H6  UNL     1      28.519  69.969 -11.540  1.00  0.00     0.173 HD
HETATM   23  O2  UNL     1      27.315  68.025 -10.637  1.00  0.00    -0.247 OA
HETATM   24  N7  UNL     1      26.200  67.926 -12.578  1.00  0.00    -0.293 N 
ATOM     25  H7  UNL     1      25.673  67.117 -12.250  1.00  0.00     0.172 HD
ENDBRANCH   5   6
ENDBRANCH   4   5
BRANCH   4  26
HETATM   26  N8  UNL     1      23.352  65.441 -16.556  1.00  0.00    -0.371 N 
ATOM     27  H8  UNL     1      23.208  64.431 -16.585  1.00  0.00     0.161 HD
BRANCH  26  28
HETATM   28  C11 UNL     1      22.444  66.274 -17.308  1.00  0.00     0.207 C 
BRANCH  28  29
HETATM   29  C12 UNL     1      21.030  66.033 -16.928  1.00  0.00     0.158 A 
HETATM   30  N9  UNL     1      19.909  66.468 -17.506  1.00  0.00    -0.280 N 
HETATM   31  N10 UNL     1      18.865  66.004 -16.824  1.00  0.00    -0.277 N 
ATOM     32  H9  UNL     1      19.860  67.061 -18.335  1.00  0.00     0.189 HD
HETATM   33  C13 UNL     1      19.364  65.265 -15.800  1.00  0.00     0.213 A 
ATOM     34  H10 UNL     1      17.881  66.171 -17.031  1.00  0.00     0.189 HD
HETATM   35  O5  UNL     1      20.662  65.309 -15.901  1.00  0.00    -0.275 OA
BRANCH  33  36
HETATM   36  C14 UNL     1      18.573  64.536 -14.754  1.00  0.00     0.368 C 
BRANCH  36  37
HETATM   37  N11 UNL     1      17.898  63.394 -15.285  1.00  0.00    -0.030 N 
ATOM     38 3H11 UNL     1      16.919  63.603 -15.483  1.00  0.00     0.279 HD
ATOM     39 2H11 UNL     1      18.215  63.186 -16.232  1.00  0.00     0.279 HD
ATOM     40 1H11 UNL     1      17.985  62.578 -14.679  1.00  0.00     0.279 HD
ENDBRANCH  36  37
BRANCH  36  41
HETATM   41  O3  UNL     1      19.450  64.120 -13.756  1.00  0.00    -0.352 OA
ATOM     42  H3  UNL     1      19.667  63.208 -13.914  1.00  0.00     0.213 HD
ENDBRANCH  36  41
BRANCH  36  43
HETATM   43  C15 UNL     1      17.610  65.536 -14.174  1.00  0.00     0.303 C 
HETATM   44  N12 UNL     1      16.257  65.576 -14.561  1.00  0.00    -0.057 NA
HETATM   45  O4  UNL     1      18.013  66.366 -13.319  1.00  0.00    -0.271 OA
ENDBRANCH  36  43
ENDBRANCH  33  36
ENDBRANCH  28  29
ENDBRANCH  26  28
ENDBRANCH   4  26
TORSDOF 9
ENDMDL
MODEL 3
REMARK VINA RESULT: -7.749849568      3.867      6.776
REMARK  9 active torsions:
REMARK  status: ('A' for Active; 'I' for Inactive)
REMARK    1  A    between atoms: C1_4  and  C2_5 
REMARK    2  A    between atoms: C1_4  and  N8_26 
REMARK    3  A    between atoms: C2_5  and  N2_6 
REMARK    4  A    between atoms: N8_26  and  C11_28 
REMARK    5  A    between atoms: C11_28  and  C12_29 
REMARK    6  A    between atoms: C13_34  and  C14_35 
REMARK    7  A    between atoms: C14_35  and  N11_36 
REMARK    8  A    between atoms: C14_35  and  O3_40 
REMARK    9  A    between atoms: C14_35  and  C15_42 
ROOT
HETATM    1  N1  UNL     1      24.963  66.283 -14.349  1.00  0.00    -0.388 N 
ATOM      2  H11 UNL     1      24.686  66.852 -13.548  1.00  0.00     0.157 HD
ATOM      3  H12 UNL     1      25.779  65.673 -14.317  1.00  0.00     0.157 HD
HETATM    4  C1  UNL     1      24.286  66.313 -15.441  1.00  0.00     0.089 C 
ENDROOT
BRANCH   4   5
HETATM    5  C2  UNL     1      24.691  65.482 -16.612  1.00  0.00     0.208 C 
BRANCH   5   6
HETATM    6  N2  UNL     1      24.535  64.069 -16.349  1.00  0.00    -0.310 N 
HETATM    7  C3  UNL     1      25.405  63.205 -15.823  1.00  0.00     0.125 A 
HETATM    8  N3  UNL     1      26.674  63.434 -15.397  1.00  0.00    -0.338 N 
HETATM    9  C6  UNL     1      24.836  61.931 -15.748  1.00  0.00     0.069 A 
HETATM   10  C4  UNL     1      27.377  62.404 -14.896  1.00  0.00     0.183 A 
ATOM     11  H3  UNL     1      27.084  64.366 -15.455  1.00  0.00     0.168 HD
HETATM   12  N4  UNL     1      26.827  61.179 -14.825  1.00  0.00    -0.340 N 
HETATM   13  C5  UNL     1      25.560  60.900 -15.240  1.00  0.00     0.132 A 
ATOM     14  H4  UNL     1      27.389  60.419 -14.440  1.00  0.00     0.167 HD
HETATM   15  N5  UNL     1      25.146  59.571 -15.094  1.00  0.00    -0.082 NA
HETATM   16  C7  UNL     1      23.571  62.038 -16.251  1.00  0.00     0.094 A 
HETATM   17  C8  UNL     1      22.573  61.118 -16.418  1.00  0.00     0.264 A 
HETATM   18  C10 UNL     1      23.406  63.381 -16.620  1.00  0.00     0.130 A 
HETATM   19  O1  UNL     1      22.653  59.913 -16.113  1.00  0.00    -0.267 OA
HETATM   20  N6  UNL     1      21.400  61.571 -16.965  1.00  0.00    -0.275 N 
HETATM   21  C9  UNL     1      21.245  62.856 -17.317  1.00  0.00     0.328 A 
ATOM     22  H6  UNL     1      20.630  60.917 -17.107  1.00  0.00     0.173 HD
HETATM   23  O2  UNL     1      20.150  63.222 -17.814  1.00  0.00    -0.247 OA
HETATM   24  N7  UNL     1      22.223  63.760 -17.153  1.00  0.00    -0.293 N 
ATOM     25  H7  UNL     1      22.074  64.731 -17.429  1.00  0.00     0.172 HD
ENDBRANCH   5   6
ENDBRANCH   4   5
BRANCH   4  26
HETATM   26  N8  UNL     1      23.148  67.163 -15.486  1.00  0.00    -0.371 N 
ATOM     27  H8  UNL     1      22.882  67.650 -14.630  1.00  0.00     0.161 HD
BRANCH  26  28
HETATM   28  C11 UNL     1      22.344  67.381 -16.665  1.00  0.00     0.207 C 
BRANCH  28  29
HETATM   29  C12 UNL     1      21.033  66.692 -16.575  1.00  0.00     0.158 A 
HETATM   30  N9  UNL     1      20.046  66.623 -17.469  1.00  0.00    -0.280 N 
HETATM   31  N10 UNL     1      19.054  65.895 -16.961  1.00  0.00    -0.277 N 
ATOM     32  H9  UNL     1      20.049  67.058 -18.392  1.00  0.00     0.189 HD
HETATM   33  C13 UNL     1      19.449  65.510 -15.720  1.00  0.00     0.213 A 
ATOM     34  H10 UNL     1      18.170  65.671 -17.416  1.00  0.00     0.189 HD
HETATM   35  O5  UNL     1      20.638  66.008 -15.531  1.00  0.00    -0.275 OA
BRANCH  33  36
HETATM   36  C14 UNL     1      18.666  64.671 -14.753  1.00  0.00     0.368 C 
BRANCH  36  37
HETATM   37  N11 UNL     1      18.054  63.546 -15.386  1.00  0.00    -0.030 N 
ATOM     38 3H11 UNL     1      17.181  63.809 -15.843  1.00  0.00     0.279 HD
ATOM     39 2H11 UNL     1      18.585  63.251 -16.206  1.00  0.00     0.279 HD
ATOM     40 1H11 UNL     1      17.912  62.769 -14.740  1.00  0.00     0.279 HD
ENDBRANCH  36  37
BRANCH  36  41
HETATM   41  O3  UNL     1      19.537  64.216 -13.767  1.00  0.00    -0.352 OA
ATOM     42  H3  UNL     1      19.033  63.723 -13.130  1.00  0.00     0.213 HD
ENDBRANCH  36  41
BRANCH  36  43
HETATM   43  C15 UNL     1      17.647  65.583 -14.125  1.00  0.00     0.303 C 
HETATM   44  N12 UNL     1      17.974  66.436 -13.054  1.00  0.00    -0.057 NA
HETATM   45  O4  UNL     1      16.467  65.590 -14.558  1.00  0.00    -0.271 OA
ENDBRANCH  36  43
ENDBRANCH  33  36
ENDBRANCH  28  29
ENDBRANCH  26  28
ENDBRANCH   4  26
TORSDOF 9
ENDMDL
MODEL 4
REMARK VINA RESULT: -7.643873505      4.369      7.850
REMARK  9 active torsions:
REMARK  status: ('A' for Active; 'I' for Inactive)
REMARK    1  A    between atoms: C1_4  and  C2_5 
REMARK    2  A    between atoms: C1_4  and  N8_26 
REMARK    3  A    between atoms: C2_5  and  N2_6 
REMARK    4  A    between atoms: N8_26  and  C11_28 
REMARK    5  A    between atoms: C11_28  and  C12_29 
REMARK    6  A    between atoms: C13_34  and  C14_35 
REMARK    7  A    between atoms: C14_35  and  N11_36 
REMARK    8  A    between atoms: C14_35  and  O3_40 
REMARK    9  A    between atoms: C14_35  and  C15_42 
ROOT
HETATM    1  N1  UNL     1      30.400  70.894 -14.756  1.00  0.00    -0.388 N 
ATOM      2  H11 UNL     1      31.252  70.630 -15.252  1.00  0.00     0.157 HD
ATOM      3  H12 UNL     1      30.400  71.084 -13.754  1.00  0.00     0.157 HD
HETATM    4  C1  UNL     1      29.282  70.998 -15.381  1.00  0.00     0.089 C 
ENDROOT
BRANCH   4   5
HETATM    5  C2  UNL     1      28.036  71.384 -14.656  1.00  0.00     0.208 C 
BRANCH   5   6
HETATM    6  N2  UNL     1      27.148  70.259 -14.474  1.00  0.00    -0.310 N 
HETATM    7  C3  UNL     1      26.217  69.773 -15.297  1.00  0.00     0.125 A 
HETATM    8  N3  UNL     1      25.862  70.217 -16.531  1.00  0.00    -0.338 N 
HETATM    9  C6  UNL     1      25.588  68.668 -14.717  1.00  0.00     0.069 A 
HETATM   10  C4  UNL     1      24.886  69.568 -17.189  1.00  0.00     0.183 A 
ATOM     11  H3  UNL     1      26.325  71.024 -16.948  1.00  0.00     0.168 HD
HETATM   12  N4  UNL     1      24.283  68.505 -16.628  1.00  0.00    -0.340 N 
HETATM   13  C5  UNL     1      24.604  68.023 -15.396  1.00  0.00     0.132 A 
ATOM     14  H4  UNL     1      23.546  68.035 -17.155  1.00  0.00     0.167 HD
HETATM   15  N5  UNL     1      23.876  66.908 -14.965  1.00  0.00    -0.082 NA
HETATM   16  C7  UNL     1      26.168  68.486 -13.495  1.00  0.00     0.094 A 
HETATM   17  C8  UNL     1      25.949  67.565 -12.508  1.00  0.00     0.264 A 
HETATM   18  C10 UNL     1      27.137  69.490 -13.365  1.00  0.00     0.130 A 
HETATM   19  O1  UNL     1      25.106  66.649 -12.559  1.00  0.00    -0.267 OA
HETATM   20  N6  UNL     1      26.724  67.669 -11.381  1.00  0.00    -0.275 N 
HETATM   21  C9  UNL     1      27.651  68.630 -11.260  1.00  0.00     0.328 A 
ATOM     22  H6  UNL     1      26.593  67.001 -10.621  1.00  0.00     0.173 HD
HETATM   23  O2  UNL     1      28.337  68.684 -10.208  1.00  0.00    -0.247 OA
HETATM   24  N7  UNL     1      27.868  69.535 -12.228  1.00  0.00    -0.293 N 
ATOM     25  H7  UNL     1      28.581  70.254 -12.106  1.00  0.00     0.172 HD
ENDBRANCH   5   6
ENDBRANCH   4   5
BRANCH   4  26
HETATM   26  N8  UNL     1      29.282  70.733 -16.777  1.00  0.00    -0.371 N 
ATOM     27  H8  UNL     1      29.226  69.759 -17.077  1.00  0.00     0.161 HD
BRANCH  26  28
HETATM   28  C11 UNL     1      29.357  71.751 -17.797  1.00  0.00     0.207 C 
BRANCH  28  29
HETATM   29  C12 UNL     1      28.265  72.748 -17.663  1.00  0.00     0.158 A 
HETATM   30  N9  UNL     1      28.307  73.995 -17.190  1.00  0.00    -0.280 N 
HETATM   31  N10 UNL     1      27.087  74.522 -17.259  1.00  0.00    -0.277 N 
ATOM     32  H9  UNL     1      29.138  74.467 -16.833  1.00  0.00     0.189 HD
HETATM   33  C13 UNL     1      26.279  73.568 -17.789  1.00  0.00     0.213 A 
ATOM     34  H10 UNL     1      26.813  75.461 -16.971  1.00  0.00     0.189 HD
HETATM   35  O5  UNL     1      27.025  72.525 -18.016  1.00  0.00    -0.275 OA
BRANCH  33  36
HETATM   36  C14 UNL     1      24.808  73.693 -18.062  1.00  0.00     0.368 C 
BRANCH  36  37
HETATM   37  N11 UNL     1      24.442  75.017 -18.454  1.00  0.00    -0.030 N 
ATOM     38 3H11 UNL     1      24.883  75.276 -19.336  1.00  0.00     0.279 HD
ATOM     39 2H11 UNL     1      23.464  75.058 -18.742  1.00  0.00     0.279 HD
ATOM     40 1H11 UNL     1      24.641  75.704 -17.727  1.00  0.00     0.279 HD
ENDBRANCH  36  37
BRANCH  36  41
HETATM   41  O3  UNL     1      24.480  72.811 -19.088  1.00  0.00    -0.352 OA
ATOM     42  H3  UNL     1      24.907  73.108 -19.883  1.00  0.00     0.213 HD
ENDBRANCH  36  41
BRANCH  36  43
HETATM   43  C15 UNL     1      24.103  73.266 -16.803  1.00  0.00     0.303 C 
HETATM   44  N12 UNL     1      24.792  73.089 -15.588  1.00  0.00    -0.057 NA
HETATM   45  O4  UNL     1      22.863  73.055 -16.825  1.00  0.00    -0.271 OA
ENDBRANCH  36  43
ENDBRANCH  33  36
ENDBRANCH  28  29
ENDBRANCH  26  28
ENDBRANCH   4  26
TORSDOF 9
ENDMDL
MODEL 5
REMARK VINA RESULT: -7.606191050      4.292      6.477
REMARK  9 active torsions:
REMARK  status: ('A' for Active; 'I' for Inactive)
REMARK    1  A    between atoms: C1_4  and  C2_5 
REMARK    2  A    between atoms: C1_4  and  N8_26 
REMARK    3  A    between atoms: C2_5  and  N2_6 
REMARK    4  A    between atoms: N8_26  and  C11_28 
REMARK    5  A    between atoms: C11_28  and  C12_29 
REMARK    6  A    between atoms: C13_34  and  C14_35 
REMARK    7  A    between atoms: C14_35  and  N11_36 
REMARK    8  A    between atoms: C14_35  and  O3_40 
REMARK    9  A    between atoms: C14_35  and  C15_42 
ROOT
HETATM    1  N1  UNL     1      21.913  58.985 -16.862  1.00  0.00    -0.388 N 
ATOM      2  H11 UNL     1      21.251  58.481 -16.272  1.00  0.00     0.157 HD
ATOM      3  H12 UNL     1      22.833  58.603 -17.084  1.00  0.00     0.157 HD
HETATM    4  C1  UNL     1      21.612  60.134 -17.354  1.00  0.00     0.089 C 
ENDROOT
BRANCH   4   5
HETATM    5  C2  UNL     1      22.581  60.871 -18.218  1.00  0.00     0.208 C 
BRANCH   5   6
HETATM    6  N2  UNL     1      23.523  61.638 -17.436  1.00  0.00    -0.310 N 
HETATM    7  C3  UNL     1      24.689  61.263 -16.907  1.00  0.00     0.125 A 
HETATM    8  N3  UNL     1      25.295  60.049 -16.969  1.00  0.00    -0.338 N 
HETATM    9  C6  UNL     1      25.276  62.331 -16.224  1.00  0.00     0.069 A 
HETATM   10  C4  UNL     1      26.482  59.894 -16.356  1.00  0.00     0.183 A 
ATOM     11  H3  UNL     1      24.861  59.274 -17.469  1.00  0.00     0.168 HD
HETATM   12  N4  UNL     1      27.045  60.923 -15.700  1.00  0.00    -0.340 N 
HETATM   13  C5  UNL     1      26.476  62.158 -15.610  1.00  0.00     0.132 A 
ATOM     14  H4  UNL     1      27.946  60.772 -15.245  1.00  0.00     0.167 HD
HETATM   15  N5  UNL     1      27.198  63.115 -14.888  1.00  0.00    -0.082 NA
HETATM   16  C7  UNL     1      24.425  63.391 -16.350  1.00  0.00     0.094 A 
HETATM   17  C8  UNL     1      24.491  64.676 -15.887  1.00  0.00     0.264 A 
HETATM   18  C10 UNL     1      23.338  62.935 -17.109  1.00  0.00     0.130 A 
HETATM   19  O1  UNL     1      25.425  65.145 -15.209  1.00  0.00    -0.267 OA
HETATM   20  N6  UNL     1      23.441  65.501 -16.201  1.00  0.00    -0.275 N 
HETATM   21  C9  UNL     1      22.403  65.062 -16.928  1.00  0.00     0.328 A 
ATOM     22  H6  UNL     1      23.451  66.468 -15.875  1.00  0.00     0.173 HD
HETATM   23  O2  UNL     1      21.465  65.857 -17.189  1.00  0.00    -0.247 OA
HETATM   24  N7  UNL     1      22.337  63.801 -17.383  1.00  0.00    -0.293 N 
ATOM     25  H7  UNL     1      21.534  63.498 -17.935  1.00  0.00     0.172 HD
ENDBRANCH   5   6
ENDBRANCH   4   5
BRANCH   4  26
HETATM   26  N8  UNL     1      20.332  60.666 -17.045  1.00  0.00    -0.371 N 
ATOM     27  H8  UNL     1      19.954  60.489 -16.114  1.00  0.00     0.161 HD
BRANCH  26  28
HETATM   28  C11 UNL     1      19.531  61.439 -17.964  1.00  0.00     0.207 C 
BRANCH  28  29
HETATM   29  C12 UNL     1      19.030  62.690 -17.341  1.00  0.00     0.158 A 
HETATM   30  N9  UNL     1      19.032  63.936 -17.817  1.00  0.00    -0.280 N 
HETATM   31  N10 UNL     1      18.480  64.743 -16.915  1.00  0.00    -0.277 N 
ATOM     32  H9  UNL     1      19.398  64.224 -18.725  1.00  0.00     0.189 HD
HETATM   33  C13 UNL     1      18.131  63.965 -15.858  1.00  0.00     0.213 A 
ATOM     34  H10 UNL     1      18.344  65.750 -17.002  1.00  0.00     0.189 HD
HETATM   35  O5  UNL     1      18.478  62.746 -16.155  1.00  0.00    -0.275 OA
BRANCH  33  36
HETATM   36  C14 UNL     1      17.472  64.424 -14.590  1.00  0.00     0.368 C 
BRANCH  36  37
HETATM   37  N11 UNL     1      16.145  64.904 -14.813  1.00  0.00    -0.030 N 
ATOM     38 3H11 UNL     1      15.747  65.297 -13.960  1.00  0.00     0.279 HD
ATOM     39 2H11 UNL     1      16.150  65.744 -15.392  1.00  0.00     0.279 HD
ATOM     40 1H11 UNL     1      15.536  64.187 -15.207  1.00  0.00     0.279 HD
ENDBRANCH  36  37
BRANCH  36  41
HETATM   41  O3  UNL     1      17.421  63.345 -13.712  1.00  0.00    -0.352 OA
ATOM     42  H3  UNL     1      17.125  62.582 -14.196  1.00  0.00     0.213 HD
ENDBRANCH  36  41
BRANCH  36  43
HETATM   43  C15 UNL     1      18.363  65.488 -14.007  1.00  0.00     0.303 C 
HETATM   44  N12 UNL     1      19.725  65.586 -14.347  1.00  0.00    -0.057 NA
HETATM   45  O4  UNL     1      17.888  66.317 -13.190  1.00  0.00    -0.271 OA
ENDBRANCH  36  43
ENDBRANCH  33  36
ENDBRANCH  28  29
ENDBRANCH  26  28
ENDBRANCH   4  26
TORSDOF 9
ENDMDL
