MODEL 1
REMARK VINA RESULT: -7.372193323      0.000      0.000
REMARK  19 active torsions:
REMARK  status: ('A' for Active; 'I' for Inactive)
REMARK    1  A    between atoms: C2_2  and  C3_3 
REMARK    2  A    between atoms: C4_4  and  C5_5 
REMARK    3  A    between atoms: C5_5  and  N1_6 
REMARK    4  A    between atoms: N1_6  and  C6_7 
REMARK    5  A    between atoms: C6_7  and  C7_8 
REMARK    6  A    between atoms: C7_8  and  O1_9 
REMARK    7  A    between atoms: C7_8  and  C8_11 
REMARK    8  A    between atoms: C8_11  and  O2_12 
REMARK    9  A    between atoms: O2_12  and  C9_13 
REMARK   10  A    between atoms: C9_13  and  C10_14 
REMARK   11  A    between atoms: C10_14  and  C11_15 
REMARK   12  A    between atoms: C11_15  and  C12_16 
REMARK   13  A    between atoms: C12_16  and  C13_17 
REMARK   14  A    between atoms: C13_17  and  C14_18 
REMARK   15  A    between atoms: C14_18  and  N2_19 
REMARK   16  A    between atoms: N2_19  and  C16_21 
REMARK   17  A    between atoms: C16_21  and  C17_22 
REMARK   18  A    between atoms: C17_22  and  C18_23 
REMARK   19  A    between atoms: C18_23  and  N3_24 
ROOT
HETATM    1  O2  UNL     1      19.253   5.835  56.723  1.00  0.00    -0.389 OA
ENDROOT
BRANCH   1   2
HETATM    2  C8  UNL     1      19.867   6.107  57.863  1.00  0.00     0.200 C 
BRANCH   2   3
HETATM    3  C7  UNL     1      20.368   7.528  58.042  1.00  0.00     0.168 C 
BRANCH   3   4
HETATM    4  C6  UNL     1      19.575   8.376  58.944  1.00  0.00     0.271 C 
BRANCH   4   5
HETATM    5  N1  UNL     1      18.959   9.521  58.344  1.00  0.00    -0.061 N 
HETATM    6  C21 UNL     1      18.606   9.383  56.976  1.00  0.00     0.239 C 
HETATM    7  C22 UNL     1      17.244   8.860  57.456  1.00  0.00     0.056 C 
HETATM    8  C23 UNL     1      17.553   9.639  58.743  1.00  0.00     0.239 C 
BRANCH   5   9
HETATM    9  C5  UNL     1      19.706  10.715  58.678  1.00  0.00     0.265 C 
BRANCH   9  10
HETATM   10  C4  UNL     1      18.959  11.962  58.709  1.00  0.00     0.001 C 
HETATM   11  C3  UNL     1      19.122  12.801  59.718  1.00  0.00    -0.003 C 
BRANCH  11  12
HETATM   12  C2  UNL     1      18.391  14.057  59.782  1.00  0.00    -0.011 C 
HETATM   13  C1  UNL     1      18.813  15.089  59.102  1.00  0.00     0.011 C 
ENDBRANCH  11  12
ENDBRANCH   9  10
ENDBRANCH   5   9
ENDBRANCH   4   5
ENDBRANCH   3   4
BRANCH   3  14
HETATM   14  O1  UNL     1      21.726   7.447  58.247  1.00  0.00    -0.392 OA
ATOM     15  H1  UNL     1      22.080   6.643  58.608  1.00  0.00     0.210 HD
ENDBRANCH   3  14
ENDBRANCH   2   3
ENDBRANCH   1   2
BRANCH   1  16
HETATM   16  C9  UNL     1      19.840   5.840  55.510  1.00  0.00     0.167 C 
BRANCH  16  17
HETATM   17  C10 UNL     1      19.203   4.948  54.477  1.00  0.00     0.026 C 
BRANCH  17  18
HETATM   18  C11 UNL     1      19.716   5.037  53.087  1.00  0.00     0.002 C 
BRANCH  18  19
HETATM   19  C12 UNL     1      21.061   5.653  53.010  1.00  0.00     0.005 C 
BRANCH  19  20
HETATM   20  C13 UNL     1      22.158   4.678  52.679  1.00  0.00     0.044 C 
BRANCH  20  21
HETATM   21  C14 UNL     1      22.349   4.288  51.282  1.00  0.00     0.062 C 
BRANCH  21  22
HETATM   22  N2  UNL     1      22.135   2.984  50.839  1.00  0.00    -0.378 N 
HETATM   23  C15 UNL     1      21.435   2.084  51.621  1.00  0.00     0.154 C 
BRANCH  22  24
HETATM   24  C16 UNL     1      22.685   2.699  49.606  1.00  0.00     0.064 C 
BRANCH  24  25
HETATM   25  C17 UNL     1      22.512   3.613  48.449  1.00  0.00     0.075 C 
BRANCH  25  26
HETATM   26  C18 UNL     1      23.030   3.020  47.174  1.00  0.00     0.276 C 
BRANCH  26  27
HETATM   27  N3  UNL     1      23.234   4.010  46.129  1.00  0.00     0.080 N 
HETATM   28  C19 UNL     1      22.050   4.751  45.833  1.00  0.00     0.309 C 
HETATM   29  C20 UNL     1      23.647   3.258  44.953  1.00  0.00     0.309 C 
ENDBRANCH  26  27
ENDBRANCH  25  26
ENDBRANCH  24  25
ENDBRANCH  22  24
ENDBRANCH  21  22
ENDBRANCH  20  21
ENDBRANCH  19  20
ENDBRANCH  18  19
ENDBRANCH  17  18
ENDBRANCH  16  17
ENDBRANCH   1  16
TORSDOF 19
ENDMDL
MODEL 2
REMARK VINA RESULT: -7.334174399      1.951      3.486
REMARK  19 active torsions:
REMARK  status: ('A' for Active; 'I' for Inactive)
REMARK    1  A    between atoms: C2_2  and  C3_3 
REMARK    2  A    between atoms: C4_4  and  C5_5 
REMARK    3  A    between atoms: C5_5  and  N1_6 
REMARK    4  A    between atoms: N1_6  and  C6_7 
REMARK    5  A    between atoms: C6_7  and  C7_8 
REMARK    6  A    between atoms: C7_8  and  O1_9 
REMARK    7  A    between atoms: C7_8  and  C8_11 
REMARK    8  A    between atoms: C8_11  and  O2_12 
REMARK    9  A    between atoms: O2_12  and  C9_13 
REMARK   10  A    between atoms: C9_13  and  C10_14 
REMARK   11  A    between atoms: C10_14  and  C11_15 
REMARK   12  A    between atoms: C11_15  and  C12_16 
REMARK   13  A    between atoms: C12_16  and  C13_17 
REMARK   14  A    between atoms: C13_17  and  C14_18 
REMARK   15  A    between atoms: C14_18  and  N2_19 
REMARK   16  A    between atoms: N2_19  and  C16_21 
REMARK   17  A    between atoms: C16_21  and  C17_22 
REMARK   18  A    between atoms: C17_22  and  C18_23 
REMARK   19  A    between atoms: C18_23  and  N3_24 
ROOT
HETATM    1  O2  UNL     1      20.185   7.640  59.462  1.00  0.00    -0.389 OA
ENDROOT
BRANCH   1   2
HETATM    2  C8  UNL     1      20.934   8.122  60.440  1.00  0.00     0.200 C 
BRANCH   2   3
HETATM    3  C7  UNL     1      20.656   9.552  60.866  1.00  0.00     0.168 C 
BRANCH   3   4
HETATM    4  C6  UNL     1      19.317   9.807  61.414  1.00  0.00     0.271 C 
BRANCH   4   5
HETATM    5  N1  UNL     1      18.441  10.584  60.591  1.00  0.00    -0.061 N 
HETATM    6  C21 UNL     1      17.450   9.851  59.886  1.00  0.00     0.239 C 
HETATM    7  C22 UNL     1      16.537  10.053  61.104  1.00  0.00     0.056 C 
HETATM    8  C23 UNL     1      17.426  11.272  61.395  1.00  0.00     0.239 C 
BRANCH   5   9
HETATM    9  C5  UNL     1      19.210  11.517  59.796  1.00  0.00     0.265 C 
BRANCH   9  10
HETATM   10  C4  UNL     1      18.942  12.931  60.013  1.00  0.00     0.001 C 
HETATM   11  C3  UNL     1      19.006  13.774  58.997  1.00  0.00    -0.003 C 
BRANCH  11  12
HETATM   12  C2  UNL     1      18.745  15.194  59.177  1.00  0.00    -0.011 C 
HETATM   13  C1  UNL     1      18.101  15.606  60.236  1.00  0.00     0.011 C 
ENDBRANCH  11  12
ENDBRANCH   9  10
ENDBRANCH   5   9
ENDBRANCH   4   5
ENDBRANCH   3   4
BRANCH   3  14
HETATM   14  O1  UNL     1      21.749   9.970  61.589  1.00  0.00    -0.392 OA
ATOM     15  H1  UNL     1      22.071  10.853  61.450  1.00  0.00     0.210 HD
ENDBRANCH   3  14
ENDBRANCH   2   3
ENDBRANCH   1   2
BRANCH   1  16
HETATM   16  C9  UNL     1      20.211   8.071  58.186  1.00  0.00     0.167 C 
BRANCH  16  17
HETATM   17  C10 UNL     1      19.063   7.615  57.323  1.00  0.00     0.026 C 
BRANCH  17  18
HETATM   18  C11 UNL     1      19.333   6.531  56.344  1.00  0.00     0.002 C 
BRANCH  18  19
HETATM   19  C12 UNL     1      19.584   5.223  56.991  1.00  0.00     0.005 C 
BRANCH  19  20
HETATM   20  C13 UNL     1      20.575   4.362  56.256  1.00  0.00     0.044 C 
BRANCH  20  21
HETATM   21  C14 UNL     1      20.205   3.835  54.942  1.00  0.00     0.062 C 
BRANCH  21  22
HETATM   22  N2  UNL     1      20.460   4.532  53.763  1.00  0.00    -0.378 N 
HETATM   23  C15 UNL     1      19.418   4.979  52.973  1.00  0.00     0.154 C 
BRANCH  22  24
HETATM   24  C16 UNL     1      21.798   4.704  53.477  1.00  0.00     0.064 C 
BRANCH  24  25
HETATM   25  C17 UNL     1      22.291   4.768  52.078  1.00  0.00     0.075 C 
BRANCH  25  26
HETATM   26  C18 UNL     1      22.480   3.407  51.479  1.00  0.00     0.276 C 
BRANCH  26  27
HETATM   27  N3  UNL     1      23.051   3.449  50.142  1.00  0.00     0.080 N 
HETATM   28  C19 UNL     1      22.107   3.864  49.154  1.00  0.00     0.309 C 
HETATM   29  C20 UNL     1      23.487   2.089  49.861  1.00  0.00     0.309 C 
ENDBRANCH  26  27
ENDBRANCH  25  26
ENDBRANCH  24  25
ENDBRANCH  22  24
ENDBRANCH  21  22
ENDBRANCH  20  21
ENDBRANCH  19  20
ENDBRANCH  18  19
ENDBRANCH  17  18
ENDBRANCH  16  17
ENDBRANCH   1  16
TORSDOF 19
ENDMDL
MODEL 3
REMARK VINA RESULT: -7.177851805      1.428      2.538
REMARK  19 active torsions:
REMARK  status: ('A' for Active; 'I' for Inactive)
REMARK    1  A    between atoms: C2_2  and  C3_3 
REMARK    2  A    between atoms: C4_4  and  C5_5 
REMARK    3  A    between atoms: C5_5  and  N1_6 
REMARK    4  A    between atoms: N1_6  and  C6_7 
REMARK    5  A    between atoms: C6_7  and  C7_8 
REMARK    6  A    between atoms: C7_8  and  O1_9 
REMARK    7  A    between atoms: C7_8  and  C8_11 
REMARK    8  A    between atoms: C8_11  and  O2_12 
REMARK    9  A    between atoms: O2_12  and  C9_13 
REMARK   10  A    between atoms: C9_13  and  C10_14 
REMARK   11  A    between atoms: C10_14  and  C11_15 
REMARK   12  A    between atoms: C11_15  and  C12_16 
REMARK   13  A    between atoms: C12_16  and  C13_17 
REMARK   14  A    between atoms: C13_17  and  C14_18 
REMARK   15  A    between atoms: C14_18  and  N2_19 
REMARK   16  A    between atoms: N2_19  and  C16_21 
REMARK   17  A    between atoms: C16_21  and  C17_22 
REMARK   18  A    between atoms: C17_22  and  C18_23 
REMARK   19  A    between atoms: C18_23  and  N3_24 
ROOT
HETATM    1  O2  UNL     1      21.235   7.464  58.686  1.00  0.00    -0.389 OA
ENDROOT
BRANCH   1   2
HETATM    2  C8  UNL     1      20.658   7.977  59.761  1.00  0.00     0.200 C 
BRANCH   2   3
HETATM    3  C7  UNL     1      20.215   9.425  59.668  1.00  0.00     0.168 C 
BRANCH   3   4
HETATM    4  C6  UNL     1      18.765   9.645  59.562  1.00  0.00     0.271 C 
BRANCH   4   5
HETATM    5  N1  UNL     1      18.314  10.263  58.352  1.00  0.00    -0.061 N 
HETATM    6  C21 UNL     1      18.485   9.495  57.170  1.00  0.00     0.239 C 
HETATM    7  C22 UNL     1      17.089   8.912  57.433  1.00  0.00     0.056 C 
HETATM    8  C23 UNL     1      16.853  10.200  58.236  1.00  0.00     0.239 C 
BRANCH   5   9
HETATM    9  C5  UNL     1      18.793  11.627  58.285  1.00  0.00     0.265 C 
BRANCH   9  10
HETATM   10  C4  UNL     1      18.400  12.507  59.375  1.00  0.00     0.001 C 
HETATM   11  C3  UNL     1      18.766  13.777  59.356  1.00  0.00    -0.003 C 
BRANCH  11  12
HETATM   12  C2  UNL     1      18.392  14.686  60.429  1.00  0.00    -0.011 C 
HETATM   13  C1  UNL     1      18.094  15.928  60.152  1.00  0.00     0.011 C 
ENDBRANCH  11  12
ENDBRANCH   9  10
ENDBRANCH   5   9
ENDBRANCH   4   5
ENDBRANCH   3   4
BRANCH   3  14
HETATM   14  O1  UNL     1      20.912  10.115  60.632  1.00  0.00    -0.392 OA
ATOM     15  H1  UNL     1      20.898  11.065  60.606  1.00  0.00     0.210 HD
ENDBRANCH   3  14
ENDBRANCH   2   3
ENDBRANCH   1   2
BRANCH   1  16
HETATM   16  C9  UNL     1      20.988   6.237  58.188  1.00  0.00     0.167 C 
BRANCH  16  17
HETATM   17  C10 UNL     1      19.668   6.078  57.479  1.00  0.00     0.026 C 
BRANCH  17  18
HETATM   18  C11 UNL     1      19.686   6.064  55.995  1.00  0.00     0.002 C 
BRANCH  18  19
HETATM   19  C12 UNL     1      19.465   4.712  55.431  1.00  0.00     0.005 C 
BRANCH  19  20
HETATM   20  C13 UNL     1      18.912   4.721  54.032  1.00  0.00     0.044 C 
BRANCH  20  21
HETATM   21  C14 UNL     1      19.821   5.008  52.922  1.00  0.00     0.062 C 
BRANCH  21  22
HETATM   22  N2  UNL     1      21.043   4.356  52.776  1.00  0.00    -0.378 N 
HETATM   23  C15 UNL     1      22.198   4.903  53.303  1.00  0.00     0.154 C 
BRANCH  22  24
HETATM   24  C16 UNL     1      20.981   3.173  52.068  1.00  0.00     0.064 C 
BRANCH  24  25
HETATM   25  C17 UNL     1      21.955   2.860  50.993  1.00  0.00     0.075 C 
BRANCH  25  26
HETATM   26  C18 UNL     1      21.731   3.690  49.764  1.00  0.00     0.276 C 
BRANCH  26  27
HETATM   27  N3  UNL     1      22.826   3.600  48.811  1.00  0.00     0.080 N 
HETATM   28  C19 UNL     1      22.448   4.013  47.498  1.00  0.00     0.309 C 
HETATM   29  C20 UNL     1      23.211   2.196  48.790  1.00  0.00     0.309 C 
ENDBRANCH  26  27
ENDBRANCH  25  26
ENDBRANCH  24  25
ENDBRANCH  22  24
ENDBRANCH  21  22
ENDBRANCH  20  21
ENDBRANCH  19  20
ENDBRANCH  18  19
ENDBRANCH  17  18
ENDBRANCH  16  17
ENDBRANCH   1  16
TORSDOF 19
ENDMDL
MODEL 4
REMARK VINA RESULT: -7.174820095      2.180     10.812
REMARK  19 active torsions:
REMARK  status: ('A' for Active; 'I' for Inactive)
REMARK    1  A    between atoms: C2_2  and  C3_3 
REMARK    2  A    between atoms: C4_4  and  C5_5 
REMARK    3  A    between atoms: C5_5  and  N1_6 
REMARK    4  A    between atoms: N1_6  and  C6_7 
REMARK    5  A    between atoms: C6_7  and  C7_8 
REMARK    6  A    between atoms: C7_8  and  O1_9 
REMARK    7  A    between atoms: C7_8  and  C8_11 
REMARK    8  A    between atoms: C8_11  and  O2_12 
REMARK    9  A    between atoms: O2_12  and  C9_13 
REMARK   10  A    between atoms: C9_13  and  C10_14 
REMARK   11  A    between atoms: C10_14  and  C11_15 
REMARK   12  A    between atoms: C11_15  and  C12_16 
REMARK   13  A    between atoms: C12_16  and  C13_17 
REMARK   14  A    between atoms: C13_17  and  C14_18 
REMARK   15  A    between atoms: C14_18  and  N2_19 
REMARK   16  A    between atoms: N2_19  and  C16_21 
REMARK   17  A    between atoms: C16_21  and  C17_22 
REMARK   18  A    between atoms: C17_22  and  C18_23 
REMARK   19  A    between atoms: C18_23  and  N3_24 
ROOT
HETATM    1  O2  UNL     1      19.563   4.538  52.622  1.00  0.00    -0.389 OA
ENDROOT
BRANCH   1   2
HETATM    2  C8  UNL     1      20.671   5.244  52.457  1.00  0.00     0.200 C 
BRANCH   2   3
HETATM    3  C7  UNL     1      21.963   4.460  52.330  1.00  0.00     0.168 C 
BRANCH   3   4
HETATM    4  C6  UNL     1      22.656   4.574  51.038  1.00  0.00     0.271 C 
BRANCH   4   5
HETATM    5  N1  UNL     1      22.403   3.525  50.098  1.00  0.00    -0.061 N 
HETATM    6  C21 UNL     1      23.539   2.776  49.693  1.00  0.00     0.239 C 
HETATM    7  C22 UNL     1      23.248   1.835  50.871  1.00  0.00     0.056 C 
HETATM    8  C23 UNL     1      21.807   2.356  50.752  1.00  0.00     0.239 C 
BRANCH   5   9
HETATM    9  C5  UNL     1      21.565   4.016  49.024  1.00  0.00     0.265 C 
BRANCH   9  10
HETATM   10  C4  UNL     1      22.155   4.033  47.695  1.00  0.00     0.001 C 
HETATM   11  C3  UNL     1      21.429   4.416  46.659  1.00  0.00    -0.003 C 
BRANCH  11  12
HETATM   12  C2  UNL     1      21.985   4.445  45.315  1.00  0.00    -0.011 C 
HETATM   13  C1  UNL     1      22.958   3.633  44.999  1.00  0.00     0.011 C 
ENDBRANCH  11  12
ENDBRANCH   9  10
ENDBRANCH   5   9
ENDBRANCH   4   5
ENDBRANCH   3   4
BRANCH   3  14
HETATM   14  O1  UNL     1      22.682   4.690  53.479  1.00  0.00    -0.392 OA
ATOM     15  H1  UNL     1      22.883   3.952  54.041  1.00  0.00     0.210 HD
ENDBRANCH   3  14
ENDBRANCH   2   3
ENDBRANCH   1   2
BRANCH   1  16
HETATM   16  C9  UNL     1      18.746   4.623  53.690  1.00  0.00     0.167 C 
BRANCH  16  17
HETATM   17  C10 UNL     1      19.430   4.638  55.032  1.00  0.00     0.026 C 
BRANCH  17  18
HETATM   18  C11 UNL     1      19.431   3.375  55.812  1.00  0.00     0.002 C 
BRANCH  18  19
HETATM   19  C12 UNL     1      20.253   3.460  57.042  1.00  0.00     0.005 C 
BRANCH  19  20
HETATM   20  C13 UNL     1      21.028   4.743  57.167  1.00  0.00     0.044 C 
BRANCH  20  21
HETATM   21  C14 UNL     1      21.036   5.433  58.457  1.00  0.00     0.062 C 
BRANCH  21  22
HETATM   22  N2  UNL     1      20.704   6.781  58.580  1.00  0.00    -0.378 N 
HETATM   23  C15 UNL     1      21.005   7.474  59.738  1.00  0.00     0.154 C 
BRANCH  22  24
HETATM   24  C16 UNL     1      20.059   7.315  57.484  1.00  0.00     0.064 C 
BRANCH  24  25
HETATM   25  C17 UNL     1      18.578   7.393  57.417  1.00  0.00     0.075 C 
BRANCH  25  26
HETATM   26  C18 UNL     1      18.095   8.780  57.118  1.00  0.00     0.276 C 
BRANCH  26  27
HETATM   27  N3  UNL     1      18.431   9.735  58.162  1.00  0.00     0.080 N 
HETATM   28  C19 UNL     1      17.575   9.631  59.300  1.00  0.00     0.309 C 
HETATM   29  C20 UNL     1      18.279  11.049  57.553  1.00  0.00     0.309 C 
ENDBRANCH  26  27
ENDBRANCH  25  26
ENDBRANCH  24  25
ENDBRANCH  22  24
ENDBRANCH  21  22
ENDBRANCH  20  21
ENDBRANCH  19  20
ENDBRANCH  18  19
ENDBRANCH  17  18
ENDBRANCH  16  17
ENDBRANCH   1  16
TORSDOF 19
ENDMDL
MODEL 5
REMARK VINA RESULT: -7.113795398      1.941      3.562
REMARK  19 active torsions:
REMARK  status: ('A' for Active; 'I' for Inactive)
REMARK    1  A    between atoms: C2_2  and  C3_3 
REMARK    2  A    between atoms: C4_4  and  C5_5 
REMARK    3  A    between atoms: C5_5  and  N1_6 
REMARK    4  A    between atoms: N1_6  and  C6_7 
REMARK    5  A    between atoms: C6_7  and  C7_8 
REMARK    6  A    between atoms: C7_8  and  O1_9 
REMARK    7  A    between atoms: C7_8  and  C8_11 
REMARK    8  A    between atoms: C8_11  and  O2_12 
REMARK    9  A    between atoms: O2_12  and  C9_13 
REMARK   10  A    between atoms: C9_13  and  C10_14 
REMARK   11  A    between atoms: C10_14  and  C11_15 
REMARK   12  A    between atoms: C11_15  and  C12_16 
REMARK   13  A    between atoms: C12_16  and  C13_17 
REMARK   14  A    between atoms: C13_17  and  C14_18 
REMARK   15  A    between atoms: C14_18  and  N2_19 
REMARK   16  A    between atoms: N2_19  and  C16_21 
REMARK   17  A    between atoms: C16_21  and  C17_22 
REMARK   18  A    between atoms: C17_22  and  C18_23 
REMARK   19  A    between atoms: C18_23  and  N3_24 
ROOT
HETATM    1  O2  UNL     1      20.742   7.234  59.768  1.00  0.00    -0.389 OA
ENDROOT
BRANCH   1   2
HETATM    2  C8  UNL     1      20.748   8.271  60.590  1.00  0.00     0.200 C 
BRANCH   2   3
HETATM    3  C7  UNL     1      19.626   9.279  60.419  1.00  0.00     0.168 C 
BRANCH   3   4
HETATM    4  C6  UNL     1      19.002   9.322  59.089  1.00  0.00     0.271 C 
BRANCH   4   5
HETATM    5  N1  UNL     1      18.594  10.615  58.631  1.00  0.00    -0.061 N 
HETATM    6  C21 UNL     1      18.435  10.747  57.227  1.00  0.00     0.239 C 
HETATM    7  C22 UNL     1      16.973  10.320  57.426  1.00  0.00     0.056 C 
HETATM    8  C23 UNL     1      17.162  10.834  58.861  1.00  0.00     0.239 C 
BRANCH   5   9
HETATM    9  C5  UNL     1      19.395  11.639  59.267  1.00  0.00     0.265 C 
BRANCH   9  10
HETATM   10  C4  UNL     1      19.062  13.018  58.946  1.00  0.00     0.001 C 
HETATM   11  C3  UNL     1      18.748  13.860  59.916  1.00  0.00    -0.003 C 
BRANCH  11  12
HETATM   12  C2  UNL     1      18.408  15.246  59.632  1.00  0.00    -0.011 C 
HETATM   13  C1  UNL     1      17.936  16.006  60.583  1.00  0.00     0.011 C 
ENDBRANCH  11  12
ENDBRANCH   9  10
ENDBRANCH   5   9
ENDBRANCH   4   5
ENDBRANCH   3   4
BRANCH   3  14
HETATM   14  O1  UNL     1      18.811   9.154  61.520  1.00  0.00    -0.392 OA
ATOM     15  H1  UNL     1      19.065   9.595  62.322  1.00  0.00     0.210 HD
ENDBRANCH   3  14
ENDBRANCH   2   3
ENDBRANCH   1   2
BRANCH   1  16
HETATM   16  C9  UNL     1      21.833   6.537  59.397  1.00  0.00     0.167 C 
BRANCH  16  17
HETATM   17  C10 UNL     1      21.574   5.345  58.514  1.00  0.00     0.026 C 
BRANCH  17  18
HETATM   18  C11 UNL     1      20.191   4.806  58.481  1.00  0.00     0.002 C 
BRANCH  18  19
HETATM   19  C12 UNL     1      19.546   4.961  57.157  1.00  0.00     0.005 C 
BRANCH  19  20
HETATM   20  C13 UNL     1      20.125   4.072  56.090  1.00  0.00     0.044 C 
BRANCH  20  21
HETATM   21  C14 UNL     1      20.925   4.683  55.029  1.00  0.00     0.062 C 
BRANCH  21  22
HETATM   22  N2  UNL     1      20.401   4.952  53.766  1.00  0.00    -0.378 N 
HETATM   23  C15 UNL     1      19.045   4.826  53.528  1.00  0.00     0.154 C 
BRANCH  22  24
HETATM   24  C16 UNL     1      21.337   5.323  52.823  1.00  0.00     0.064 C 
BRANCH  24  25
HETATM   25  C17 UNL     1      22.167   4.316  52.116  1.00  0.00     0.075 C 
BRANCH  25  26
HETATM   26  C18 UNL     1      21.336   3.321  51.364  1.00  0.00     0.276 C 
BRANCH  26  27
HETATM   27  N3  UNL     1      22.005   2.800  50.182  1.00  0.00     0.080 N 
HETATM   28  C19 UNL     1      23.246   2.163  50.489  1.00  0.00     0.309 C 
HETATM   29  C20 UNL     1      22.244   3.954  49.328  1.00  0.00     0.309 C 
ENDBRANCH  26  27
ENDBRANCH  25  26
ENDBRANCH  24  25
ENDBRANCH  22  24
ENDBRANCH  21  22
ENDBRANCH  20  21
ENDBRANCH  19  20
ENDBRANCH  18  19
ENDBRANCH  17  18
ENDBRANCH  16  17
ENDBRANCH   1  16
TORSDOF 19
ENDMDL
