MODEL 1
REMARK VINA RESULT: -7.792629577      0.000      0.000
REMARK  2 active torsions:
REMARK  status: ('A' for Active; 'I' for Inactive)
REMARK       I    between atoms: N2_6  and  C4_8 
REMARK       I    between atoms: C4_8  and  N4_12 
REMARK    1  A    between atoms: N4_12  and  C6_14 
REMARK    2  A    between atoms: C6_14  and  C7_15 
ROOT
HETATM    1  C7  UNL     1      21.155  68.950   7.619  1.00  0.00     0.144 C 
HETATM    2  C8  UNL     1      19.930  69.232   8.406  1.00  0.00     0.060 C 
HETATM    3  N5  UNL     1      18.968  69.458   9.011  1.00  0.00    -0.197 NA
ENDROOT
BRANCH   1   4
HETATM    4  C6  UNL     1      21.025  67.514   7.128  1.00  0.00     0.152 C 
BRANCH   4   5
HETATM    5  N4  UNL     1      22.270  66.819   7.072  1.00  0.00    -0.225 N 
HETATM    6  C4  UNL     1      22.667  65.848   8.047  1.00  0.00     0.675 C 
HETATM    7  N2  UNL     1      23.614  66.144   8.996  1.00  0.00    -0.176 N 
HETATM    8  N3  UNL     1      22.084  64.669   8.008  1.00  0.00    -0.231 N 
HETATM    9  C3  UNL     1      24.789  65.969   9.278  1.00  0.00     0.130 A 
ATOM     10  H2  UNL     1      23.183  66.713   9.725  1.00  0.00     0.186 HD
HETATM   11  N1  UNL     1      25.264  66.573  10.504  1.00  0.00    -0.328 N 
HETATM   12  C9  UNL     1      25.738  65.210   8.494  1.00  0.00     0.005 A 
HETATM   13  C2  UNL     1      26.604  66.420  10.909  1.00  0.00     0.097 A 
ATOM     14  H1  UNL     1      24.621  67.114  11.081  1.00  0.00     0.169 HD
HETATM   15  C1  UNL     1      27.070  66.971  12.042  1.00  0.00     0.063 C 
HETATM   16  N6  UNL     1      27.475  65.661  10.089  1.00  0.00    -0.346 N 
HETATM   17  C11 UNL     1      27.001  65.078   8.896  1.00  0.00     0.016 A 
ATOM     18  H6  UNL     1      28.450  65.537  10.363  1.00  0.00     0.167 HD
HETATM   19  C12 UNL     1      27.957  64.285   8.063  1.00  0.00     0.069 C 
HETATM   20  C10 UNL     1      25.376  64.533   7.201  1.00  0.00     0.054 C 
HETATM   21  C5  UNL     1      21.088  64.338   7.018  1.00  0.00     0.165 C 
ATOM     22  H3  UNL     1      22.345  63.966   8.700  1.00  0.00     0.177 HD
ATOM     23  H4  UNL     1      22.907  67.023   6.301  1.00  0.00     0.177 HD
ENDBRANCH   4   5
ENDBRANCH   1   4
TORSDOF 2
ENDMDL
MODEL 2
REMARK VINA RESULT: -7.716578844      1.401      1.431
REMARK  2 active torsions:
REMARK  status: ('A' for Active; 'I' for Inactive)
REMARK       I    between atoms: N2_6  and  C4_8 
REMARK       I    between atoms: C4_8  and  N4_12 
REMARK    1  A    between atoms: N4_12  and  C6_14 
REMARK    2  A    between atoms: C6_14  and  C7_15 
ROOT
HETATM    1  C7  UNL     1      20.689  69.343   8.346  1.00  0.00     0.144 C 
HETATM    2  C8  UNL     1      19.253  68.973   8.364  1.00  0.00     0.060 C 
HETATM    3  N5  UNL     1      18.133  68.679   8.368  1.00  0.00    -0.197 NA
ENDROOT
BRANCH   1   4
HETATM    4  C6  UNL     1      21.383  68.406   9.327  1.00  0.00     0.152 C 
BRANCH   4   5
HETATM    5  N4  UNL     1      22.284  67.494   8.699  1.00  0.00    -0.225 N 
HETATM    6  C4  UNL     1      22.829  66.351   9.367  1.00  0.00     0.675 C 
HETATM    7  N2  UNL     1      24.134  66.337   9.795  1.00  0.00    -0.176 N 
HETATM    8  N3  UNL     1      22.034  65.322   9.564  1.00  0.00    -0.231 N 
HETATM    9  C3  UNL     1      25.240  65.902   9.514  1.00  0.00     0.130 A 
ATOM     10  H2  UNL     1      24.204  66.882  10.654  1.00  0.00     0.186 HD
HETATM   11  N1  UNL     1      26.323  66.244  10.410  1.00  0.00    -0.328 N 
HETATM   12  C9  UNL     1      25.553  65.078   8.369  1.00  0.00     0.005 A 
HETATM   13  C2  UNL     1      27.632  65.785  10.165  1.00  0.00     0.097 A 
ATOM     14  H1  UNL     1      26.137  66.824  11.228  1.00  0.00     0.169 HD
HETATM   15  C1  UNL     1      28.655  66.088  10.981  1.00  0.00     0.063 C 
HETATM   16  N6  UNL     1      27.862  64.980   9.022  1.00  0.00    -0.346 N 
HETATM   17  C11 UNL     1      26.798  64.653   8.156  1.00  0.00     0.016 A 
ATOM     18  H6  UNL     1      28.801  64.635   8.825  1.00  0.00     0.167 HD
HETATM   19  C12 UNL     1      27.089  63.801   6.962  1.00  0.00     0.069 C 
HETATM   20  C10 UNL     1      24.522  64.651   7.360  1.00  0.00     0.054 C 
HETATM   21  C5  UNL     1      20.660  65.317   9.121  1.00  0.00     0.165 C 
ATOM     22  H3  UNL     1      22.399  64.501  10.047  1.00  0.00     0.177 HD
ATOM     23  H4  UNL     1      22.553  67.666   7.730  1.00  0.00     0.177 HD
ENDBRANCH   4   5
ENDBRANCH   1   4
TORSDOF 2
ENDMDL
MODEL 3
REMARK VINA RESULT: -7.635018697      1.496      1.772
REMARK  2 active torsions:
REMARK  status: ('A' for Active; 'I' for Inactive)
REMARK       I    between atoms: N2_6  and  C4_8 
REMARK       I    between atoms: C4_8  and  N4_12 
REMARK    1  A    between atoms: N4_12  and  C6_14 
REMARK    2  A    between atoms: C6_14  and  C7_15 
ROOT
HETATM    1  C7  UNL     1      20.218  69.867   7.525  1.00  0.00     0.144 C 
HETATM    2  C8  UNL     1      20.928  69.371   6.321  1.00  0.00     0.060 C 
HETATM    3  N5  UNL     1      21.488  68.993   5.380  1.00  0.00    -0.197 NA
ENDROOT
BRANCH   1   4
HETATM    4  C6  UNL     1      20.840  69.145   8.713  1.00  0.00     0.152 C 
BRANCH   4   5
HETATM    5  N4  UNL     1      21.842  68.199   8.341  1.00  0.00    -0.225 N 
HETATM    6  C4  UNL     1      22.197  67.076   9.155  1.00  0.00     0.675 C 
HETATM    7  N2  UNL     1      23.370  67.063   9.871  1.00  0.00    -0.176 N 
HETATM    8  N3  UNL     1      21.357  66.065   9.204  1.00  0.00    -0.231 N 
HETATM    9  C3  UNL     1      24.502  66.606   9.864  1.00  0.00     0.130 A 
ATOM     10  H2  UNL     1      23.254  67.642  10.703  1.00  0.00     0.186 HD
HETATM   11  N1  UNL     1      25.359  66.970  10.971  1.00  0.00    -0.328 N 
HETATM   12  C9  UNL     1      25.050  65.733   8.851  1.00  0.00     0.005 A 
HETATM   13  C2  UNL     1      26.680  66.486  11.048  1.00  0.00     0.097 A 
ATOM     14  H1  UNL     1      25.004  67.583  11.704  1.00  0.00     0.169 HD
HETATM   15  C1  UNL     1      27.496  66.809  12.064  1.00  0.00     0.063 C 
HETATM   16  N6  UNL     1      27.147  65.633  10.017  1.00  0.00    -0.346 N 
HETATM   17  C11 UNL     1      26.302  65.285   8.943  1.00  0.00     0.016 A 
ATOM     18  H6  UNL     1      28.099  65.270  10.052  1.00  0.00     0.167 HD
HETATM   19  C12 UNL     1      26.839  64.383   7.879  1.00  0.00     0.069 C 
HETATM   20  C10 UNL     1      24.267  65.278   7.650  1.00  0.00     0.054 C 
HETATM   21  C5  UNL     1      20.120  66.059   8.459  1.00  0.00     0.165 C 
ATOM     22  H3  UNL     1      21.586  65.260   9.786  1.00  0.00     0.177 HD
ATOM     23  H4  UNL     1      22.327  68.328   7.453  1.00  0.00     0.177 HD
ENDBRANCH   4   5
ENDBRANCH   1   4
TORSDOF 2
ENDMDL
MODEL 4
REMARK VINA RESULT: -7.624286111      3.456      5.830
REMARK  2 active torsions:
REMARK  status: ('A' for Active; 'I' for Inactive)
REMARK       I    between atoms: N2_6  and  C4_8 
REMARK       I    between atoms: C4_8  and  N4_12 
REMARK    1  A    between atoms: N4_12  and  C6_14 
REMARK    2  A    between atoms: C6_14  and  C7_15 
ROOT
HETATM    1  C7  UNL     1      27.199  64.467   2.232  1.00  0.00     0.144 C 
HETATM    2  C8  UNL     1      28.449  64.896   2.905  1.00  0.00     0.060 C 
HETATM    3  N5  UNL     1      29.424  65.241   3.428  1.00  0.00    -0.197 NA
ENDROOT
BRANCH   1   4
HETATM    4  C6  UNL     1      26.139  64.372   3.322  1.00  0.00     0.152 C 
BRANCH   4   5
HETATM    5  N4  UNL     1      26.664  64.535   4.639  1.00  0.00    -0.225 N 
HETATM    6  C4  UNL     1      26.094  63.903   5.790  1.00  0.00     0.675 C 
HETATM    7  N2  UNL     1      25.351  64.619   6.696  1.00  0.00    -0.176 N 
HETATM    8  N3  UNL     1      26.297  62.612   5.942  1.00  0.00    -0.231 N 
HETATM    9  C3  UNL     1      25.409  65.137   7.801  1.00  0.00     0.130 A 
ATOM     10  H2  UNL     1      24.420  64.774   6.309  1.00  0.00     0.186 HD
HETATM   11  N1  UNL     1      24.216  65.808   8.271  1.00  0.00    -0.328 N 
HETATM   12  C9  UNL     1      26.562  65.132   8.672  1.00  0.00     0.005 A 
HETATM   13  C2  UNL     1      24.191  66.430   9.534  1.00  0.00     0.097 A 
ATOM     14  H1  UNL     1      23.385  65.829   7.682  1.00  0.00     0.169 HD
HETATM   15  C1  UNL     1      23.097  67.059   9.993  1.00  0.00     0.063 C 
HETATM   16  N6  UNL     1      25.360  66.383  10.333  1.00  0.00    -0.346 N 
HETATM   17  C11 UNL     1      26.517  65.726   9.864  1.00  0.00     0.016 A 
ATOM     18  H6  UNL     1      25.366  66.826  11.252  1.00  0.00     0.167 HD
HETATM   19  C12 UNL     1      27.727  65.702  10.742  1.00  0.00     0.069 C 
HETATM   20  C10 UNL     1      27.863  64.472   8.306  1.00  0.00     0.054 C 
HETATM   21  C5  UNL     1      27.075  61.841   5.002  1.00  0.00     0.165 C 
ATOM     22  H3  UNL     1      25.891  62.140   6.750  1.00  0.00     0.177 HD
ATOM     23  H4  UNL     1      27.484  65.129   4.766  1.00  0.00     0.177 HD
ENDBRANCH   4   5
ENDBRANCH   1   4
TORSDOF 2
ENDMDL
MODEL 5
REMARK VINA RESULT: -7.524611306      9.495     11.716
REMARK  2 active torsions:
REMARK  status: ('A' for Active; 'I' for Inactive)
REMARK       I    between atoms: N2_6  and  C4_8 
REMARK       I    between atoms: C4_8  and  N4_12 
REMARK    1  A    between atoms: N4_12  and  C6_14 
REMARK    2  A    between atoms: C6_14  and  C7_15 
ROOT
HETATM    1  C7  UNL     1      33.122  63.558   4.131  1.00  0.00     0.144 C 
HETATM    2  C8  UNL     1      33.741  64.578   5.011  1.00  0.00     0.060 C 
HETATM    3  N5  UNL     1      34.234  65.371   5.696  1.00  0.00    -0.197 NA
ENDROOT
BRANCH   1   4
HETATM    4  C6  UNL     1      32.791  64.267   2.824  1.00  0.00     0.152 C 
BRANCH   4   5
HETATM    5  N4  UNL     1      32.028  65.460   3.003  1.00  0.00    -0.225 N 
HETATM    6  C4  UNL     1      31.427  66.173   1.917  1.00  0.00     0.675 C 
HETATM    7  N2  UNL     1      31.961  67.355   1.464  1.00  0.00    -0.176 N 
HETATM    8  N3  UNL     1      30.354  65.651   1.362  1.00  0.00    -0.231 N 
HETATM    9  C3  UNL     1      31.807  68.565   1.506  1.00  0.00     0.130 A 
ATOM     10  H2  UNL     1      32.777  67.147   0.889  1.00  0.00     0.186 HD
HETATM   11  N1  UNL     1      32.759  69.371   0.774  1.00  0.00    -0.328 N 
HETATM   12  C9  UNL     1      30.755  69.254   2.219  1.00  0.00     0.005 A 
HETATM   13  C2  UNL     1      32.656  70.776   0.764  1.00  0.00     0.097 A 
ATOM     14  H1  UNL     1      33.513  68.917   0.260  1.00  0.00     0.169 HD
HETATM   15  C1  UNL     1      33.528  71.546   0.093  1.00  0.00     0.063 C 
HETATM   16  N6  UNL     1      31.598  71.380   1.486  1.00  0.00    -0.346 N 
HETATM   17  C11 UNL     1      30.675  70.584   2.196  1.00  0.00     0.016 A 
ATOM     18  H6  UNL     1      31.502  72.395   1.493  1.00  0.00     0.167 HD
HETATM   19  C12 UNL     1      29.574  71.266   2.943  1.00  0.00     0.069 C 
HETATM   20  C10 UNL     1      29.701  68.537   3.019  1.00  0.00     0.054 C 
HETATM   21  C5  UNL     1      29.777  64.412   1.823  1.00  0.00     0.165 C 
ATOM     22  H3  UNL     1      29.917  66.138   0.580  1.00  0.00     0.177 HD
ATOM     23  H4  UNL     1      31.905  65.821   3.950  1.00  0.00     0.177 HD
ENDBRANCH   4   5
ENDBRANCH   1   4
TORSDOF 2
ENDMDL
