MODEL 1
REMARK VINA RESULT: -6.832743217      0.000      0.000
REMARK  6 active torsions:
REMARK  status: ('A' for Active; 'I' for Inactive)
REMARK    1  A    between atoms: C3_3  and  N1_6 
REMARK    2  A    between atoms: N1_6  and  C6_8 
REMARK    3  A    between atoms: C7_11  and  N3_12 
REMARK    4  A    between atoms: C9_17  and  N5_18 
REMARK    5  A    between atoms: N5_18  and  C10_20 
REMARK    6  A    between atoms: C10_20  and  C11_21 
ROOT
HETATM    1  C1  UNL     1      22.242  62.292   9.744  1.00  0.00     0.015 C 
HETATM    2  C2  UNL     1      22.690  62.678   8.693  1.00  0.00    -0.086 C 
HETATM    3  C3  UNL     1      23.223  63.163   7.388  1.00  0.00     0.103 C 
HETATM    4  C4  UNL     1      24.101  62.054   6.853  1.00  0.00     0.053 C 
HETATM    5  C5  UNL     1      22.038  63.360   6.486  1.00  0.00     0.053 C 
ENDROOT
BRANCH   3   6
HETATM    6  N1  UNL     1      24.012  64.308   7.605  1.00  0.00    -0.206 N 
ATOM      7  H1  UNL     1      24.700  64.458   6.866  1.00  0.00     0.179 HD
BRANCH   6   8
HETATM    8  C6  UNL     1      24.063  65.177   8.491  1.00  0.00     0.708 A 
HETATM    9  N2  UNL     1      23.139  66.138   8.577  1.00  0.00    -0.021 N 
HETATM   10  C7  UNL     1      23.198  67.092   9.554  1.00  0.00     0.706 A 
ATOM     11  H2  UNL     1      22.375  66.160   7.902  1.00  0.00     0.203 HD
HETATM   12  N4  UNL     1      24.205  67.053  10.433  1.00  0.00    -0.022 N 
HETATM   13  C9  UNL     1      25.135  66.107  10.364  1.00  0.00     0.707 A 
ATOM     14  H4  UNL     1      24.261  67.760  11.167  1.00  0.00     0.203 HD
HETATM   15  N6  UNL     1      25.059  65.169   9.389  1.00  0.00    -0.021 N 
ATOM     16  H6  UNL     1      25.773  64.442   9.337  1.00  0.00     0.203 HD
BRANCH  10  17
HETATM   17  N3  UNL     1      22.323  68.009   9.643  1.00  0.00    -0.229 N 
HETATM   18  C8  UNL     1      21.459  68.381   8.553  1.00  0.00     0.165 C 
ATOM     19  H3  UNL     1      22.228  68.506  10.528  1.00  0.00     0.177 HD
ENDBRANCH  10  17
BRANCH  13  20
HETATM   20  N5  UNL     1      26.083  66.100  11.220  1.00  0.00    -0.222 N 
ATOM     21  H5  UNL     1      26.182  65.316  11.865  1.00  0.00     0.178 HD
BRANCH  20  22
HETATM   22  C10 UNL     1      27.012  67.201  11.274  1.00  0.00     0.164 C 
BRANCH  22  23
HETATM   23  C11 UNL     1      28.395  66.748  10.941  1.00  0.00    -0.017 C 
HETATM   24  C12 UNL     1      28.582  65.482  10.628  1.00  0.00     0.008 C 
ENDBRANCH  22  23
ENDBRANCH  20  22
ENDBRANCH  13  20
ENDBRANCH   6   8
ENDBRANCH   3   6
TORSDOF 6
ENDMDL
MODEL 2
REMARK VINA RESULT: -6.811171832      1.588      2.204
REMARK  6 active torsions:
REMARK  status: ('A' for Active; 'I' for Inactive)
REMARK    1  A    between atoms: C3_3  and  N1_6 
REMARK    2  A    between atoms: N1_6  and  C6_8 
REMARK    3  A    between atoms: C7_11  and  N3_12 
REMARK    4  A    between atoms: C9_17  and  N5_18 
REMARK    5  A    between atoms: N5_18  and  C10_20 
REMARK    6  A    between atoms: C10_20  and  C11_21 
ROOT
HETATM    1  C1  UNL     1      27.617  63.937   7.139  1.00  0.00     0.015 C 
HETATM    2  C2  UNL     1      26.416  63.906   7.228  1.00  0.00    -0.086 C 
HETATM    3  C3  UNL     1      24.930  63.845   7.340  1.00  0.00     0.103 C 
HETATM    4  C4  UNL     1      24.392  64.877   6.374  1.00  0.00     0.053 C 
HETATM    5  C5  UNL     1      24.523  62.467   6.898  1.00  0.00     0.053 C 
ENDROOT
BRANCH   3   6
HETATM    6  N1  UNL     1      24.548  64.197   8.647  1.00  0.00    -0.206 N 
ATOM      7  H1  UNL     1      24.298  63.387   9.216  1.00  0.00     0.179 HD
BRANCH   6   8
HETATM    8  C6  UNL     1      24.444  65.267   9.267  1.00  0.00     0.708 A 
HETATM    9  N2  UNL     1      23.312  65.977   9.249  1.00  0.00    -0.021 N 
HETATM   10  C7  UNL     1      23.203  67.155   9.934  1.00  0.00     0.706 A 
ATOM     11  H2  UNL     1      22.515  65.633   8.714  1.00  0.00     0.203 HD
HETATM   12  N4  UNL     1      24.255  67.596  10.630  1.00  0.00    -0.022 N 
HETATM   13  C9  UNL     1      25.390  66.907  10.661  1.00  0.00     0.707 A 
ATOM     14  H4  UNL     1      24.186  68.474  11.146  1.00  0.00     0.203 HD
HETATM   15  N6  UNL     1      25.480  65.740   9.977  1.00  0.00    -0.021 N 
ATOM     16  H6  UNL     1      26.351  65.211  10.002  1.00  0.00     0.203 HD
BRANCH  10  17
HETATM   17  N3  UNL     1      22.130  67.836   9.920  1.00  0.00    -0.229 N 
HETATM   18  C8  UNL     1      20.856  67.306  10.334  1.00  0.00     0.165 C 
ATOM     19  H3  UNL     1      22.172  68.803   9.602  1.00  0.00     0.177 HD
ENDBRANCH  10  17
BRANCH  13  20
HETATM   20  N5  UNL     1      26.376  67.357  11.337  1.00  0.00    -0.222 N 
ATOM     21  H5  UNL     1      26.406  68.342  11.600  1.00  0.00     0.178 HD
BRANCH  20  22
HETATM   22  C10 UNL     1      27.445  66.472  11.728  1.00  0.00     0.164 C 
BRANCH  22  23
HETATM   23  C11 UNL     1      28.627  66.635  10.831  1.00  0.00    -0.017 C 
HETATM   24  C12 UNL     1      29.123  65.563  10.247  1.00  0.00     0.008 C 
ENDBRANCH  22  23
ENDBRANCH  20  22
ENDBRANCH  13  20
ENDBRANCH   6   8
ENDBRANCH   3   6
TORSDOF 6
ENDMDL
MODEL 3
REMARK VINA RESULT: -6.726797075      2.523      4.287
REMARK  6 active torsions:
REMARK  status: ('A' for Active; 'I' for Inactive)
REMARK    1  A    between atoms: C3_3  and  N1_6 
REMARK    2  A    between atoms: N1_6  and  C6_8 
REMARK    3  A    between atoms: C7_11  and  N3_12 
REMARK    4  A    between atoms: C9_17  and  N5_18 
REMARK    5  A    between atoms: N5_18  and  C10_20 
REMARK    6  A    between atoms: C10_20  and  C11_21 
ROOT
HETATM    1  C1  UNL     1      24.131  61.591   6.784  1.00  0.00     0.015 C 
HETATM    2  C2  UNL     1      23.924  62.675   7.267  1.00  0.00    -0.086 C 
HETATM    3  C3  UNL     1      23.671  64.008   7.887  1.00  0.00     0.103 C 
HETATM    4  C4  UNL     1      22.457  64.575   7.186  1.00  0.00     0.053 C 
HETATM    5  C5  UNL     1      23.357  63.756   9.334  1.00  0.00     0.053 C 
ENDROOT
BRANCH   3   6
HETATM    6  N1  UNL     1      24.774  64.848   7.646  1.00  0.00    -0.206 N 
ATOM      7  H1  UNL     1      24.502  65.754   7.262  1.00  0.00     0.179 HD
BRANCH   6   8
HETATM    8  C6  UNL     1      26.002  64.739   7.793  1.00  0.00     0.708 A 
HETATM    9  N2  UNL     1      26.790  64.331   6.795  1.00  0.00    -0.021 N 
HETATM   10  C7  UNL     1      28.142  64.213   6.961  1.00  0.00     0.706 A 
ATOM     11  H2  UNL     1      26.376  64.103   5.891  1.00  0.00     0.203 HD
HETATM   12  N4  UNL     1      28.673  64.514   8.151  1.00  0.00    -0.022 N 
HETATM   13  C9  UNL     1      27.907  64.921   9.157  1.00  0.00     0.707 A 
ATOM     14  H4  UNL     1      29.681  64.430   8.288  1.00  0.00     0.203 HD
HETATM   15  N6  UNL     1      26.569  65.033   8.973  1.00  0.00    -0.021 N 
ATOM     16  H6  UNL     1      25.982  65.346   9.746  1.00  0.00     0.203 HD
BRANCH  10  17
HETATM   17  N3  UNL     1      28.898  63.825   6.017  1.00  0.00    -0.229 N 
HETATM   18  C8  UNL     1      28.413  63.115   4.862  1.00  0.00     0.165 C 
ATOM     19  H3  UNL     1      29.896  64.026   6.079  1.00  0.00     0.177 HD
ENDBRANCH  10  17
BRANCH  13  20
HETATM   20  N5  UNL     1      28.448  65.200  10.280  1.00  0.00    -0.222 N 
ATOM     21  H5  UNL     1      28.881  64.462  10.836  1.00  0.00     0.178 HD
BRANCH  20  22
HETATM   22  C10 UNL     1      28.447  66.559  10.761  1.00  0.00     0.164 C 
BRANCH  22  23
HETATM   23  C11 UNL     1      27.484  66.724  11.890  1.00  0.00    -0.017 C 
HETATM   24  C12 UNL     1      26.359  67.371  11.664  1.00  0.00     0.008 C 
ENDBRANCH  22  23
ENDBRANCH  20  22
ENDBRANCH  13  20
ENDBRANCH   6   8
ENDBRANCH   3   6
TORSDOF 6
ENDMDL
MODEL 4
REMARK VINA RESULT: -6.710848367      0.949      1.849
REMARK  6 active torsions:
REMARK  status: ('A' for Active; 'I' for Inactive)
REMARK    1  A    between atoms: C3_3  and  N1_6 
REMARK    2  A    between atoms: N1_6  and  C6_8 
REMARK    3  A    between atoms: C7_11  and  N3_12 
REMARK    4  A    between atoms: C9_17  and  N5_18 
REMARK    5  A    between atoms: N5_18  and  C10_20 
REMARK    6  A    between atoms: C10_20  and  C11_21 
ROOT
HETATM    1  C1  UNL     1      26.193  62.306   5.723  1.00  0.00     0.015 C 
HETATM    2  C2  UNL     1      25.291  62.927   6.225  1.00  0.00    -0.086 C 
HETATM    3  C3  UNL     1      24.176  63.683   6.866  1.00  0.00     0.103 C 
HETATM    4  C4  UNL     1      23.124  63.870   5.796  1.00  0.00     0.053 C 
HETATM    5  C5  UNL     1      23.641  62.809   7.965  1.00  0.00     0.053 C 
ENDROOT
BRANCH   3   6
HETATM    6  N1  UNL     1      24.645  64.945   7.274  1.00  0.00    -0.206 N 
ATOM      7  H1  UNL     1      25.209  65.406   6.559  1.00  0.00     0.179 HD
BRANCH   6   8
HETATM    8  C6  UNL     1      24.530  65.627   8.306  1.00  0.00     0.708 A 
HETATM    9  N2  UNL     1      23.471  66.417   8.504  1.00  0.00    -0.021 N 
HETATM   10  C7  UNL     1      23.347  67.165   9.641  1.00  0.00     0.706 A 
ATOM     11  H2  UNL     1      22.741  66.463   7.793  1.00  0.00     0.203 HD
HETATM   12  N4  UNL     1      24.311  67.097  10.565  1.00  0.00    -0.022 N 
HETATM   13  C9  UNL     1      25.373  66.318  10.388  1.00  0.00     0.707 A 
ATOM     14  H4  UNL     1      24.231  67.650  11.419  1.00  0.00     0.203 HD
HETATM   15  N6  UNL     1      25.477  65.583   9.254  1.00  0.00    -0.021 N 
ATOM     16  H6  UNL     1      26.292  64.985   9.119  1.00  0.00     0.203 HD
BRANCH  10  17
HETATM   17  N3  UNL     1      22.344  67.920   9.836  1.00  0.00    -0.229 N 
HETATM   18  C8  UNL     1      21.494  68.390   8.773  1.00  0.00     0.165 C 
ATOM     19  H3  UNL     1      22.130  68.206  10.791  1.00  0.00     0.177 HD
ENDBRANCH  10  17
BRANCH  13  20
HETATM   20  N5  UNL     1      26.274  66.277  11.291  1.00  0.00    -0.222 N 
ATOM     21  H5  UNL     1      26.062  65.879  12.206  1.00  0.00     0.178 HD
BRANCH  20  22
HETATM   22  C10 UNL     1      27.593  66.792  11.016  1.00  0.00     0.164 C 
BRANCH  22  23
HETATM   23  C11 UNL     1      28.598  65.689  10.972  1.00  0.00    -0.017 C 
HETATM   24  C12 UNL     1      29.028  65.280   9.796  1.00  0.00     0.008 C 
ENDBRANCH  22  23
ENDBRANCH  20  22
ENDBRANCH  13  20
ENDBRANCH   6   8
ENDBRANCH   3   6
TORSDOF 6
ENDMDL
MODEL 5
REMARK VINA RESULT: -6.691334147      0.423      1.508
REMARK  6 active torsions:
REMARK  status: ('A' for Active; 'I' for Inactive)
REMARK    1  A    between atoms: C3_3  and  N1_6 
REMARK    2  A    between atoms: N1_6  and  C6_8 
REMARK    3  A    between atoms: C7_11  and  N3_12 
REMARK    4  A    between atoms: C9_17  and  N5_18 
REMARK    5  A    between atoms: N5_18  and  C10_20 
REMARK    6  A    between atoms: C10_20  and  C11_21 
ROOT
HETATM    1  C1  UNL     1      21.519  63.029   5.281  1.00  0.00     0.015 C 
HETATM    2  C2  UNL     1      22.345  63.114   6.154  1.00  0.00    -0.086 C 
HETATM    3  C3  UNL     1      23.384  63.210   7.220  1.00  0.00     0.103 C 
HETATM    4  C4  UNL     1      22.717  62.764   8.501  1.00  0.00     0.053 C 
HETATM    5  C5  UNL     1      24.474  62.245   6.846  1.00  0.00     0.053 C 
ENDROOT
BRANCH   3   6
HETATM    6  N1  UNL     1      23.787  64.552   7.355  1.00  0.00    -0.206 N 
ATOM      7  H1  UNL     1      24.064  64.971   6.467  1.00  0.00     0.179 HD
BRANCH   6   8
HETATM    8  C6  UNL     1      23.884  65.341   8.309  1.00  0.00     0.708 A 
HETATM    9  N2  UNL     1      22.986  66.311   8.504  1.00  0.00    -0.021 N 
HETATM   10  C7  UNL     1      23.095  67.177   9.555  1.00  0.00     0.706 A 
ATOM     11  H2  UNL     1      22.204  66.407   7.856  1.00  0.00     0.203 HD
HETATM   12  N4  UNL     1      24.125  67.042  10.398  1.00  0.00    -0.022 N 
HETATM   13  C9  UNL     1      25.029  66.086  10.221  1.00  0.00     0.707 A 
ATOM     14  H4  UNL     1      24.218  67.683  11.186  1.00  0.00     0.203 HD
HETATM   15  N6  UNL     1      24.903  65.235   9.173  1.00  0.00    -0.021 N 
ATOM     16  H6  UNL     1      25.598  64.500   9.039  1.00  0.00     0.203 HD
BRANCH  10  17
HETATM   17  N3  UNL     1      22.245  68.103   9.747  1.00  0.00    -0.229 N 
HETATM   18  C8  UNL     1      21.389  68.612   8.707  1.00  0.00     0.165 C 
ATOM     19  H3  UNL     1      22.166  68.503  10.681  1.00  0.00     0.177 HD
ENDBRANCH  10  17
BRANCH  13  20
HETATM   20  N5  UNL     1      26.000  65.985  11.045  1.00  0.00    -0.222 N 
ATOM     21  H5  UNL     1      26.182  65.098  11.513  1.00  0.00     0.178 HD
BRANCH  20  22
HETATM   22  C10 UNL     1      26.839  67.128  11.312  1.00  0.00     0.164 C 
BRANCH  22  23
HETATM   23  C11 UNL     1      28.265  66.829  10.989  1.00  0.00    -0.017 C 
HETATM   24  C12 UNL     1      28.590  65.593  10.673  1.00  0.00     0.008 C 
ENDBRANCH  22  23
ENDBRANCH  20  22
ENDBRANCH  13  20
ENDBRANCH   6   8
ENDBRANCH   3   6
TORSDOF 6
ENDMDL
