MODEL 1
REMARK VINA RESULT: -5.630219794      0.000      0.000
REMARK  0 active torsions:
REMARK  status: ('A' for Active; 'I' for Inactive)
ROOT
HETATM    1  O1  UNL     1      34.811  27.718 -39.567  1.00  0.00    -0.245 OA
HETATM    2  C1  UNL     1      34.897  27.288 -40.769  1.00  0.00     0.354 A 
HETATM    3  N1  UNL     1      35.170  26.064 -41.193  1.00  0.00    -0.137 N 
ATOM      4  H1  UNL     1      35.358  25.254 -40.602  1.00  0.00     0.189 HD
HETATM    5  C2  UNL     1      35.155  26.075 -42.539  1.00  0.00     0.726 A 
HETATM    6  N2  UNL     1      35.305  25.357 -43.674  1.00  0.00    -0.126 N 
ATOM      7  H2  UNL     1      35.529  24.362 -43.703  1.00  0.00     0.206 HD
HETATM    8  N3  UNL     1      35.125  26.113 -44.740  1.00  0.00    -0.235 N 
ATOM      9  H3  UNL     1      35.184  25.818 -45.714  1.00  0.00     0.192 HD
HETATM   10  C3  UNL     1      34.851  27.345 -44.288  1.00  0.00     0.375 A 
HETATM   11  O2  UNL     1      34.612  28.373 -44.969  1.00  0.00    -0.243 OA
HETATM   12  N4  UNL     1      34.867  27.331 -42.922  1.00  0.00    -0.025 N 
HETATM   13  N5  UNL     1      34.709  28.074 -41.839  1.00  0.00    -0.225 N 
ATOM     14  H5  UNL     1      34.484  29.069 -41.822  1.00  0.00     0.193 HD
ENDROOT
TORSDOF 0
ENDMDL
MODEL 2
REMARK VINA RESULT: -5.545613178      3.840      4.880
REMARK  0 active torsions:
REMARK  status: ('A' for Active; 'I' for Inactive)
ROOT
HETATM    1  O1  UNL     1      33.515  28.482 -44.418  1.00  0.00    -0.245 OA
HETATM    2  C1  UNL     1      34.488  29.296 -44.250  1.00  0.00     0.354 A 
HETATM    3  N1  UNL     1      35.459  29.252 -43.352  1.00  0.00    -0.137 N 
ATOM      4  H1  UNL     1      35.580  28.535 -42.635  1.00  0.00     0.189 HD
HETATM    5  C2  UNL     1      36.260  30.316 -43.548  1.00  0.00     0.726 A 
HETATM    6  N2  UNL     1      37.361  30.988 -43.147  1.00  0.00    -0.126 N 
ATOM      7  H2  UNL     1      37.962  30.702 -42.373  1.00  0.00     0.206 HD
HETATM    8  N3  UNL     1      37.557  32.062 -43.886  1.00  0.00    -0.235 N 
ATOM      9  H3  UNL     1      38.313  32.739 -43.792  1.00  0.00     0.192 HD
HETATM   10  C3  UNL     1      36.564  32.088 -44.787  1.00  0.00     0.375 A 
HETATM   11  O2  UNL     1      36.369  32.943 -45.687  1.00  0.00    -0.243 OA
HETATM   12  N4  UNL     1      35.753  31.007 -44.585  1.00  0.00    -0.025 N 
HETATM   13  N5  UNL     1      34.669  30.383 -45.015  1.00  0.00    -0.225 N 
ATOM     14  H5  UNL     1      34.075  30.677 -45.791  1.00  0.00     0.193 HD
ENDROOT
TORSDOF 0
ENDMDL
MODEL 3
REMARK VINA RESULT: -5.498248013      1.445      1.530
REMARK  0 active torsions:
REMARK  status: ('A' for Active; 'I' for Inactive)
ROOT
HETATM    1  O1  UNL     1      36.873  26.047 -40.336  1.00  0.00    -0.245 OA
HETATM    2  C1  UNL     1      36.319  26.275 -41.466  1.00  0.00     0.354 A 
HETATM    3  N1  UNL     1      36.236  25.482 -42.523  1.00  0.00    -0.137 N 
ATOM      4  H1  UNL     1      36.615  24.537 -42.594  1.00  0.00     0.189 HD
HETATM    5  C2  UNL     1      35.564  26.140 -43.488  1.00  0.00     0.726 A 
HETATM    6  N2  UNL     1      35.073  26.101 -44.745  1.00  0.00    -0.126 N 
ATOM      7  H2  UNL     1      35.162  25.304 -45.376  1.00  0.00     0.206 HD
HETATM    8  N3  UNL     1      34.464  27.230 -45.051  1.00  0.00    -0.235 N 
ATOM      9  H3  UNL     1      34.011  27.460 -45.934  1.00  0.00     0.192 HD
HETATM   10  C3  UNL     1      34.560  28.017 -43.969  1.00  0.00     0.375 A 
HETATM   11  O2  UNL     1      34.115  29.183 -43.830  1.00  0.00    -0.243 OA
HETATM   12  N4  UNL     1      35.243  27.348 -42.993  1.00  0.00    -0.025 N 
HETATM   13  N5  UNL     1      35.704  27.432 -41.756  1.00  0.00    -0.225 N 
ATOM     14  H5  UNL     1      35.608  28.234 -41.133  1.00  0.00     0.193 HD
ENDROOT
TORSDOF 0
ENDMDL
MODEL 4
REMARK VINA RESULT: -5.487568761      1.675      3.112
REMARK  0 active torsions:
REMARK  status: ('A' for Active; 'I' for Inactive)
ROOT
HETATM    1  O1  UNL     1      33.951  30.624 -43.940  1.00  0.00    -0.245 OA
HETATM    2  C1  UNL     1      34.280  29.387 -43.943  1.00  0.00     0.354 A 
HETATM    3  N1  UNL     1      34.169  28.503 -44.922  1.00  0.00    -0.137 N 
ATOM      4  H1  UNL     1      33.791  28.684 -45.852  1.00  0.00     0.189 HD
HETATM    5  C2  UNL     1      34.642  27.324 -44.476  1.00  0.00     0.726 A 
HETATM    6  N2  UNL     1      34.888  26.027 -44.763  1.00  0.00    -0.126 N 
ATOM      7  H2  UNL     1      34.688  25.587 -45.661  1.00  0.00     0.206 HD
HETATM    8  N3  UNL     1      35.420  25.406 -43.729  1.00  0.00    -0.235 N 
ATOM      9  H3  UNL     1      35.697  24.426 -43.682  1.00  0.00     0.192 HD
HETATM   10  C3  UNL     1      35.523  26.318 -42.751  1.00  0.00     0.375 A 
HETATM   11  O2  UNL     1      35.979  26.149 -41.593  1.00  0.00    -0.243 OA
HETATM   12  N4  UNL     1      35.042  27.512 -43.206  1.00  0.00    -0.025 N 
HETATM   13  N5  UNL     1      34.821  28.775 -42.879  1.00  0.00    -0.225 N 
ATOM     14  H5  UNL     1      35.026  29.206 -41.978  1.00  0.00     0.193 HD
ENDROOT
TORSDOF 0
ENDMDL
MODEL 5
REMARK VINA RESULT: -5.435108008      1.151      3.451
REMARK  0 active torsions:
REMARK  status: ('A' for Active; 'I' for Inactive)
ROOT
HETATM    1  O1  UNL     1      34.220  28.283 -45.148  1.00  0.00    -0.245 OA
HETATM    2  C1  UNL     1      34.856  27.686 -44.211  1.00  0.00     0.354 A 
HETATM    3  N1  UNL     1      35.803  26.767 -44.309  1.00  0.00    -0.137 N 
ATOM      4  H1  UNL     1      36.180  26.384 -45.177  1.00  0.00     0.189 HD
HETATM    5  C2  UNL     1      36.184  26.424 -43.064  1.00  0.00     0.726 A 
HETATM    6  N2  UNL     1      36.995  25.655 -42.304  1.00  0.00    -0.126 N 
ATOM      7  H2  UNL     1      37.674  24.991 -42.675  1.00  0.00     0.206 HD
HETATM    8  N3  UNL     1      36.791  25.877 -41.021  1.00  0.00    -0.235 N 
ATOM      9  H3  UNL     1      37.270  25.429 -40.240  1.00  0.00     0.192 HD
HETATM   10  C3  UNL     1      35.830  26.810 -40.944  1.00  0.00     0.375 A 
HETATM   11  O2  UNL     1      35.333  27.312 -39.906  1.00  0.00    -0.243 OA
HETATM   12  N4  UNL     1      35.446  27.155 -42.209  1.00  0.00    -0.025 N 
HETATM   13  N5  UNL     1      34.634  27.928 -42.911  1.00  0.00    -0.225 N 
ATOM     14  H5  UNL     1      33.958  28.590 -42.530  1.00  0.00     0.193 HD
ENDROOT
TORSDOF 0
ENDMDL
