MODEL 1
REMARK VINA RESULT: -5.807814431      0.000      0.000
REMARK  3 active torsions:
REMARK  status: ('A' for Active; 'I' for Inactive)
REMARK    1  A    between atoms: N1_1  and  C1_4 
REMARK    2  A    between atoms: C2_7  and  N3_8 
REMARK    3  A    between atoms: N4_10  and  N5_12 
ROOT
HETATM    1  C1  UNL     1      23.695   3.206   9.198  1.00  0.00     0.705 A 
HETATM    2  N2  UNL     1      22.848   2.640  10.069  1.00  0.00    -0.019 N 
ATOM      3  H2  UNL     1      22.911   2.694  11.085  1.00  0.00     0.203 HD
HETATM    4  C2  UNL     1      21.899   1.988   9.373  1.00  0.00     0.727 A 
HETATM    5  N6  UNL     1      22.148   2.143   8.058  1.00  0.00    -0.116 N 
ATOM      6  H6  UNL     1      21.604   1.765   7.283  1.00  0.00     0.206 HD
HETATM    7  N7  UNL     1      23.238   2.883   7.977  1.00  0.00    -0.117 N 
ATOM      8  H7  UNL     1      23.676   3.171   7.102  1.00  0.00     0.206 HD
ENDROOT
BRANCH   4   9
HETATM    9  N3  UNL     1      20.841   1.276  10.003  1.00  0.00    -0.116 N 
HETATM   10  N4  UNL     1      19.774   1.839  10.329  1.00  0.00    -0.235 N 
ATOM     11  H4  UNL     1      19.032   1.304  10.781  1.00  0.00     0.208 HD
ATOM     12  H3  UNL     1      20.956   0.281  10.193  1.00  0.00     0.207 HD
BRANCH  10  13
HETATM   13  N5  UNL     1      19.600   3.186  10.078  1.00  0.00    -0.330 N 
ATOM     14  H52 UNL     1      18.990   3.728  10.690  1.00  0.00     0.178 HD
ATOM     15  H51 UNL     1      20.077   3.623   9.290  1.00  0.00     0.178 HD
ENDBRANCH  10  13
ENDBRANCH   4   9
BRANCH   1  16
HETATM   16  N1  UNL     1      24.754   3.929   9.473  1.00  0.00    -0.233 N 
ATOM     17  H12 UNL     1      24.843   4.622  10.217  1.00  0.00     0.174 HD
ATOM     18  H11 UNL     1      25.654   3.917   8.993  1.00  0.00     0.174 HD
ENDBRANCH   1  16
TORSDOF 3
ENDMDL
MODEL 2
REMARK VINA RESULT: -5.697856349     10.466     11.757
REMARK  3 active torsions:
REMARK  status: ('A' for Active; 'I' for Inactive)
REMARK    1  A    between atoms: N1_1  and  C1_4 
REMARK    2  A    between atoms: C2_7  and  N3_8 
REMARK    3  A    between atoms: N4_10  and  N5_12 
ROOT
HETATM    1  C1  UNL     1      15.174  -3.863   1.687  1.00  0.00     0.705 A 
HETATM    2  N2  UNL     1      16.094  -3.186   0.984  1.00  0.00    -0.019 N 
ATOM      3  H2  UNL     1      16.521  -3.490   0.110  1.00  0.00     0.203 HD
HETATM    4  C2  UNL     1      16.358  -2.036   1.632  1.00  0.00     0.727 A 
HETATM    5  N6  UNL     1      15.602  -1.987   2.745  1.00  0.00    -0.116 N 
ATOM      6  H6  UNL     1      15.580  -1.240   3.438  1.00  0.00     0.206 HD
HETATM    7  N7  UNL     1      14.894  -3.102   2.757  1.00  0.00    -0.117 N 
ATOM      8  H7  UNL     1      14.224  -3.352   3.484  1.00  0.00     0.206 HD
ENDROOT
BRANCH   4   9
HETATM    9  N3  UNL     1      17.296  -1.084   1.147  1.00  0.00    -0.116 N 
HETATM   10  N4  UNL     1      16.937  -0.084   0.489  1.00  0.00    -0.235 N 
ATOM     11  H4  UNL     1      17.632   0.583   0.153  1.00  0.00     0.208 HD
ATOM     12  H3  UNL     1      18.288  -1.220   1.342  1.00  0.00     0.207 HD
BRANCH  10  13
HETATM   13  N5  UNL     1      15.598   0.118   0.216  1.00  0.00    -0.330 N 
ATOM     14  H52 UNL     1      14.970   0.370   0.979  1.00  0.00     0.178 HD
ATOM     15  H51 UNL     1      15.251   0.014  -0.737  1.00  0.00     0.178 HD
ENDBRANCH  10  13
ENDBRANCH   4   9
BRANCH   1  16
HETATM   16  N1  UNL     1      14.649  -5.029   1.395  1.00  0.00    -0.233 N 
ATOM     17  H12 UNL     1      13.908  -5.508   1.906  1.00  0.00     0.174 HD
ATOM     18  H11 UNL     1      14.893  -5.640   0.616  1.00  0.00     0.174 HD
ENDBRANCH   1  16
TORSDOF 3
ENDMDL
MODEL 3
REMARK VINA RESULT: -5.668524366      1.205      3.800
REMARK  3 active torsions:
REMARK  status: ('A' for Active; 'I' for Inactive)
REMARK    1  A    between atoms: N1_1  and  C1_4 
REMARK    2  A    between atoms: C2_7  and  N3_8 
REMARK    3  A    between atoms: N4_10  and  N5_12 
ROOT
HETATM    1  C1  UNL     1      20.840   1.959   9.532  1.00  0.00     0.705 A 
HETATM    2  N2  UNL     1      21.649   3.028   9.534  1.00  0.00    -0.019 N 
ATOM      3  H2  UNL     1      21.352   4.003   9.559  1.00  0.00     0.203 HD
HETATM    4  C2  UNL     1      22.922   2.593   9.499  1.00  0.00     0.727 A 
HETATM    5  N6  UNL     1      22.916   1.247   9.474  1.00  0.00    -0.116 N 
ATOM      6  H6  UNL     1      23.728   0.631   9.445  1.00  0.00     0.206 HD
HETATM    7  N7  UNL     1      21.646   0.886   9.495  1.00  0.00    -0.117 N 
ATOM      8  H7  UNL     1      21.320  -0.080   9.485  1.00  0.00     0.206 HD
ENDROOT
BRANCH   4   9
HETATM    9  N3  UNL     1      24.033   3.481   9.491  1.00  0.00    -0.116 N 
HETATM   10  N4  UNL     1      24.524   3.909   8.424  1.00  0.00    -0.235 N 
ATOM     11  H4  UNL     1      25.323   4.544   8.448  1.00  0.00     0.208 HD
ATOM     12  H3  UNL     1      24.440   3.775  10.378  1.00  0.00     0.207 HD
BRANCH  10  13
HETATM   13  N5  UNL     1      23.986   3.521   7.212  1.00  0.00    -0.330 N 
ATOM     14  H52 UNL     1      22.972   3.473   7.114  1.00  0.00     0.178 HD
ATOM     15  H51 UNL     1      24.601   3.289   6.433  1.00  0.00     0.178 HD
ENDBRANCH  10  13
ENDBRANCH   4   9
BRANCH   1  16
HETATM   16  N1  UNL     1      19.528   1.954   9.561  1.00  0.00    -0.233 N 
ATOM     17  H12 UNL     1      18.915   2.770   9.570  1.00  0.00     0.174 HD
ATOM     18  H11 UNL     1      18.913   1.141   9.579  1.00  0.00     0.174 HD
ENDBRANCH   1  16
TORSDOF 3
ENDMDL
MODEL 4
REMARK VINA RESULT: -5.621627846      1.072      1.477
REMARK  3 active torsions:
REMARK  status: ('A' for Active; 'I' for Inactive)
REMARK    1  A    between atoms: N1_1  and  C1_4 
REMARK    2  A    between atoms: C2_7  and  N3_8 
REMARK    3  A    between atoms: N4_10  and  N5_12 
ROOT
HETATM    1  C1  UNL     1      23.584   3.252   9.287  1.00  0.00     0.705 A 
HETATM    2  N2  UNL     1      22.431   3.507   8.654  1.00  0.00    -0.019 N 
ATOM      3  H2  UNL     1      22.262   4.276   8.006  1.00  0.00     0.203 HD
HETATM    4  C2  UNL     1      21.532   2.575   9.020  1.00  0.00     0.727 A 
HETATM    5  N6  UNL     1      22.121   1.729   9.886  1.00  0.00    -0.116 N 
ATOM      6  H6  UNL     1      21.694   0.920  10.338  1.00  0.00     0.206 HD
HETATM    7  N7  UNL     1      23.361   2.157  10.033  1.00  0.00    -0.117 N 
ATOM      8  H7  UNL     1      24.057   1.715  10.632  1.00  0.00     0.206 HD
ENDROOT
BRANCH   4   9
HETATM    9  N3  UNL     1      20.200   2.561   8.524  1.00  0.00    -0.116 N 
HETATM   10  N4  UNL     1      19.255   3.071   9.165  1.00  0.00    -0.235 N 
ATOM     11  H4  UNL     1      18.308   3.045   8.785  1.00  0.00     0.208 HD
ATOM     12  H3  UNL     1      20.009   2.124   7.623  1.00  0.00     0.207 HD
BRANCH  10  13
HETATM   13  N5  UNL     1      19.493   3.668  10.387  1.00  0.00    -0.330 N 
ATOM     14  H52 UNL     1      19.715   3.081  11.190  1.00  0.00     0.178 HD
ATOM     15  H51 UNL     1      19.446   4.683  10.476  1.00  0.00     0.178 HD
ENDBRANCH  10  13
ENDBRANCH   4   9
BRANCH   1  16
HETATM   16  N1  UNL     1      24.706   3.926   9.201  1.00  0.00    -0.233 N 
ATOM     17  H12 UNL     1      25.651   3.543   9.228  1.00  0.00     0.174 HD
ATOM     18  H11 UNL     1      24.816   4.934   9.093  1.00  0.00     0.174 HD
ENDBRANCH   1  16
TORSDOF 3
ENDMDL
MODEL 5
REMARK VINA RESULT: -5.568960979      1.557      3.710
REMARK  3 active torsions:
REMARK  status: ('A' for Active; 'I' for Inactive)
REMARK    1  A    between atoms: N1_1  and  C1_4 
REMARK    2  A    between atoms: C2_7  and  N3_8 
REMARK    3  A    between atoms: N4_10  and  N5_12 
ROOT
HETATM    1  C1  UNL     1      21.276   0.587   8.247  1.00  0.00     0.705 A 
HETATM    2  N2  UNL     1      22.394   0.867   8.931  1.00  0.00    -0.019 N 
ATOM      3  H2  UNL     1      23.146   0.212   9.140  1.00  0.00     0.203 HD
HETATM    4  C2  UNL     1      22.354   2.162   9.295  1.00  0.00     0.727 A 
HETATM    5  N6  UNL     1      21.207   2.701   8.838  1.00  0.00    -0.116 N 
ATOM      6  H6  UNL     1      20.893   3.664   8.956  1.00  0.00     0.206 HD
HETATM    7  N7  UNL     1      20.572   1.730   8.207  1.00  0.00    -0.117 N 
ATOM      8  H7  UNL     1      19.666   1.835   7.751  1.00  0.00     0.206 HD
ENDROOT
BRANCH   4   9
HETATM    9  N3  UNL     1      23.396   2.780  10.039  1.00  0.00    -0.116 N 
HETATM   10  N4  UNL     1      24.237   3.529   9.495  1.00  0.00    -0.235 N 
ATOM     11  H4  UNL     1      24.975   3.958  10.054  1.00  0.00     0.208 HD
ATOM     12  H3  UNL     1      23.459   2.609  11.042  1.00  0.00     0.207 HD
BRANCH  10  13
HETATM   13  N5  UNL     1      24.166   3.773   8.138  1.00  0.00    -0.330 N 
ATOM     14  H52 UNL     1      24.651   4.585   7.755  1.00  0.00     0.178 HD
ATOM     15  H51 UNL     1      23.634   3.147   7.534  1.00  0.00     0.178 HD
ENDBRANCH  10  13
ENDBRANCH   4   9
BRANCH   1  16
HETATM   16  N1  UNL     1      20.933  -0.564   7.718  1.00  0.00    -0.233 N 
ATOM     17  H12 UNL     1      21.562  -1.273   7.341  1.00  0.00     0.174 HD
ATOM     18  H11 UNL     1      19.990  -0.934   7.601  1.00  0.00     0.174 HD
ENDBRANCH   1  16
TORSDOF 3
ENDMDL
