MODEL 1
REMARK VINA RESULT: -5.283439611      0.000      0.000
REMARK  2 active torsions:
REMARK  status: ('A' for Active; 'I' for Inactive)
REMARK    1  A    between atoms: C2_2  and  N1_4 
REMARK    2  A    between atoms: N1_4  and  C4_6 
ROOT
HETATM    1  C4  UNL     1      -3.454  -2.429  12.359  1.00  0.00     0.242 A 
HETATM    2  N2  UNL     1      -2.537  -2.913  11.482  1.00  0.00    -0.262 N 
ATOM      3  H2  UNL     1      -1.537  -2.715  11.519  1.00  0.00     0.190 HD
HETATM    4  N3  UNL     1      -3.120  -3.675  10.575  1.00  0.00    -0.262 N 
ATOM      5  H3  UNL     1      -2.671  -4.165   9.801  1.00  0.00     0.190 HD
HETATM    6  C5  UNL     1      -4.431  -3.672  10.885  1.00  0.00     0.239 A 
HETATM    7  N4  UNL     1      -5.353  -4.303  10.234  1.00  0.00    -0.364 N 
ATOM      8  H41 UNL     1      -6.345  -4.301  10.469  1.00  0.00     0.159 HD
ATOM      9  H42 UNL     1      -5.221  -4.884   9.407  1.00  0.00     0.159 HD
HETATM   10  O1  UNL     1      -4.601  -2.920  11.954  1.00  0.00    -0.245 OA
ENDROOT
BRANCH   1  11
HETATM   11  N1  UNL     1      -3.232  -1.576  13.475  1.00  0.00    -0.351 N 
ATOM     12  H1  UNL     1      -2.833  -0.651  13.320  1.00  0.00     0.163 HD
BRANCH  11  13
HETATM   13  C2  UNL     1      -3.555  -1.982  14.818  1.00  0.00     0.076 C 
HETATM   14  C1  UNL     1      -3.174  -3.449  15.053  1.00  0.00     0.032 C 
HETATM   15  C3  UNL     1      -2.798  -1.098  15.778  1.00  0.00     0.032 C 
ENDBRANCH  11  13
ENDBRANCH   1  11
TORSDOF 2
ENDMDL
MODEL 2
REMARK VINA RESULT: -5.263511115      1.859      2.255
REMARK  2 active torsions:
REMARK  status: ('A' for Active; 'I' for Inactive)
REMARK    1  A    between atoms: C2_2  and  N1_4 
REMARK    2  A    between atoms: N1_4  and  C4_6 
ROOT
HETATM    1  C4  UNL     1      -2.847  -2.281  12.667  1.00  0.00     0.242 A 
HETATM    2  N2  UNL     1      -4.059  -1.834  13.083  1.00  0.00    -0.262 N 
ATOM      3  H2  UNL     1      -4.202  -1.136  13.814  1.00  0.00     0.190 HD
HETATM    4  N3  UNL     1      -5.029  -2.426  12.410  1.00  0.00    -0.262 N 
ATOM      5  H3  UNL     1      -6.032  -2.280  12.516  1.00  0.00     0.190 HD
HETATM    6  C5  UNL     1      -4.415  -3.265  11.552  1.00  0.00     0.239 A 
HETATM    7  N4  UNL     1      -5.016  -4.038  10.707  1.00  0.00    -0.364 N 
ATOM      8  H41 UNL     1      -4.552  -4.673  10.058  1.00  0.00     0.159 HD
ATOM      9  H42 UNL     1      -6.023  -4.122  10.572  1.00  0.00     0.159 HD
HETATM   10  O1  UNL     1      -3.114  -3.157  11.728  1.00  0.00    -0.245 OA
ENDROOT
BRANCH   1  11
HETATM   11  N1  UNL     1      -1.562  -1.893  13.138  1.00  0.00    -0.351 N 
ATOM     12  H1  UNL     1      -0.738  -2.381  12.788  1.00  0.00     0.163 HD
BRANCH  11  13
HETATM   13  C2  UNL     1      -1.392  -0.831  14.094  1.00  0.00     0.076 C 
HETATM   14  C1  UNL     1      -0.696  -1.342  15.362  1.00  0.00     0.032 C 
HETATM   15  C3  UNL     1      -0.559   0.254  13.457  1.00  0.00     0.032 C 
ENDBRANCH  11  13
ENDBRANCH   1  11
TORSDOF 2
ENDMDL
MODEL 3
REMARK VINA RESULT: -5.230521549      1.761      2.213
REMARK  2 active torsions:
REMARK  status: ('A' for Active; 'I' for Inactive)
REMARK    1  A    between atoms: C2_2  and  N1_4 
REMARK    2  A    between atoms: N1_4  and  C4_6 
ROOT
HETATM    1  C4  UNL     1      -3.056  -2.882  13.256  1.00  0.00     0.242 A 
HETATM    2  N2  UNL     1      -4.238  -2.240  13.438  1.00  0.00    -0.262 N 
ATOM      3  H2  UNL     1      -4.435  -1.588  14.198  1.00  0.00     0.190 HD
HETATM    4  N3  UNL     1      -5.099  -2.577  12.494  1.00  0.00    -0.262 N 
ATOM      5  H3  UNL     1      -6.058  -2.246  12.388  1.00  0.00     0.190 HD
HETATM    6  C5  UNL     1      -4.446  -3.449  11.701  1.00  0.00     0.239 A 
HETATM    7  N4  UNL     1      -4.943  -4.020  10.654  1.00  0.00    -0.364 N 
ATOM      8  H41 UNL     1      -4.449  -4.680  10.054  1.00  0.00     0.159 HD
ATOM      9  H42 UNL     1      -5.885  -3.895  10.284  1.00  0.00     0.159 HD
HETATM   10  O1  UNL     1      -3.229  -3.611  12.180  1.00  0.00    -0.245 OA
ENDROOT
BRANCH   1  11
HETATM   11  N1  UNL     1      -1.880  -2.790  14.051  1.00  0.00    -0.351 N 
ATOM     12  H1  UNL     1      -1.588  -3.600  14.599  1.00  0.00     0.163 HD
BRANCH  11  13
HETATM   13  C2  UNL     1      -1.089  -1.589  14.102  1.00  0.00     0.076 C 
HETATM   14  C1  UNL     1      -1.205  -0.801  12.792  1.00  0.00     0.032 C 
HETATM   15  C3  UNL     1      -1.581  -0.744  15.252  1.00  0.00     0.032 C 
ENDBRANCH  11  13
ENDBRANCH   1  11
TORSDOF 2
ENDMDL
MODEL 4
REMARK VINA RESULT: -5.200773649      2.238      2.609
REMARK  2 active torsions:
REMARK  status: ('A' for Active; 'I' for Inactive)
REMARK    1  A    between atoms: C2_2  and  N1_4 
REMARK    2  A    between atoms: N1_4  and  C4_6 
ROOT
HETATM    1  C4  UNL     1      -2.954  -2.990  13.090  1.00  0.00     0.242 A 
HETATM    2  N2  UNL     1      -4.104  -2.316  13.343  1.00  0.00    -0.262 N 
ATOM      3  H2  UNL     1      -4.240  -1.669  14.120  1.00  0.00     0.190 HD
HETATM    4  N3  UNL     1      -5.025  -2.614  12.443  1.00  0.00    -0.262 N 
ATOM      5  H3  UNL     1      -5.977  -2.252  12.393  1.00  0.00     0.190 HD
HETATM    6  C5  UNL     1      -4.442  -3.494  11.606  1.00  0.00     0.239 A 
HETATM    7  N4  UNL     1      -5.012  -4.036  10.580  1.00  0.00    -0.364 N 
ATOM      8  H41 UNL     1      -4.572  -4.703   9.946  1.00  0.00     0.159 HD
ATOM      9  H42 UNL     1      -5.969  -3.877  10.263  1.00  0.00     0.159 HD
HETATM   10  O1  UNL     1      -3.207  -3.700  12.016  1.00  0.00    -0.245 OA
ENDROOT
BRANCH   1  11
HETATM   11  N1  UNL     1      -1.735  -2.946  13.821  1.00  0.00    -0.351 N 
ATOM     12  H1  UNL     1      -1.721  -3.283  14.784  1.00  0.00     0.163 HD
BRANCH  11  13
HETATM   13  C2  UNL     1      -0.519  -2.439  13.241  1.00  0.00     0.076 C 
HETATM   14  C1  UNL     1      -0.704  -0.995  12.758  1.00  0.00     0.032 C 
HETATM   15  C3  UNL     1       0.566  -2.491  14.288  1.00  0.00     0.032 C 
ENDBRANCH  11  13
ENDBRANCH   1  11
TORSDOF 2
ENDMDL
MODEL 5
REMARK VINA RESULT: -5.180989400      0.348      1.162
REMARK  2 active torsions:
REMARK  status: ('A' for Active; 'I' for Inactive)
REMARK    1  A    between atoms: C2_2  and  N1_4 
REMARK    2  A    between atoms: N1_4  and  C4_6 
ROOT
HETATM    1  C4  UNL     1      -3.535  -2.434  12.424  1.00  0.00     0.242 A 
HETATM    2  N2  UNL     1      -2.590  -2.869  11.553  1.00  0.00    -0.262 N 
ATOM      3  H2  UNL     1      -1.596  -2.643  11.612  1.00  0.00     0.190 HD
HETATM    4  N3  UNL     1      -3.134  -3.627  10.618  1.00  0.00    -0.262 N 
ATOM      5  H3  UNL     1      -2.658  -4.085   9.841  1.00  0.00     0.190 HD
HETATM    6  C5  UNL     1      -4.449  -3.669  10.906  1.00  0.00     0.239 A 
HETATM    7  N4  UNL     1      -5.341  -4.312  10.225  1.00  0.00    -0.364 N 
ATOM      8  H41 UNL     1      -6.337  -4.344  10.442  1.00  0.00     0.159 HD
ATOM      9  H42 UNL     1      -5.178  -4.870   9.386  1.00  0.00     0.159 HD
HETATM   10  O1  UNL     1      -4.659  -2.949  11.989  1.00  0.00    -0.245 OA
ENDROOT
BRANCH   1  11
HETATM   11  N1  UNL     1      -3.357  -1.601  13.564  1.00  0.00    -0.351 N 
ATOM     12  H1  UNL     1      -3.805  -0.685  13.583  1.00  0.00     0.163 HD
BRANCH  11  13
HETATM   13  C2  UNL     1      -2.563  -2.015  14.691  1.00  0.00     0.076 C 
HETATM   14  C1  UNL     1      -2.551  -0.933  15.778  1.00  0.00     0.032 C 
HETATM   15  C3  UNL     1      -3.152  -3.288  15.246  1.00  0.00     0.032 C 
ENDBRANCH  11  13
ENDBRANCH   1  11
TORSDOF 2
ENDMDL
