MODEL 1
REMARK VINA RESULT: -8.674544019      0.000      0.000
REMARK  16 active torsions:
REMARK  status: ('A' for Active; 'I' for Inactive)
REMARK    1  A    between atoms: C2_2  and  C3_3 
REMARK    2  A    between atoms: C3_3  and  C4_4 
REMARK    3  A    between atoms: C4_4  and  C5_5 
REMARK    4  A    between atoms: C5_5  and  C6_6 
REMARK    5  A    between atoms: C6_6  and  C7_7 
REMARK    6  A    between atoms: C7_7  and  C8_8 
REMARK    7  A    between atoms: C8_8  and  C9_9 
REMARK    8  A    between atoms: C9_9  and  N1_10 
REMARK    9  A    between atoms: N1_10  and  C10_11 
REMARK   10  A    between atoms: C10_11  and  C11_12 
REMARK   11  A    between atoms: C11_12  and  C12_13 
REMARK   12  A    between atoms: C12_13  and  C13_14 
REMARK   13  A    between atoms: C13_14  and  C14_15 
REMARK   14  A    between atoms: C14_15  and  C15_16 
REMARK       I    between atoms: C15_16  and  N2_18 
REMARK   15  A    between atoms: C29_39  and  O2_40 
REMARK   16  A    between atoms: C30_42  and  C32_44 
ROOT
HETATM    1  N1  UNL     1     -17.847  -0.406   0.275  1.00  0.00    -0.066 N 
HETATM    2  C24 UNL     1     -18.765   0.677   0.250  1.00  0.00     0.237 C 
HETATM    3  C25 UNL     1     -18.339   2.058   0.453  1.00  0.00     0.028 C 
HETATM    4  C26 UNL     1     -19.270   2.980  -0.360  1.00  0.00     0.003 C 
HETATM    5  C27 UNL     1     -18.579   4.119  -1.002  1.00  0.00     0.020 C 
HETATM    6  C28 UNL     1     -18.118   3.977  -2.399  1.00  0.00     0.121 C 
HETATM    7  N5  UNL     1     -18.906   3.199  -3.295  1.00  0.00    -0.373 N 
ATOM      8  H5  UNL     1     -19.801   3.621  -3.541  1.00  0.00     0.161 HD
HETATM    9  C29 UNL     1     -18.668   1.956  -3.900  1.00  0.00     0.129 C 
HETATM   10  C30 UNL     1     -17.687   1.486  -4.854  1.00  0.00     0.101 C 
HETATM   11  C31 UNL     1     -18.426   0.396  -5.752  1.00  0.00     0.034 C 
HETATM   12  C34 UNL     1     -16.551   0.699  -4.322  1.00  0.00     0.234 C 
HETATM   13  O3  UNL     1     -15.479   0.772  -5.030  1.00  0.00    -0.272 OA
HETATM   14  N6  UNL     1     -16.482  -0.104  -3.177  1.00  0.00    -0.358 N 
ATOM     15  H6  UNL     1     -16.266  -1.087  -3.342  1.00  0.00     0.162 HD
HETATM   16  C35 UNL     1     -16.673   0.269  -1.796  1.00  0.00     0.150 C 
HETATM   17  C36 UNL     1     -17.436  -0.787  -1.088  1.00  0.00     0.257 C 
ENDROOT
BRANCH   1  18
HETATM   18  C9  UNL     1     -16.661  -0.232   1.042  1.00  0.00     0.237 C 
BRANCH  18  19
HETATM   19  C8  UNL     1     -16.618  -0.844   2.394  1.00  0.00     0.028 C 
BRANCH  19  20
HETATM   20  C7  UNL     1     -16.925   0.175   3.473  1.00  0.00     0.002 C 
BRANCH  20  21
HETATM   21  C6  UNL     1     -18.344   0.174   3.921  1.00  0.00     0.000 C 
BRANCH  21  22
HETATM   22  C5  UNL     1     -18.603   1.215   4.970  1.00  0.00     0.000 C 
BRANCH  22  23
HETATM   23  C4  UNL     1     -18.611   0.508   6.303  1.00  0.00     0.000 C 
BRANCH  23  24
HETATM   24  C3  UNL     1     -18.935  -0.946   6.232  1.00  0.00    -0.000 C 
BRANCH  24  25
HETATM   25  C2  UNL     1     -18.085  -1.775   7.155  1.00  0.00    -0.005 C 
HETATM   26  C1  UNL     1     -16.657  -1.883   6.619  1.00  0.00     0.005 C 
ENDBRANCH  24  25
ENDBRANCH  23  24
ENDBRANCH  22  23
ENDBRANCH  21  22
ENDBRANCH  20  21
ENDBRANCH  19  20
ENDBRANCH  18  19
ENDBRANCH   1  18
BRANCH   1  27
HETATM   27  C10 UNL     1     -18.629  -1.567   0.712  1.00  0.00     0.237 C 
BRANCH  27  28
HETATM   28  C11 UNL     1     -19.598  -2.090  -0.259  1.00  0.00     0.028 C 
BRANCH  28  29
HETATM   29  C12 UNL     1     -19.604  -3.628  -0.170  1.00  0.00     0.002 C 
BRANCH  29  30
HETATM   30  C13 UNL     1     -18.529  -4.113   0.735  1.00  0.00     0.009 C 
BRANCH  30  31
HETATM   31  C14 UNL     1     -18.956  -5.074   1.803  1.00  0.00     0.103 C 
BRANCH  31  32
HETATM   32  C15 UNL     1     -18.419  -4.789   3.127  1.00  0.00     0.219 C 
HETATM   33  O1  UNL     1     -18.663  -3.666   3.638  1.00  0.00    -0.273 OA
HETATM   34  N2  UNL     1     -17.627  -5.692   3.896  1.00  0.00    -0.350 N 
HETATM   35  C16 UNL     1     -17.343  -6.974   3.318  1.00  0.00     0.131 C 
HETATM   36  C23 UNL     1     -17.173  -5.249   5.192  1.00  0.00     0.153 C 
HETATM   37  C17 UNL     1     -16.147  -7.052   2.437  1.00  0.00     0.064 C 
HETATM   38  C18 UNL     1     -15.056  -6.101   2.695  1.00  0.00     0.057 C 
HETATM   39  N3  UNL     1     -14.030  -6.384   3.577  1.00  0.00    -0.402 N 
HETATM   40  C19 UNL     1     -13.956  -7.566   4.322  1.00  0.00     0.120 C 
ATOM     41  H3  UNL     1     -13.286  -5.695   3.691  1.00  0.00     0.158 HD
HETATM   42  C20 UNL     1     -13.841  -7.330   5.832  1.00  0.00     0.047 C 
HETATM   43  C21 UNL     1     -14.182  -5.934   6.219  1.00  0.00     0.234 C 
HETATM   44  N4  UNL     1     -15.457  -5.766   6.869  1.00  0.00    -0.074 N 
HETATM   45  C22 UNL     1     -16.573  -6.263   6.083  1.00  0.00     0.252 C 
ATOM     46  H42 UNL     1     -15.449  -6.191   7.796  1.00  0.00     0.277 HD
ATOM     47  H41 UNL     1     -15.604  -4.792   7.131  1.00  0.00     0.277 HD
ENDBRANCH  31  32
ENDBRANCH  30  31
ENDBRANCH  29  30
ENDBRANCH  28  29
ENDBRANCH  27  28
ENDBRANCH   1  27
BRANCH  10  48
HETATM   48  C32 UNL     1     -17.237   2.463  -5.879  1.00  0.00     0.023 C 
HETATM   49  C33 UNL     1     -18.205   2.967  -6.873  1.00  0.00     0.007 C 
ENDBRANCH  10  48
BRANCH   9  50
HETATM   50  O2  UNL     1     -19.515   1.021  -3.526  1.00  0.00    -0.349 OA
ATOM     51  H2  UNL     1     -20.101   0.743  -4.220  1.00  0.00     0.219 HD
ENDBRANCH   9  50
TORSDOF 16
ENDMDL
MODEL 2
REMARK VINA RESULT: -8.513558869      2.096      3.332
REMARK  16 active torsions:
REMARK  status: ('A' for Active; 'I' for Inactive)
REMARK    1  A    between atoms: C2_2  and  C3_3 
REMARK    2  A    between atoms: C3_3  and  C4_4 
REMARK    3  A    between atoms: C4_4  and  C5_5 
REMARK    4  A    between atoms: C5_5  and  C6_6 
REMARK    5  A    between atoms: C6_6  and  C7_7 
REMARK    6  A    between atoms: C7_7  and  C8_8 
REMARK    7  A    between atoms: C8_8  and  C9_9 
REMARK    8  A    between atoms: C9_9  and  N1_10 
REMARK    9  A    between atoms: N1_10  and  C10_11 
REMARK   10  A    between atoms: C10_11  and  C11_12 
REMARK   11  A    between atoms: C11_12  and  C12_13 
REMARK   12  A    between atoms: C12_13  and  C13_14 
REMARK   13  A    between atoms: C13_14  and  C14_15 
REMARK   14  A    between atoms: C14_15  and  C15_16 
REMARK       I    between atoms: C15_16  and  N2_18 
REMARK   15  A    between atoms: C29_39  and  O2_40 
REMARK   16  A    between atoms: C30_42  and  C32_44 
ROOT
HETATM    1  N1  UNL     1     -17.994   1.349  -2.146  1.00  0.00    -0.066 N 
HETATM    2  C24 UNL     1     -18.799   2.517  -2.074  1.00  0.00     0.237 C 
HETATM    3  C25 UNL     1     -18.238   3.825  -1.751  1.00  0.00     0.028 C 
HETATM    4  C26 UNL     1     -19.065   4.904  -2.478  1.00  0.00     0.003 C 
HETATM    5  C27 UNL     1     -18.258   6.019  -3.018  1.00  0.00     0.020 C 
HETATM    6  C28 UNL     1     -17.804   5.954  -4.423  1.00  0.00     0.121 C 
HETATM    7  N5  UNL     1     -18.660   5.342  -5.383  1.00  0.00    -0.373 N 
ATOM      8  H5  UNL     1     -19.506   5.871  -5.589  1.00  0.00     0.161 HD
HETATM    9  C29 UNL     1     -18.544   4.138  -6.095  1.00  0.00     0.129 C 
HETATM   10  C30 UNL     1     -17.609   3.657  -7.088  1.00  0.00     0.101 C 
HETATM   11  C31 UNL     1     -18.447   2.731  -8.078  1.00  0.00     0.034 C 
HETATM   12  C34 UNL     1     -16.562   2.716  -6.630  1.00  0.00     0.234 C 
HETATM   13  O3  UNL     1     -15.482   2.743  -7.330  1.00  0.00    -0.272 OA
HETATM   14  N6  UNL     1     -16.581   1.813  -5.561  1.00  0.00    -0.358 N 
ATOM     15  H6  UNL     1     -16.464   0.832  -5.812  1.00  0.00     0.162 HD
HETATM   16  C35 UNL     1     -16.744   2.081  -4.152  1.00  0.00     0.150 C 
HETATM   17  C36 UNL     1     -17.615   1.049  -3.538  1.00  0.00     0.257 C 
ENDROOT
BRANCH   1  18
HETATM   18  C9  UNL     1     -16.803   1.334  -1.368  1.00  0.00     0.237 C 
BRANCH  18  19
HETATM   19  C8  UNL     1     -16.277   0.015  -0.935  1.00  0.00     0.028 C 
BRANCH  19  20
HETATM   20  C7  UNL     1     -16.077  -0.035   0.566  1.00  0.00     0.002 C 
BRANCH  20  21
HETATM   21  C6  UNL     1     -17.005   0.842   1.332  1.00  0.00     0.000 C 
BRANCH  21  22
HETATM   22  C5  UNL     1     -17.413   0.226   2.637  1.00  0.00     0.000 C 
BRANCH  22  23
HETATM   23  C4  UNL     1     -18.553   1.053   3.179  1.00  0.00     0.000 C 
BRANCH  23  24
HETATM   24  C3  UNL     1     -18.527   1.253   4.657  1.00  0.00    -0.000 C 
BRANCH  24  25
HETATM   25  C2  UNL     1     -17.834   0.133   5.382  1.00  0.00    -0.005 C 
HETATM   26  C1  UNL     1     -18.765  -0.492   6.422  1.00  0.00     0.005 C 
ENDBRANCH  24  25
ENDBRANCH  23  24
ENDBRANCH  22  23
ENDBRANCH  21  22
ENDBRANCH  20  21
ENDBRANCH  19  20
ENDBRANCH  18  19
ENDBRANCH   1  18
BRANCH   1  27
HETATM   27  C10 UNL     1     -18.893   0.238  -1.812  1.00  0.00     0.237 C 
BRANCH  27  28
HETATM   28  C11 UNL     1     -19.980   0.552  -0.877  1.00  0.00     0.028 C 
BRANCH  28  29
HETATM   29  C12 UNL     1     -20.081  -0.582   0.161  1.00  0.00     0.002 C 
BRANCH  29  30
HETATM   30  C13 UNL     1     -19.555  -1.859  -0.393  1.00  0.00     0.009 C 
BRANCH  30  31
HETATM   31  C14 UNL     1     -18.477  -2.525   0.408  1.00  0.00     0.103 C 
BRANCH  31  32
HETATM   32  C15 UNL     1     -18.719  -3.931   0.701  1.00  0.00     0.219 C 
HETATM   33  O1  UNL     1     -19.576  -4.543   0.012  1.00  0.00    -0.273 OA
HETATM   34  N2  UNL     1     -18.056  -4.677   1.721  1.00  0.00    -0.350 N 
HETATM   35  C16 UNL     1     -17.080  -3.985   2.511  1.00  0.00     0.131 C 
HETATM   36  C23 UNL     1     -18.418  -6.065   1.878  1.00  0.00     0.153 C 
HETATM   37  C17 UNL     1     -17.589  -3.261   3.706  1.00  0.00     0.064 C 
HETATM   38  C18 UNL     1     -18.818  -3.772   4.331  1.00  0.00     0.057 C 
HETATM   39  N3  UNL     1     -18.791  -4.735   5.323  1.00  0.00    -0.402 N 
HETATM   40  C19 UNL     1     -17.613  -5.331   5.788  1.00  0.00     0.120 C 
ATOM     41  H3  UNL     1     -19.675  -5.027   5.738  1.00  0.00     0.158 HD
HETATM   42  C20 UNL     1     -17.625  -6.861   5.696  1.00  0.00     0.047 C 
HETATM   43  C21 UNL     1     -18.717  -7.372   4.823  1.00  0.00     0.234 C 
HETATM   44  N4  UNL     1     -18.298  -7.870   3.537  1.00  0.00    -0.074 N 
HETATM   45  C22 UNL     1     -17.563  -6.893   2.753  1.00  0.00     0.252 C 
ATOM     46  H42 UNL     1     -17.760  -8.730   3.640  1.00  0.00     0.277 HD
ATOM     47  H41 UNL     1     -19.094  -8.230   3.011  1.00  0.00     0.277 HD
ENDBRANCH  31  32
ENDBRANCH  30  31
ENDBRANCH  29  30
ENDBRANCH  28  29
ENDBRANCH  27  28
ENDBRANCH   1  27
BRANCH  10  48
HETATM   48  C32 UNL     1     -17.055   4.671  -8.025  1.00  0.00     0.023 C 
HETATM   49  C33 UNL     1     -17.430   4.619  -9.451  1.00  0.00     0.007 C 
ENDBRANCH  10  48
BRANCH   9  50
HETATM   50  O2  UNL     1     -19.484   3.265  -5.803  1.00  0.00    -0.349 OA
ATOM     51  H2  UNL     1     -19.916   3.439  -4.976  1.00  0.00     0.219 HD
ENDBRANCH   9  50
TORSDOF 16
ENDMDL
MODEL 3
REMARK VINA RESULT: -8.464344621      1.349      1.832
REMARK  16 active torsions:
REMARK  status: ('A' for Active; 'I' for Inactive)
REMARK    1  A    between atoms: C2_2  and  C3_3 
REMARK    2  A    between atoms: C3_3  and  C4_4 
REMARK    3  A    between atoms: C4_4  and  C5_5 
REMARK    4  A    between atoms: C5_5  and  C6_6 
REMARK    5  A    between atoms: C6_6  and  C7_7 
REMARK    6  A    between atoms: C7_7  and  C8_8 
REMARK    7  A    between atoms: C8_8  and  C9_9 
REMARK    8  A    between atoms: C9_9  and  N1_10 
REMARK    9  A    between atoms: N1_10  and  C10_11 
REMARK   10  A    between atoms: C10_11  and  C11_12 
REMARK   11  A    between atoms: C11_12  and  C12_13 
REMARK   12  A    between atoms: C12_13  and  C13_14 
REMARK   13  A    between atoms: C13_14  and  C14_15 
REMARK   14  A    between atoms: C14_15  and  C15_16 
REMARK       I    between atoms: C15_16  and  N2_18 
REMARK   15  A    between atoms: C29_39  and  O2_40 
REMARK   16  A    between atoms: C30_42  and  C32_44 
ROOT
HETATM    1  N1  UNL     1     -17.862  -0.334   0.061  1.00  0.00    -0.066 N 
HETATM    2  C24 UNL     1     -18.756   0.770   0.050  1.00  0.00     0.237 C 
HETATM    3  C25 UNL     1     -18.298   2.138   0.275  1.00  0.00     0.028 C 
HETATM    4  C26 UNL     1     -19.206   3.093  -0.526  1.00  0.00     0.003 C 
HETATM    5  C27 UNL     1     -18.488   4.224  -1.149  1.00  0.00     0.020 C 
HETATM    6  C28 UNL     1     -18.028   4.092  -2.548  1.00  0.00     0.121 C 
HETATM    7  N5  UNL     1     -18.832   3.347  -3.457  1.00  0.00    -0.373 N 
ATOM      8  H5  UNL     1     -19.717   3.792  -3.698  1.00  0.00     0.161 HD
HETATM    9  C29 UNL     1     -18.621   2.107  -4.079  1.00  0.00     0.129 C 
HETATM   10  C30 UNL     1     -17.650   1.629  -5.039  1.00  0.00     0.101 C 
HETATM   11  C31 UNL     1     -18.412   0.570  -5.955  1.00  0.00     0.034 C 
HETATM   12  C34 UNL     1     -16.534   0.808  -4.517  1.00  0.00     0.234 C 
HETATM   13  O3  UNL     1     -15.459   0.867  -5.222  1.00  0.00    -0.272 OA
HETATM   14  N6  UNL     1     -16.484  -0.013  -3.384  1.00  0.00    -0.358 N 
ATOM     15  H6  UNL     1     -16.291  -0.998  -3.564  1.00  0.00     0.162 HD
HETATM   16  C35 UNL     1     -16.670   0.344  -1.998  1.00  0.00     0.150 C 
HETATM   17  C36 UNL     1     -17.458  -0.704  -1.307  1.00  0.00     0.257 C 
ENDROOT
BRANCH   1  18
HETATM   18  C9  UNL     1     -16.675  -0.199   0.833  1.00  0.00     0.237 C 
BRANCH  18  19
HETATM   19  C8  UNL     1     -16.609  -0.916   2.131  1.00  0.00     0.028 C 
BRANCH  19  20
HETATM   20  C7  UNL     1     -16.821   0.030   3.296  1.00  0.00     0.002 C 
BRANCH  20  21
HETATM   21  C6  UNL     1     -18.232   0.111   3.763  1.00  0.00     0.000 C 
BRANCH  21  22
HETATM   22  C5  UNL     1     -18.468   1.308   4.637  1.00  0.00     0.000 C 
BRANCH  22  23
HETATM   23  C4  UNL     1     -18.815   0.791   6.011  1.00  0.00     0.000 C 
BRANCH  23  24
HETATM   24  C3  UNL     1     -18.872  -0.696   6.119  1.00  0.00    -0.000 C 
BRANCH  24  25
HETATM   25  C2  UNL     1     -17.991  -1.232   7.214  1.00  0.00    -0.005 C 
HETATM   26  C1  UNL     1     -16.617  -1.609   6.663  1.00  0.00     0.005 C 
ENDBRANCH  24  25
ENDBRANCH  23  24
ENDBRANCH  22  23
ENDBRANCH  21  22
ENDBRANCH  20  21
ENDBRANCH  19  20
ENDBRANCH  18  19
ENDBRANCH   1  18
BRANCH   1  27
HETATM   27  C10 UNL     1     -18.673  -1.483   0.479  1.00  0.00     0.237 C 
BRANCH  27  28
HETATM   28  C11 UNL     1     -18.772  -2.584  -0.487  1.00  0.00     0.028 C 
BRANCH  28  29
HETATM   29  C12 UNL     1     -17.752  -3.672  -0.101  1.00  0.00     0.002 C 
BRANCH  29  30
HETATM   30  C13 UNL     1     -18.427  -4.978   0.126  1.00  0.00     0.009 C 
BRANCH  30  31
HETATM   31  C14 UNL     1     -19.256  -5.079   1.372  1.00  0.00     0.103 C 
BRANCH  31  32
HETATM   32  C15 UNL     1     -18.994  -6.260   2.182  1.00  0.00     0.219 C 
HETATM   33  O1  UNL     1     -19.753  -7.254   2.046  1.00  0.00    -0.273 OA
HETATM   34  N2  UNL     1     -17.934  -6.380   3.129  1.00  0.00    -0.350 N 
HETATM   35  C16 UNL     1     -17.066  -5.250   3.290  1.00  0.00     0.131 C 
HETATM   36  C23 UNL     1     -17.818  -7.624   3.851  1.00  0.00     0.153 C 
HETATM   37  C17 UNL     1     -17.500  -4.216   4.266  1.00  0.00     0.064 C 
HETATM   38  C18 UNL     1     -18.354  -4.656   5.380  1.00  0.00     0.057 C 
HETATM   39  N3  UNL     1     -17.825  -5.105   6.576  1.00  0.00    -0.402 N 
HETATM   40  C19 UNL     1     -16.451  -5.217   6.819  1.00  0.00     0.120 C 
ATOM     41  H3  UNL     1     -18.469  -5.368   7.321  1.00  0.00     0.158 HD
HETATM   42  C20 UNL     1     -16.021  -6.621   7.258  1.00  0.00     0.047 C 
HETATM   43  C21 UNL     1     -17.069  -7.646   6.999  1.00  0.00     0.234 C 
HETATM   44  N4  UNL     1     -16.806  -8.533   5.894  1.00  0.00    -0.074 N 
HETATM   45  C22 UNL     1     -16.585  -7.838   4.638  1.00  0.00     0.252 C 
ATOM     46  H42 UNL     1     -16.025  -9.153   6.106  1.00  0.00     0.277 HD
ATOM     47  H41 UNL     1     -17.550  -9.224   5.800  1.00  0.00     0.277 HD
ENDBRANCH  31  32
ENDBRANCH  30  31
ENDBRANCH  29  30
ENDBRANCH  28  29
ENDBRANCH  27  28
ENDBRANCH   1  27
BRANCH  10  48
HETATM   48  C32 UNL     1     -17.175   2.611  -6.049  1.00  0.00     0.023 C 
HETATM   49  C33 UNL     1     -17.734   2.571  -7.415  1.00  0.00     0.007 C 
ENDBRANCH  10  48
BRANCH   9  50
HETATM   50  O2  UNL     1     -19.491   1.187  -3.721  1.00  0.00    -0.349 OA
ATOM     51  H2  UNL     1     -20.344   1.296  -4.124  1.00  0.00     0.219 HD
ENDBRANCH   9  50
TORSDOF 16
ENDMDL
MODEL 4
REMARK VINA RESULT: -8.443790188      2.303      4.454
REMARK  16 active torsions:
REMARK  status: ('A' for Active; 'I' for Inactive)
REMARK    1  A    between atoms: C2_2  and  C3_3 
REMARK    2  A    between atoms: C3_3  and  C4_4 
REMARK    3  A    between atoms: C4_4  and  C5_5 
REMARK    4  A    between atoms: C5_5  and  C6_6 
REMARK    5  A    between atoms: C6_6  and  C7_7 
REMARK    6  A    between atoms: C7_7  and  C8_8 
REMARK    7  A    between atoms: C8_8  and  C9_9 
REMARK    8  A    between atoms: C9_9  and  N1_10 
REMARK    9  A    between atoms: N1_10  and  C10_11 
REMARK   10  A    between atoms: C10_11  and  C11_12 
REMARK   11  A    between atoms: C11_12  and  C12_13 
REMARK   12  A    between atoms: C12_13  and  C13_14 
REMARK   13  A    between atoms: C13_14  and  C14_15 
REMARK   14  A    between atoms: C14_15  and  C15_16 
REMARK       I    between atoms: C15_16  and  N2_18 
REMARK   15  A    between atoms: C29_39  and  O2_40 
REMARK   16  A    between atoms: C30_42  and  C32_44 
ROOT
HETATM    1  N1  UNL     1     -17.475   1.616  -2.770  1.00  0.00    -0.066 N 
HETATM    2  C24 UNL     1     -17.412   0.599  -3.759  1.00  0.00     0.237 C 
HETATM    3  C25 UNL     1     -18.584   0.198  -4.532  1.00  0.00     0.028 C 
HETATM    4  C26 UNL     1     -18.115  -0.257  -5.928  1.00  0.00     0.003 C 
HETATM    5  C27 UNL     1     -19.012   0.154  -7.029  1.00  0.00     0.020 C 
HETATM    6  C28 UNL     1     -18.723   1.410  -7.753  1.00  0.00     0.121 C 
HETATM    7  N5  UNL     1     -17.361   1.779  -7.949  1.00  0.00    -0.373 N 
ATOM      8  H5  UNL     1     -16.854   1.182  -8.602  1.00  0.00     0.161 HD
HETATM    9  C29 UNL     1     -16.594   2.818  -7.402  1.00  0.00     0.129 C 
HETATM   10  C30 UNL     1     -16.668   4.260  -7.488  1.00  0.00     0.101 C 
HETATM   11  C31 UNL     1     -15.164   4.787  -7.450  1.00  0.00     0.034 C 
HETATM   12  C34 UNL     1     -17.253   4.976  -6.332  1.00  0.00     0.234 C 
HETATM   13  O3  UNL     1     -17.798   6.104  -6.628  1.00  0.00    -0.272 OA
HETATM   14  N6  UNL     1     -17.294   4.607  -4.983  1.00  0.00    -0.358 N 
ATOM     15  H6  UNL     1     -16.830   5.245  -4.338  1.00  0.00     0.162 HD
HETATM   16  C35 UNL     1     -17.904   3.446  -4.379  1.00  0.00     0.150 C 
HETATM   17  C36 UNL     1     -17.027   2.912  -3.309  1.00  0.00     0.257 C 
ENDROOT
BRANCH   1  18
HETATM   18  C9  UNL     1     -18.733   1.831  -2.140  1.00  0.00     0.237 C 
BRANCH  18  19
HETATM   19  C8  UNL     1     -18.742   2.556  -0.845  1.00  0.00     0.028 C 
BRANCH  19  20
HETATM   20  C7  UNL     1     -19.230   1.669   0.283  1.00  0.00     0.002 C 
BRANCH  20  21
HETATM   21  C6  UNL     1     -18.262   1.526   1.404  1.00  0.00     0.000 C 
BRANCH  21  22
HETATM   22  C5  UNL     1     -18.873   0.842   2.591  1.00  0.00     0.000 C 
BRANCH  22  23
HETATM   23  C4  UNL     1     -17.833   0.839   3.684  1.00  0.00     0.000 C 
BRANCH  23  24
HETATM   24  C3  UNL     1     -18.367   0.565   5.049  1.00  0.00    -0.000 C 
BRANCH  24  25
HETATM   25  C2  UNL     1     -17.449  -0.300   5.868  1.00  0.00    -0.005 C 
HETATM   26  C1  UNL     1     -16.026  -0.250   5.313  1.00  0.00     0.005 C 
ENDBRANCH  24  25
ENDBRANCH  23  24
ENDBRANCH  22  23
ENDBRANCH  21  22
ENDBRANCH  20  21
ENDBRANCH  19  20
ENDBRANCH  18  19
ENDBRANCH   1  18
BRANCH   1  27
HETATM   27  C10 UNL     1     -16.419   1.285  -1.807  1.00  0.00     0.237 C 
BRANCH  27  28
HETATM   28  C11 UNL     1     -15.970  -0.112  -1.802  1.00  0.00     0.028 C 
BRANCH  28  29
HETATM   29  C12 UNL     1     -16.539  -0.808  -0.551  1.00  0.00     0.002 C 
BRANCH  29  30
HETATM   30  C13 UNL     1     -17.656  -1.722  -0.911  1.00  0.00     0.009 C 
BRANCH  30  31
HETATM   31  C14 UNL     1     -18.693  -1.939   0.150  1.00  0.00     0.103 C 
BRANCH  31  32
HETATM   32  C15 UNL     1     -19.030  -3.334   0.393  1.00  0.00     0.219 C 
HETATM   33  O1  UNL     1     -19.967  -3.845  -0.275  1.00  0.00    -0.273 OA
HETATM   34  N2  UNL     1     -18.378  -4.177   1.341  1.00  0.00    -0.350 N 
HETATM   35  C16 UNL     1     -17.311  -3.601   2.107  1.00  0.00     0.131 C 
HETATM   36  C23 UNL     1     -18.839  -5.539   1.456  1.00  0.00     0.153 C 
HETATM   37  C17 UNL     1     -17.700  -2.899   3.359  1.00  0.00     0.064 C 
HETATM   38  C18 UNL     1     -18.933  -3.343   4.027  1.00  0.00     0.057 C 
HETATM   39  N3  UNL     1     -18.931  -4.352   4.972  1.00  0.00    -0.402 N 
HETATM   40  C19 UNL     1     -17.782  -5.058   5.346  1.00  0.00     0.120 C 
ATOM     41  H3  UNL     1     -19.814  -4.595   5.421  1.00  0.00     0.158 HD
HETATM   42  C20 UNL     1     -17.920  -6.576   5.188  1.00  0.00     0.047 C 
HETATM   43  C21 UNL     1     -19.092  -6.960   4.353  1.00  0.00     0.234 C 
HETATM   44  N4  UNL     1     -18.779  -7.425   3.026  1.00  0.00    -0.074 N 
HETATM   45  C22 UNL     1     -18.009  -6.471   2.247  1.00  0.00     0.252 C 
ATOM     46  H42 UNL     1     -18.307  -8.328   3.062  1.00  0.00     0.277 HD
ATOM     47  H41 UNL     1     -19.627  -7.698   2.529  1.00  0.00     0.277 HD
ENDBRANCH  31  32
ENDBRANCH  30  31
ENDBRANCH  29  30
ENDBRANCH  28  29
ENDBRANCH  27  28
ENDBRANCH   1  27
BRANCH  10  48
HETATM   48  C32 UNL     1     -17.150   4.824  -8.776  1.00  0.00     0.023 C 
HETATM   49  C33 UNL     1     -16.283   4.749  -9.969  1.00  0.00     0.007 C 
ENDBRANCH  10  48
BRANCH   9  50
HETATM   50  O2  UNL     1     -15.594   2.395  -6.658  1.00  0.00    -0.349 OA
ATOM     51  H2  UNL     1     -15.769   2.445  -5.726  1.00  0.00     0.219 HD
ENDBRANCH   9  50
TORSDOF 16
ENDMDL
MODEL 5
REMARK VINA RESULT: -8.436333265      1.834      2.713
REMARK  16 active torsions:
REMARK  status: ('A' for Active; 'I' for Inactive)
REMARK    1  A    between atoms: C2_2  and  C3_3 
REMARK    2  A    between atoms: C3_3  and  C4_4 
REMARK    3  A    between atoms: C4_4  and  C5_5 
REMARK    4  A    between atoms: C5_5  and  C6_6 
REMARK    5  A    between atoms: C6_6  and  C7_7 
REMARK    6  A    between atoms: C7_7  and  C8_8 
REMARK    7  A    between atoms: C8_8  and  C9_9 
REMARK    8  A    between atoms: C9_9  and  N1_10 
REMARK    9  A    between atoms: N1_10  and  C10_11 
REMARK   10  A    between atoms: C10_11  and  C11_12 
REMARK   11  A    between atoms: C11_12  and  C12_13 
REMARK   12  A    between atoms: C12_13  and  C13_14 
REMARK   13  A    between atoms: C13_14  and  C14_15 
REMARK   14  A    between atoms: C14_15  and  C15_16 
REMARK       I    between atoms: C15_16  and  N2_18 
REMARK   15  A    between atoms: C29_39  and  O2_40 
REMARK   16  A    between atoms: C30_42  and  C32_44 
ROOT
HETATM    1  N1  UNL     1     -18.324   1.380  -0.678  1.00  0.00    -0.066 N 
HETATM    2  C24 UNL     1     -18.890   2.649  -0.967  1.00  0.00     0.237 C 
HETATM    3  C25 UNL     1     -18.096   3.874  -0.943  1.00  0.00     0.028 C 
HETATM    4  C26 UNL     1     -18.679   4.853  -1.982  1.00  0.00     0.003 C 
HETATM    5  C27 UNL     1     -17.659   5.624  -2.723  1.00  0.00     0.020 C 
HETATM    6  C28 UNL     1     -17.187   5.111  -4.027  1.00  0.00     0.121 C 
HETATM    7  N5  UNL     1     -18.118   4.430  -4.863  1.00  0.00    -0.373 N 
ATOM      8  H5  UNL     1     -18.841   5.029  -5.261  1.00  0.00     0.161 HD
HETATM    9  C29 UNL     1     -18.217   3.081  -5.235  1.00  0.00     0.129 C 
HETATM   10  C30 UNL     1     -17.365   2.196  -5.999  1.00  0.00     0.101 C 
HETATM   11  C31 UNL     1     -18.338   1.207  -6.783  1.00  0.00     0.034 C 
HETATM   12  C34 UNL     1     -16.532   1.238  -5.238  1.00  0.00     0.234 C 
HETATM   13  O3  UNL     1     -15.449   0.886  -5.838  1.00  0.00    -0.272 OA
HETATM   14  N6  UNL     1     -16.754   0.667  -3.980  1.00  0.00    -0.358 N 
ATOM     15  H6  UNL     1     -16.822  -0.350  -3.964  1.00  0.00     0.162 HD
HETATM   16  C35 UNL     1     -16.901   1.321  -2.701  1.00  0.00     0.150 C 
HETATM   17  C36 UNL     1     -17.971   0.661  -1.915  1.00  0.00     0.257 C 
ENDROOT
BRANCH   1  18
HETATM   18  C9  UNL     1     -17.179   1.357   0.167  1.00  0.00     0.237 C 
BRANCH  18  19
HETATM   19  C8  UNL     1     -17.401   1.206   1.627  1.00  0.00     0.028 C 
BRANCH  19  20
HETATM   20  C7  UNL     1     -16.609   0.042   2.190  1.00  0.00     0.002 C 
BRANCH  20  21
HETATM   21  C6  UNL     1     -17.061  -0.403   3.536  1.00  0.00     0.000 C 
BRANCH  21  22
HETATM   22  C5  UNL     1     -18.461   0.045   3.837  1.00  0.00     0.000 C 
BRANCH  22  23
HETATM   23  C4  UNL     1     -18.442   0.656   5.216  1.00  0.00     0.000 C 
BRANCH  23  24
HETATM   24  C3  UNL     1     -18.836  -0.275   6.313  1.00  0.00    -0.000 C 
BRANCH  24  25
HETATM   25  C2  UNL     1     -17.719  -0.529   7.288  1.00  0.00    -0.005 C 
HETATM   26  C1  UNL     1     -17.019  -1.850   6.971  1.00  0.00     0.005 C 
ENDBRANCH  24  25
ENDBRANCH  23  24
ENDBRANCH  22  23
ENDBRANCH  21  22
ENDBRANCH  20  21
ENDBRANCH  19  20
ENDBRANCH  18  19
ENDBRANCH   1  18
BRANCH   1  27
HETATM   27  C10 UNL     1     -19.428   0.576  -0.143  1.00  0.00     0.237 C 
BRANCH  27  28
HETATM   28  C11 UNL     1     -19.626  -0.738  -0.766  1.00  0.00     0.028 C 
BRANCH  28  29
HETATM   29  C12 UNL     1     -19.214  -1.829   0.241  1.00  0.00     0.002 C 
BRANCH  29  30
HETATM   30  C13 UNL     1     -18.222  -2.760  -0.360  1.00  0.00     0.009 C 
BRANCH  30  31
HETATM   31  C14 UNL     1     -16.866  -2.773   0.279  1.00  0.00     0.103 C 
BRANCH  31  32
HETATM   32  C15 UNL     1     -16.331  -4.102   0.542  1.00  0.00     0.219 C 
HETATM   33  O1  UNL     1     -15.712  -4.687  -0.384  1.00  0.00    -0.273 OA
HETATM   34  N2  UNL     1     -16.458  -4.802   1.778  1.00  0.00    -0.350 N 
HETATM   35  C16 UNL     1     -17.165  -4.142   2.837  1.00  0.00     0.131 C 
HETATM   36  C23 UNL     1     -15.868  -6.116   1.868  1.00  0.00     0.153 C 
HETATM   37  C17 UNL     1     -18.641  -4.322   2.860  1.00  0.00     0.064 C 
HETATM   38  C18 UNL     1     -19.179  -5.557   2.270  1.00  0.00     0.057 C 
HETATM   39  N3  UNL     1     -19.348  -6.711   3.013  1.00  0.00    -0.402 N 
HETATM   40  C19 UNL     1     -18.993  -6.820   4.362  1.00  0.00     0.120 C 
ATOM     41  H3  UNL     1     -19.754  -7.526   2.554  1.00  0.00     0.158 HD
HETATM   42  C20 UNL     1     -18.027  -7.975   4.647  1.00  0.00     0.047 C 
HETATM   43  C21 UNL     1     -17.399  -8.514   3.410  1.00  0.00     0.234 C 
HETATM   44  N4  UNL     1     -16.016  -8.162   3.216  1.00  0.00    -0.074 N 
HETATM   45  C22 UNL     1     -15.781  -6.729   3.210  1.00  0.00     0.252 C 
ATOM     46  H42 UNL     1     -15.425  -8.622   3.908  1.00  0.00     0.277 HD
ATOM     47  H41 UNL     1     -15.648  -8.593   2.367  1.00  0.00     0.277 HD
ENDBRANCH  31  32
ENDBRANCH  30  31
ENDBRANCH  29  30
ENDBRANCH  28  29
ENDBRANCH  27  28
ENDBRANCH   1  27
BRANCH  10  48
HETATM   48  C32 UNL     1     -16.601   2.811  -7.117  1.00  0.00     0.023 C 
HETATM   49  C33 UNL     1     -17.332   3.380  -8.266  1.00  0.00     0.007 C 
ENDBRANCH  10  48
BRANCH   9  50
HETATM   50  O2  UNL     1     -19.315   2.498  -4.805  1.00  0.00    -0.349 OA
ATOM     51  H2  UNL     1     -19.151   1.717  -4.290  1.00  0.00     0.219 HD
ENDBRANCH   9  50
TORSDOF 16
ENDMDL
