MODEL 1
REMARK VINA RESULT: -7.215369564      0.000      0.000
REMARK  6 active torsions:
REMARK  status: ('A' for Active; 'I' for Inactive)
REMARK    1  A    between atoms: N2_3  and  C2_5 
REMARK    2  A    between atoms: C2_5  and  C3_6 
REMARK    3  A    between atoms: C5_11  and  C6_12 
REMARK    4  A    between atoms: C6_12  and  C7_13 
REMARK    5  A    between atoms: C7_13  and  N4_14 
REMARK    6  A    between atoms: N4_14  and  C8_16 
ROOT
HETATM    1  N1  UNL     1      41.723  54.862  41.508  1.00  0.00    -0.172 NA
HETATM    2  C1  UNL     1      42.083  55.461  42.442  1.00  0.00     0.177 C 
HETATM    3  N2  UNL     1      42.534  56.186  43.533  1.00  0.00    -0.326 N 
ATOM      4  H2  UNL     1      43.119  56.995  43.324  1.00  0.00     0.171 HD
ENDROOT
BRANCH   3   5
HETATM    5  C2  UNL     1      42.276  55.932  44.917  1.00  0.00     0.166 C 
BRANCH   5   6
HETATM    6  C3  UNL     1      43.239  54.997  45.580  1.00  0.00     0.195 C 
HETATM    7  N3  UNL     1      43.321  53.751  44.908  1.00  0.00    -0.346 N 
HETATM    8  C4  UNL     1      44.091  52.622  45.405  1.00  0.00     0.224 C 
ATOM      9  H3  UNL     1      42.813  53.640  44.030  1.00  0.00     0.163 HD
HETATM   10  O1  UNL     1      43.630  51.485  45.140  1.00  0.00    -0.273 OA
HETATM   11  C5  UNL     1      45.338  52.659  46.175  1.00  0.00     0.097 C 
HETATM   12  C11 UNL     1      46.277  53.746  45.742  1.00  0.00     0.136 C 
HETATM   13  N7  UNL     1      45.827  55.063  46.117  1.00  0.00    -0.358 N 
HETATM   14  C12 UNL     1      44.567  55.629  45.796  1.00  0.00     0.242 C 
ATOM     15  H7  UNL     1      46.471  55.638  46.662  1.00  0.00     0.162 HD
HETATM   16  O2  UNL     1      44.565  56.870  45.672  1.00  0.00    -0.271 OA
BRANCH  11  17
HETATM   17  C6  UNL     1      45.153  52.626  47.661  1.00  0.00     0.035 C 
BRANCH  17  18
HETATM   18  C7  UNL     1      45.532  51.279  48.245  1.00  0.00     0.123 C 
BRANCH  18  19
HETATM   19  N4  UNL     1      44.467  50.324  47.996  1.00  0.00    -0.362 N 
ATOM     20  H4  UNL     1      44.600  49.583  47.308  1.00  0.00     0.162 HD
BRANCH  19  21
HETATM   21  C8  UNL     1      43.234  50.416  48.711  1.00  0.00     0.171 C 
HETATM   22  N5  UNL     1      43.075  51.051  49.844  1.00  0.00    -0.361 N 
HETATM   23  C9  UNL     1      41.702  50.943  50.290  1.00  0.00     0.142 C 
ATOM     24  H5  UNL     1      43.812  51.550  50.342  1.00  0.00     0.162 HD
HETATM   25  C10 UNL     1      40.981  50.620  48.999  1.00  0.00     0.142 C 
HETATM   26  N6  UNL     1      41.999  49.847  48.313  1.00  0.00    -0.361 N 
ATOM     27  H6  UNL     1      41.856  49.061  47.680  1.00  0.00     0.162 HD
ENDBRANCH  19  21
ENDBRANCH  18  19
ENDBRANCH  17  18
ENDBRANCH  11  17
ENDBRANCH   5   6
ENDBRANCH   3   5
TORSDOF 6
ENDMDL
MODEL 2
REMARK VINA RESULT: -6.989996242      1.419      2.042
REMARK  6 active torsions:
REMARK  status: ('A' for Active; 'I' for Inactive)
REMARK    1  A    between atoms: N2_3  and  C2_5 
REMARK    2  A    between atoms: C2_5  and  C3_6 
REMARK    3  A    between atoms: C5_11  and  C6_12 
REMARK    4  A    between atoms: C6_12  and  C7_13 
REMARK    5  A    between atoms: C7_13  and  N4_14 
REMARK    6  A    between atoms: N4_14  and  C8_16 
ROOT
HETATM    1  N1  UNL     1      41.170  57.425  48.298  1.00  0.00    -0.172 NA
HETATM    2  C1  UNL     1      41.150  56.928  47.242  1.00  0.00     0.177 C 
HETATM    3  N2  UNL     1      41.096  56.328  45.995  1.00  0.00    -0.326 N 
ATOM      4  H2  UNL     1      40.165  56.109  45.641  1.00  0.00     0.171 HD
ENDROOT
BRANCH   3   5
HETATM    5  C2  UNL     1      42.194  55.978  45.147  1.00  0.00     0.166 C 
BRANCH   5   6
HETATM    6  C3  UNL     1      43.173  55.015  45.742  1.00  0.00     0.195 C 
HETATM    7  N3  UNL     1      43.263  53.814  44.993  1.00  0.00    -0.346 N 
HETATM    8  C4  UNL     1      44.050  52.666  45.412  1.00  0.00     0.224 C 
ATOM      9  H3  UNL     1      42.747  53.753  44.115  1.00  0.00     0.163 HD
HETATM   10  O1  UNL     1      43.600  51.542  45.080  1.00  0.00    -0.273 OA
HETATM   11  C5  UNL     1      45.304  52.669  46.171  1.00  0.00     0.097 C 
HETATM   12  C11 UNL     1      46.227  53.792  45.799  1.00  0.00     0.136 C 
HETATM   13  N7  UNL     1      45.766  55.077  46.260  1.00  0.00    -0.358 N 
HETATM   14  C12 UNL     1      44.496  55.647  45.986  1.00  0.00     0.242 C 
ATOM     15  H7  UNL     1      46.408  55.624  46.833  1.00  0.00     0.162 HD
HETATM   16  O2  UNL     1      44.479  56.894  45.940  1.00  0.00    -0.271 OA
BRANCH  11  17
HETATM   17  C6  UNL     1      45.134  52.541  47.653  1.00  0.00     0.035 C 
BRANCH  17  18
HETATM   18  C7  UNL     1      45.543  51.168  48.150  1.00  0.00     0.123 C 
BRANCH  18  19
HETATM   19  N4  UNL     1      44.453  50.231  47.942  1.00  0.00    -0.362 N 
ATOM     20  H4  UNL     1      44.553  49.479  47.259  1.00  0.00     0.162 HD
BRANCH  19  21
HETATM   21  C8  UNL     1      43.241  50.357  48.689  1.00  0.00     0.171 C 
HETATM   22  N5  UNL     1      43.149  50.910  49.871  1.00  0.00    -0.361 N 
HETATM   23  C9  UNL     1      41.779  50.868  50.337  1.00  0.00     0.142 C 
ATOM     24  H5  UNL     1      43.930  51.312  50.390  1.00  0.00     0.162 HD
HETATM   25  C10 UNL     1      41.015  50.702  49.041  1.00  0.00     0.142 C 
HETATM   26  N6  UNL     1      41.961  49.913  48.275  1.00  0.00    -0.361 N 
ATOM     27  H6  UNL     1      41.749  49.192  47.586  1.00  0.00     0.162 HD
ENDBRANCH  19  21
ENDBRANCH  18  19
ENDBRANCH  17  18
ENDBRANCH  11  17
ENDBRANCH   5   6
ENDBRANCH   3   5
TORSDOF 6
ENDMDL
MODEL 3
REMARK VINA RESULT: -6.905903016      1.611      2.240
REMARK  6 active torsions:
REMARK  status: ('A' for Active; 'I' for Inactive)
REMARK    1  A    between atoms: N2_3  and  C2_5 
REMARK    2  A    between atoms: C2_5  and  C3_6 
REMARK    3  A    between atoms: C5_11  and  C6_12 
REMARK    4  A    between atoms: C6_12  and  C7_13 
REMARK    5  A    between atoms: C7_13  and  N4_14 
REMARK    6  A    between atoms: N4_14  and  C8_16 
ROOT
HETATM    1  N1  UNL     1      41.837  54.864  41.558  1.00  0.00    -0.172 NA
HETATM    2  C1  UNL     1      42.017  55.423  42.566  1.00  0.00     0.177 C 
HETATM    3  N2  UNL     1      42.207  56.109  43.754  1.00  0.00    -0.326 N 
ATOM      4  H2  UNL     1      41.447  56.724  44.045  1.00  0.00     0.171 HD
ENDROOT
BRANCH   3   5
HETATM    5  C2  UNL     1      43.345  56.056  44.620  1.00  0.00     0.166 C 
BRANCH   5   6
HETATM    6  C3  UNL     1      43.366  54.899  45.570  1.00  0.00     0.195 C 
HETATM    7  N3  UNL     1      43.907  53.731  44.976  1.00  0.00    -0.346 N 
HETATM    8  C4  UNL     1      43.937  52.436  45.638  1.00  0.00     0.224 C 
ATOM      9  H3  UNL     1      44.295  53.802  44.035  1.00  0.00     0.163 HD
HETATM   10  O1  UNL     1      43.830  51.435  44.888  1.00  0.00    -0.273 OA
HETATM   11  C5  UNL     1      44.079  52.167  47.071  1.00  0.00     0.097 C 
HETATM   12  C11 UNL     1      45.029  53.099  47.764  1.00  0.00     0.136 C 
HETATM   13  N7  UNL     1      44.504  54.433  47.911  1.00  0.00    -0.358 N 
HETATM   14  C12 UNL     1      44.018  55.251  46.858  1.00  0.00     0.242 C 
ATOM     15  H7  UNL     1      44.480  54.824  48.853  1.00  0.00     0.162 HD
HETATM   16  O2  UNL     1      44.159  56.478  47.039  1.00  0.00    -0.271 OA
BRANCH  11  17
HETATM   17  C6  UNL     1      42.783  52.024  47.809  1.00  0.00     0.035 C 
BRANCH  17  18
HETATM   18  C7  UNL     1      42.822  50.875  48.798  1.00  0.00     0.123 C 
BRANCH  18  19
HETATM   19  N4  UNL     1      41.937  51.163  49.913  1.00  0.00    -0.362 N 
ATOM     20  H4  UNL     1      40.969  51.434  49.736  1.00  0.00     0.162 HD
BRANCH  19  21
HETATM   21  C8  UNL     1      42.415  51.068  51.256  1.00  0.00     0.171 C 
HETATM   22  N5  UNL     1      42.729  52.090  52.010  1.00  0.00    -0.361 N 
HETATM   23  C9  UNL     1      43.178  51.635  53.309  1.00  0.00     0.142 C 
ATOM     24  H5  UNL     1      42.668  53.067  51.723  1.00  0.00     0.162 HD
HETATM   25  C10 UNL     1      42.570  50.250  53.379  1.00  0.00     0.142 C 
HETATM   26  N6  UNL     1      42.620  49.867  51.981  1.00  0.00    -0.361 N 
ATOM     27  H6  UNL     1      42.771  48.933  51.601  1.00  0.00     0.162 HD
ENDBRANCH  19  21
ENDBRANCH  18  19
ENDBRANCH  17  18
ENDBRANCH  11  17
ENDBRANCH   5   6
ENDBRANCH   3   5
TORSDOF 6
ENDMDL
MODEL 4
REMARK VINA RESULT: -6.797328777      1.681      2.272
REMARK  6 active torsions:
REMARK  status: ('A' for Active; 'I' for Inactive)
REMARK    1  A    between atoms: N2_3  and  C2_5 
REMARK    2  A    between atoms: C2_5  and  C3_6 
REMARK    3  A    between atoms: C5_11  and  C6_12 
REMARK    4  A    between atoms: C6_12  and  C7_13 
REMARK    5  A    between atoms: C7_13  and  N4_14 
REMARK    6  A    between atoms: N4_14  and  C8_16 
ROOT
HETATM    1  N1  UNL     1      41.750  54.816  41.546  1.00  0.00    -0.172 NA
HETATM    2  C1  UNL     1      42.051  55.447  42.480  1.00  0.00     0.177 C 
HETATM    3  N2  UNL     1      42.387  56.221  43.578  1.00  0.00    -0.326 N 
ATOM      4  H2  UNL     1      41.752  56.988  43.799  1.00  0.00     0.171 HD
ENDROOT
BRANCH   3   5
HETATM    5  C2  UNL     1      43.521  56.070  44.436  1.00  0.00     0.166 C 
BRANCH   5   6
HETATM    6  C3  UNL     1      43.426  54.948  45.422  1.00  0.00     0.195 C 
HETATM    7  N3  UNL     1      43.981  53.745  44.916  1.00  0.00    -0.346 N 
HETATM    8  C4  UNL     1      43.916  52.475  45.620  1.00  0.00     0.224 C 
ATOM      9  H3  UNL     1      44.451  53.773  44.010  1.00  0.00     0.163 HD
HETATM   10  O1  UNL     1      43.844  51.451  44.897  1.00  0.00    -0.273 OA
HETATM   11  C5  UNL     1      43.926  52.252  47.068  1.00  0.00     0.097 C 
HETATM   12  C11 UNL     1      44.840  53.183  47.811  1.00  0.00     0.136 C 
HETATM   13  N7  UNL     1      44.345  54.534  47.867  1.00  0.00    -0.358 N 
HETATM   14  C12 UNL     1      43.976  55.327  46.750  1.00  0.00     0.242 C 
ATOM     15  H7  UNL     1      44.252  54.958  48.790  1.00  0.00     0.162 HD
HETATM   16  O2  UNL     1      44.137  56.555  46.901  1.00  0.00    -0.271 OA
BRANCH  11  17
HETATM   17  C6  UNL     1      42.568  52.170  47.695  1.00  0.00     0.035 C 
BRANCH  17  18
HETATM   18  C7  UNL     1      42.316  50.810  48.316  1.00  0.00     0.123 C 
BRANCH  18  19
HETATM   19  N4  UNL     1      42.998  50.726  49.596  1.00  0.00    -0.362 N 
ATOM     20  H4  UNL     1      42.833  51.437  50.307  1.00  0.00     0.162 HD
BRANCH  19  21
HETATM   21  C8  UNL     1      43.901  49.649  49.862  1.00  0.00     0.171 C 
HETATM   22  N5  UNL     1      45.205  49.747  49.838  1.00  0.00    -0.361 N 
HETATM   23  C9  UNL     1      45.808  48.469  50.153  1.00  0.00     0.142 C 
ATOM     24  H5  UNL     1      45.723  50.600  49.627  1.00  0.00     0.162 HD
HETATM   25  C10 UNL     1      44.683  47.767  50.883  1.00  0.00     0.142 C 
HETATM   26  N6  UNL     1      43.533  48.322  50.195  1.00  0.00    -0.361 N 
ATOM     27  H6  UNL     1      42.649  47.856  49.993  1.00  0.00     0.162 HD
ENDBRANCH  19  21
ENDBRANCH  18  19
ENDBRANCH  17  18
ENDBRANCH  11  17
ENDBRANCH   5   6
ENDBRANCH   3   5
TORSDOF 6
ENDMDL
MODEL 5
REMARK VINA RESULT: -6.781679047      3.267      6.027
REMARK  6 active torsions:
REMARK  status: ('A' for Active; 'I' for Inactive)
REMARK    1  A    between atoms: N2_3  and  C2_5 
REMARK    2  A    between atoms: C2_5  and  C3_6 
REMARK    3  A    between atoms: C5_11  and  C6_12 
REMARK    4  A    between atoms: C6_12  and  C7_13 
REMARK    5  A    between atoms: C7_13  and  N4_14 
REMARK    6  A    between atoms: N4_14  and  C8_16 
ROOT
HETATM    1  N1  UNL     1      45.393  52.926  44.942  1.00  0.00    -0.172 NA
HETATM    2  C1  UNL     1      44.383  52.558  45.397  1.00  0.00     0.177 C 
HETATM    3  N2  UNL     1      43.169  52.127  45.906  1.00  0.00    -0.326 N 
ATOM      4  H2  UNL     1      42.475  51.825  45.222  1.00  0.00     0.171 HD
ENDROOT
BRANCH   3   5
HETATM    5  C2  UNL     1      42.776  52.055  47.280  1.00  0.00     0.166 C 
BRANCH   5   6
HETATM    6  C3  UNL     1      43.593  51.130  48.126  1.00  0.00     0.195 C 
HETATM    7  N3  UNL     1      44.389  51.831  49.067  1.00  0.00    -0.346 N 
HETATM    8  C4  UNL     1      45.362  51.184  49.933  1.00  0.00     0.224 C 
ATOM      9  H3  UNL     1      44.274  52.842  49.140  1.00  0.00     0.163 HD
HETATM   10  O1  UNL     1      46.376  51.865  50.223  1.00  0.00    -0.273 OA
HETATM   11  C5  UNL     1      45.295  49.837  50.505  1.00  0.00     0.097 C 
HETATM   12  C11 UNL     1      43.912  49.433  50.926  1.00  0.00     0.136 C 
HETATM   13  N7  UNL     1      43.037  49.170  49.812  1.00  0.00    -0.358 N 
HETATM   14  C12 UNL     1      42.762  50.066  48.748  1.00  0.00     0.242 C 
ATOM     15  H7  UNL     1      42.576  48.260  49.787  1.00  0.00     0.162 HD
HETATM   16  O2  UNL     1      41.628  49.946  48.240  1.00  0.00    -0.271 OA
BRANCH  11  17
HETATM   17  C6  UNL     1      45.971  48.779  49.688  1.00  0.00     0.035 C 
BRANCH  17  18
HETATM   18  C7  UNL     1      47.309  48.380  50.279  1.00  0.00     0.123 C 
BRANCH  18  19
HETATM   19  N4  UNL     1      48.253  48.112  49.209  1.00  0.00    -0.362 N 
ATOM     20  H4  UNL     1      48.553  47.155  49.024  1.00  0.00     0.162 HD
BRANCH  19  21
HETATM   21  C8  UNL     1      48.764  49.183  48.413  1.00  0.00     0.171 C 
HETATM   22  N5  UNL     1      49.173  49.063  47.176  1.00  0.00    -0.361 N 
HETATM   23  C9  UNL     1      49.628  50.342  46.673  1.00  0.00     0.142 C 
ATOM     24  H5  UNL     1      49.173  48.194  46.642  1.00  0.00     0.162 HD
HETATM   25  C10 UNL     1      48.926  51.308  47.603  1.00  0.00     0.142 C 
HETATM   26  N6  UNL     1      48.906  50.531  48.827  1.00  0.00    -0.361 N 
ATOM     27  H6  UNL     1      48.978  50.880  49.783  1.00  0.00     0.162 HD
ENDBRANCH  19  21
ENDBRANCH  18  19
ENDBRANCH  17  18
ENDBRANCH  11  17
ENDBRANCH   5   6
ENDBRANCH   3   5
TORSDOF 6
ENDMDL
