MODEL 1
REMARK VINA RESULT: -6.648263422      0.000      0.000
REMARK  18 active torsions:
REMARK  status: ('A' for Active; 'I' for Inactive)
REMARK    1  A    between atoms: O1_1  and  C1_3 
REMARK    2  A    between atoms: C1_3  and  C2_4 
REMARK    3  A    between atoms: C3_6  and  O3_7 
REMARK    4  A    between atoms: O3_7  and  C4_8 
REMARK    5  A    between atoms: C4_8  and  C5_9 
REMARK    6  A    between atoms: C5_9  and  C6_10 
REMARK    7  A    between atoms: C6_10  and  C7_11 
REMARK    8  A    between atoms: C7_11  and  C8_12 
REMARK    9  A    between atoms: C8_12  and  C9_13 
REMARK   10  A    between atoms: C9_13  and  C10_14 
REMARK   11  A    between atoms: C10_14  and  C11_15 
REMARK   12  A    between atoms: C11_15  and  C12_16 
REMARK   13  A    between atoms: C12_16  and  C13_17 
REMARK   14  A    between atoms: C13_17  and  N1_18 
REMARK   15  A    between atoms: N1_18  and  C14_19 
REMARK   16  A    between atoms: C19_24  and  O4_25 
REMARK   17  A    between atoms: C20_27  and  O5_28 
REMARK   18  A    between atoms: C21_30  and  O6_31 
ROOT
HETATM    1  O3  UNL     1      71.919  11.201  13.236  1.00  0.00    -0.359 OA
ENDROOT
BRANCH   1   2
HETATM    2  C3  UNL     1      71.488  10.204  12.399  1.00  0.00     0.291 C 
HETATM    3  O2  UNL     1      72.181   9.009  12.664  1.00  0.00    -0.348 OA
HETATM    4  C2  UNL     1      71.612   8.006  11.902  1.00  0.00     0.179 C 
HETATM    5  C21 UNL     1      72.070   8.191  10.474  1.00  0.00     0.180 C 
HETATM    6  C20 UNL     1      71.523   9.523  10.008  1.00  0.00     0.183 C 
HETATM    7  C19 UNL     1      71.844  10.616  10.974  1.00  0.00     0.204 C 
BRANCH   4   8
HETATM    8  C1  UNL     1      71.987   6.633  12.374  1.00  0.00     0.198 C 
BRANCH   8   9
HETATM    9  O1  UNL     1      73.162   6.721  13.123  1.00  0.00    -0.398 OA
ATOM     10  H1  UNL     1      73.050   6.226  13.927  1.00  0.00     0.209 HD
ENDBRANCH   8   9
ENDBRANCH   4   8
BRANCH   5  11
HETATM   11  O6  UNL     1      73.435   8.193  10.325  1.00  0.00    -0.390 OA
ATOM     12  H6  UNL     1      73.757   7.524   9.733  1.00  0.00     0.210 HD
ENDBRANCH   5  11
BRANCH   6  13
HETATM   13  O5  UNL     1      70.150   9.403   9.749  1.00  0.00    -0.390 OA
ATOM     14  H5  UNL     1      69.940   8.668   9.185  1.00  0.00     0.210 HD
ENDBRANCH   6  13
BRANCH   7  15
HETATM   15  O4  UNL     1      73.175  10.962  10.868  1.00  0.00    -0.388 OA
ATOM     16  H4  UNL     1      73.582  10.550  10.115  1.00  0.00     0.210 HD
ENDBRANCH   7  15
ENDBRANCH   1   2
BRANCH   1  17
HETATM   17  C4  UNL     1      71.131  12.322  13.294  1.00  0.00     0.171 C 
BRANCH  17  18
HETATM   18  C5  UNL     1      69.752  12.029  13.833  1.00  0.00     0.026 C 
BRANCH  18  19
HETATM   19  C6  UNL     1      69.025  13.268  14.259  1.00  0.00     0.002 C 
BRANCH  19  20
HETATM   20  C7  UNL     1      69.676  13.940  15.463  1.00  0.00     0.000 C 
BRANCH  20  21
HETATM   21  C8  UNL     1      68.651  14.334  16.484  1.00  0.00     0.000 C 
BRANCH  21  22
HETATM   22  C9  UNL     1      69.299  14.915  17.734  1.00  0.00     0.000 C 
BRANCH  22  23
HETATM   23  C10 UNL     1      68.275  15.274  18.741  1.00  0.00     0.000 C 
BRANCH  23  24
HETATM   24  C11 UNL     1      67.780  16.665  18.749  1.00  0.00     0.006 C 
BRANCH  24  25
HETATM   25  C12 UNL     1      68.740  17.694  18.296  1.00  0.00     0.059 C 
BRANCH  25  26
HETATM   26  C13 UNL     1      68.516  18.405  17.076  1.00  0.00     0.154 C 
BRANCH  26  27
HETATM   27  N1  UNL     1      67.546  18.067  16.341  1.00  0.00    -0.431 NA
BRANCH  27  28
HETATM   28  C14 UNL     1      66.694  17.616  15.554  1.00  0.00     0.061 C 
HETATM   29  C15 UNL     1      65.275  17.655  15.804  1.00  0.00     0.068 C 
HETATM   30  C16 UNL     1      64.686  17.250  14.467  1.00  0.00     0.007 C 
HETATM   31  C17 UNL     1      65.783  17.280  13.456  1.00  0.00     0.007 C 
HETATM   32  C18 UNL     1      67.038  17.003  14.292  1.00  0.00     0.068 C 
ENDBRANCH  27  28
ENDBRANCH  26  27
ENDBRANCH  25  26
ENDBRANCH  24  25
ENDBRANCH  23  24
ENDBRANCH  22  23
ENDBRANCH  21  22
ENDBRANCH  20  21
ENDBRANCH  19  20
ENDBRANCH  18  19
ENDBRANCH  17  18
ENDBRANCH   1  17
TORSDOF 18
ENDMDL
MODEL 2
REMARK VINA RESULT: -6.235743182      7.727     13.483
REMARK  18 active torsions:
REMARK  status: ('A' for Active; 'I' for Inactive)
REMARK    1  A    between atoms: O1_1  and  C1_3 
REMARK    2  A    between atoms: C1_3  and  C2_4 
REMARK    3  A    between atoms: C3_6  and  O3_7 
REMARK    4  A    between atoms: O3_7  and  C4_8 
REMARK    5  A    between atoms: C4_8  and  C5_9 
REMARK    6  A    between atoms: C5_9  and  C6_10 
REMARK    7  A    between atoms: C6_10  and  C7_11 
REMARK    8  A    between atoms: C7_11  and  C8_12 
REMARK    9  A    between atoms: C8_12  and  C9_13 
REMARK   10  A    between atoms: C9_13  and  C10_14 
REMARK   11  A    between atoms: C10_14  and  C11_15 
REMARK   12  A    between atoms: C11_15  and  C12_16 
REMARK   13  A    between atoms: C12_16  and  C13_17 
REMARK   14  A    between atoms: C13_17  and  N1_18 
REMARK   15  A    between atoms: N1_18  and  C14_19 
REMARK   16  A    between atoms: C19_24  and  O4_25 
REMARK   17  A    between atoms: C20_27  and  O5_28 
REMARK   18  A    between atoms: C21_30  and  O6_31 
ROOT
HETATM    1  O3  UNL     1      73.394   8.288   8.793  1.00  0.00    -0.359 OA
ENDROOT
BRANCH   1   2
HETATM    2  C3  UNL     1      73.127   8.268  10.138  1.00  0.00     0.291 C 
HETATM    3  O2  UNL     1      72.686   6.990  10.529  1.00  0.00    -0.348 OA
HETATM    4  C2  UNL     1      72.572   6.980  11.907  1.00  0.00     0.179 C 
HETATM    5  C21 UNL     1      71.322   7.746  12.275  1.00  0.00     0.180 C 
HETATM    6  C20 UNL     1      71.532   9.172  11.817  1.00  0.00     0.183 C 
HETATM    7  C19 UNL     1      71.972   9.231  10.391  1.00  0.00     0.204 C 
BRANCH   4   8
HETATM    8  C1  UNL     1      72.496   5.594  12.474  1.00  0.00     0.198 C 
BRANCH   8   9
HETATM    9  O1  UNL     1      73.278   5.539  13.630  1.00  0.00    -0.398 OA
ATOM     10  H1  UNL     1      72.703   5.512  14.386  1.00  0.00     0.209 HD
ENDBRANCH   8   9
ENDBRANCH   4   8
BRANCH   5  11
HETATM   11  O6  UNL     1      70.179   7.254  11.694  1.00  0.00    -0.390 OA
ATOM     12  H6  UNL     1      70.274   7.054  10.771  1.00  0.00     0.210 HD
ENDBRANCH   5  11
BRANCH   6  13
HETATM   13  O5  UNL     1      72.413   9.823  12.692  1.00  0.00    -0.390 OA
ATOM     14  H5  UNL     1      72.378   9.482  13.578  1.00  0.00     0.210 HD
ENDBRANCH   6  13
BRANCH   7  15
HETATM   15  O4  UNL     1      70.905   8.968   9.557  1.00  0.00    -0.388 OA
ATOM     16  H4  UNL     1      70.191   8.553  10.028  1.00  0.00     0.210 HD
ENDBRANCH   7  15
ENDBRANCH   1   2
BRANCH   1  17
HETATM   17  C4  UNL     1      74.714   8.419   8.443  1.00  0.00     0.171 C 
BRANCH  17  18
HETATM   18  C5  UNL     1      75.170   7.331   7.502  1.00  0.00     0.026 C 
BRANCH  18  19
HETATM   19  C6  UNL     1      74.169   7.042   6.425  1.00  0.00     0.002 C 
BRANCH  19  20
HETATM   20  C7  UNL     1      74.511   5.784   5.635  1.00  0.00     0.000 C 
BRANCH  20  21
HETATM   21  C8  UNL     1      75.789   5.168   6.123  1.00  0.00     0.000 C 
BRANCH  21  22
HETATM   22  C9  UNL     1      76.041   3.812   5.475  1.00  0.00     0.000 C 
BRANCH  22  23
HETATM   23  C10 UNL     1      77.477   3.637   5.161  1.00  0.00     0.000 C 
BRANCH  23  24
HETATM   24  C11 UNL     1      77.860   3.536   3.738  1.00  0.00     0.006 C 
BRANCH  24  25
HETATM   25  C12 UNL     1      76.756   3.661   2.763  1.00  0.00     0.059 C 
BRANCH  25  26
HETATM   26  C13 UNL     1      76.684   4.792   1.891  1.00  0.00     0.154 C 
BRANCH  26  27
HETATM   27  N1  UNL     1      76.661   5.950   2.394  1.00  0.00    -0.431 NA
BRANCH  27  28
HETATM   28  C14 UNL     1      76.762   7.038   2.991  1.00  0.00     0.061 C 
HETATM   29  C15 UNL     1      75.728   8.042   3.003  1.00  0.00     0.068 C 
HETATM   30  C16 UNL     1      76.215   9.014   4.059  1.00  0.00     0.007 C 
HETATM   31  C17 UNL     1      77.346   8.369   4.789  1.00  0.00     0.007 C 
HETATM   32  C18 UNL     1      77.935   7.412   3.745  1.00  0.00     0.068 C 
ENDBRANCH  27  28
ENDBRANCH  26  27
ENDBRANCH  25  26
ENDBRANCH  24  25
ENDBRANCH  23  24
ENDBRANCH  22  23
ENDBRANCH  21  22
ENDBRANCH  20  21
ENDBRANCH  19  20
ENDBRANCH  18  19
ENDBRANCH  17  18
ENDBRANCH   1  17
TORSDOF 18
ENDMDL
MODEL 3
REMARK VINA RESULT: -6.225792956      5.037     10.025
REMARK  18 active torsions:
REMARK  status: ('A' for Active; 'I' for Inactive)
REMARK    1  A    between atoms: O1_1  and  C1_3 
REMARK    2  A    between atoms: C1_3  and  C2_4 
REMARK    3  A    between atoms: C3_6  and  O3_7 
REMARK    4  A    between atoms: O3_7  and  C4_8 
REMARK    5  A    between atoms: C4_8  and  C5_9 
REMARK    6  A    between atoms: C5_9  and  C6_10 
REMARK    7  A    between atoms: C6_10  and  C7_11 
REMARK    8  A    between atoms: C7_11  and  C8_12 
REMARK    9  A    between atoms: C8_12  and  C9_13 
REMARK   10  A    between atoms: C9_13  and  C10_14 
REMARK   11  A    between atoms: C10_14  and  C11_15 
REMARK   12  A    between atoms: C11_15  and  C12_16 
REMARK   13  A    between atoms: C12_16  and  C13_17 
REMARK   14  A    between atoms: C13_17  and  N1_18 
REMARK   15  A    between atoms: N1_18  and  C14_19 
REMARK   16  A    between atoms: C19_24  and  O4_25 
REMARK   17  A    between atoms: C20_27  and  O5_28 
REMARK   18  A    between atoms: C21_30  and  O6_31 
ROOT
HETATM    1  O3  UNL     1      73.922  11.619  10.889  1.00  0.00    -0.359 OA
ENDROOT
BRANCH   1   2
HETATM    2  C3  UNL     1      72.570  11.525  11.100  1.00  0.00     0.291 C 
HETATM    3  O2  UNL     1      72.065  12.746  11.583  1.00  0.00    -0.348 OA
HETATM    4  C2  UNL     1      70.687  12.648  11.640  1.00  0.00     0.179 C 
HETATM    5  C21 UNL     1      70.331  11.795  12.835  1.00  0.00     0.180 C 
HETATM    6  C20 UNL     1      70.905  10.419  12.578  1.00  0.00     0.183 C 
HETATM    7  C19 UNL     1      72.348  10.489  12.196  1.00  0.00     0.204 C 
BRANCH   4   8
HETATM    8  C1  UNL     1      70.013  13.982  11.757  1.00  0.00     0.198 C 
BRANCH   8   9
HETATM    9  O1  UNL     1      70.768  14.793  12.607  1.00  0.00    -0.398 OA
ATOM     10  H1  UNL     1      71.470  15.191  12.105  1.00  0.00     0.209 HD
ENDBRANCH   8   9
ENDBRANCH   4   8
BRANCH   5  11
HETATM   11  O6  UNL     1      70.829  12.270  14.024  1.00  0.00    -0.390 OA
ATOM     12  H6  UNL     1      70.191  12.742  14.545  1.00  0.00     0.210 HD
ENDBRANCH   5  11
BRANCH   6  13
HETATM   13  O5  UNL     1      70.117   9.750  11.631  1.00  0.00    -0.390 OA
ATOM     14  H5  UNL     1      69.303   9.418  11.991  1.00  0.00     0.210 HD
ENDBRANCH   6  13
BRANCH   7  15
HETATM   15  O4  UNL     1      73.117  10.760  13.309  1.00  0.00    -0.388 OA
ATOM     16  H4  UNL     1      74.041  10.627  13.133  1.00  0.00     0.210 HD
ENDBRANCH   7  15
ENDBRANCH   1   2
BRANCH   1  17
HETATM   17  C4  UNL     1      74.321  12.518   9.933  1.00  0.00     0.171 C 
BRANCH  17  18
HETATM   18  C5  UNL     1      75.823  12.645   9.854  1.00  0.00     0.026 C 
BRANCH  18  19
HETATM   19  C6  UNL     1      76.415  11.817   8.755  1.00  0.00     0.002 C 
BRANCH  19  20
HETATM   20  C7  UNL     1      75.382  11.417   7.707  1.00  0.00     0.000 C 
BRANCH  20  21
HETATM   21  C8  UNL     1      75.972  10.483   6.692  1.00  0.00     0.000 C 
BRANCH  21  22
HETATM   22  C9  UNL     1      76.117   9.071   7.246  1.00  0.00     0.000 C 
BRANCH  22  23
HETATM   23  C10 UNL     1      75.012   8.205   6.776  1.00  0.00     0.000 C 
BRANCH  23  24
HETATM   24  C11 UNL     1      74.196   7.520   7.798  1.00  0.00     0.006 C 
BRANCH  24  25
HETATM   25  C12 UNL     1      73.749   8.356   8.932  1.00  0.00     0.059 C 
BRANCH  25  26
HETATM   26  C13 UNL     1      72.390   8.310   9.375  1.00  0.00     0.154 C 
BRANCH  26  27
HETATM   27  N1  UNL     1      72.053   7.435  10.221  1.00  0.00    -0.431 NA
BRANCH  27  28
HETATM   28  C14 UNL     1      71.863   6.613  11.136  1.00  0.00     0.061 C 
HETATM   29  C15 UNL     1      70.971   5.487  11.027  1.00  0.00     0.068 C 
HETATM   30  C16 UNL     1      71.302   4.674  12.263  1.00  0.00     0.007 C 
HETATM   31  C17 UNL     1      72.553   5.230  12.856  1.00  0.00     0.007 C 
HETATM   32  C18 UNL     1      72.525   6.699  12.417  1.00  0.00     0.068 C 
ENDBRANCH  27  28
ENDBRANCH  26  27
ENDBRANCH  25  26
ENDBRANCH  24  25
ENDBRANCH  23  24
ENDBRANCH  22  23
ENDBRANCH  21  22
ENDBRANCH  20  21
ENDBRANCH  19  20
ENDBRANCH  18  19
ENDBRANCH  17  18
ENDBRANCH   1  17
TORSDOF 18
ENDMDL
MODEL 4
REMARK VINA RESULT: -6.216067785      2.883      4.052
REMARK  18 active torsions:
REMARK  status: ('A' for Active; 'I' for Inactive)
REMARK    1  A    between atoms: O1_1  and  C1_3 
REMARK    2  A    between atoms: C1_3  and  C2_4 
REMARK    3  A    between atoms: C3_6  and  O3_7 
REMARK    4  A    between atoms: O3_7  and  C4_8 
REMARK    5  A    between atoms: C4_8  and  C5_9 
REMARK    6  A    between atoms: C5_9  and  C6_10 
REMARK    7  A    between atoms: C6_10  and  C7_11 
REMARK    8  A    between atoms: C7_11  and  C8_12 
REMARK    9  A    between atoms: C8_12  and  C9_13 
REMARK   10  A    between atoms: C9_13  and  C10_14 
REMARK   11  A    between atoms: C10_14  and  C11_15 
REMARK   12  A    between atoms: C11_15  and  C12_16 
REMARK   13  A    between atoms: C12_16  and  C13_17 
REMARK   14  A    between atoms: C13_17  and  N1_18 
REMARK   15  A    between atoms: N1_18  and  C14_19 
REMARK   16  A    between atoms: C19_24  and  O4_25 
REMARK   17  A    between atoms: C20_27  and  O5_28 
REMARK   18  A    between atoms: C21_30  and  O6_31 
ROOT
HETATM    1  O3  UNL     1      71.637  11.179  13.377  1.00  0.00    -0.359 OA
ENDROOT
BRANCH   1   2
HETATM    2  C3  UNL     1      71.307  10.190  12.488  1.00  0.00     0.291 C 
HETATM    3  O2  UNL     1      72.057   9.028  12.749  1.00  0.00    -0.348 OA
HETATM    4  C2  UNL     1      71.586   8.020  11.927  1.00  0.00     0.179 C 
HETATM    5  C21 UNL     1      72.101   8.282  10.531  1.00  0.00     0.180 C 
HETATM    6  C20 UNL     1      71.499   9.595  10.081  1.00  0.00     0.183 C 
HETATM    7  C19 UNL     1      71.707  10.671  11.097  1.00  0.00     0.204 C 
BRANCH   4   8
HETATM    8  C1  UNL     1      72.019   6.656  12.374  1.00  0.00     0.198 C 
BRANCH   8   9
HETATM    9  O1  UNL     1      73.191   6.780  13.124  1.00  0.00    -0.398 OA
ATOM     10  H1  UNL     1      73.934   6.773  12.532  1.00  0.00     0.209 HD
ENDBRANCH   8   9
ENDBRANCH   4   8
BRANCH   5  11
HETATM   11  O6  UNL     1      73.469   8.369  10.451  1.00  0.00    -0.390 OA
ATOM     12  H6  UNL     1      73.895   7.543  10.253  1.00  0.00     0.210 HD
ENDBRANCH   5  11
BRANCH   6  13
HETATM   13  O5  UNL     1      70.150   9.405   9.749  1.00  0.00    -0.390 OA
ATOM     14  H5  UNL     1      69.898   8.489   9.723  1.00  0.00     0.210 HD
ENDBRANCH   6  13
BRANCH   7  15
HETATM   15  O4  UNL     1      73.019  11.097  11.069  1.00  0.00    -0.388 OA
ATOM     16  H4  UNL     1      73.077  12.044  11.111  1.00  0.00     0.210 HD
ENDBRANCH   7  15
ENDBRANCH   1   2
BRANCH   1  17
HETATM   17  C4  UNL     1      70.843  12.298  13.356  1.00  0.00     0.171 C 
BRANCH  17  18
HETATM   18  C5  UNL     1      69.452  12.025  13.874  1.00  0.00     0.026 C 
BRANCH  18  19
HETATM   19  C6  UNL     1      68.887  13.180  14.643  1.00  0.00     0.002 C 
BRANCH  19  20
HETATM   20  C7  UNL     1      69.965  14.152  15.109  1.00  0.00     0.000 C 
BRANCH  20  21
HETATM   21  C8  UNL     1      69.658  15.554  14.674  1.00  0.00     0.000 C 
BRANCH  21  22
HETATM   22  C9  UNL     1      70.914  16.415  14.624  1.00  0.00     0.000 C 
BRANCH  22  23
HETATM   23  C10 UNL     1      72.126  15.589  14.820  1.00  0.00     0.000 C 
BRANCH  23  24
HETATM   24  C11 UNL     1      73.234  15.759  13.859  1.00  0.00     0.006 C 
BRANCH  24  25
HETATM   25  C12 UNL     1      73.542  14.585  13.016  1.00  0.00     0.059 C 
BRANCH  25  26
HETATM   26  C13 UNL     1      73.223  14.591  11.622  1.00  0.00     0.154 C 
BRANCH  26  27
HETATM   27  N1  UNL     1      72.125  15.092  11.249  1.00  0.00    -0.431 NA
BRANCH  27  28
HETATM   28  C14 UNL     1      71.049  15.674  11.024  1.00  0.00     0.061 C 
HETATM   29  C15 UNL     1      69.775  15.004  10.960  1.00  0.00     0.068 C 
HETATM   30  C16 UNL     1      68.789  16.155  10.941  1.00  0.00     0.007 C 
HETATM   31  C17 UNL     1      69.534  17.402  11.283  1.00  0.00     0.007 C 
HETATM   32  C18 UNL     1      70.959  17.100  10.805  1.00  0.00     0.068 C 
ENDBRANCH  27  28
ENDBRANCH  26  27
ENDBRANCH  25  26
ENDBRANCH  24  25
ENDBRANCH  23  24
ENDBRANCH  22  23
ENDBRANCH  21  22
ENDBRANCH  20  21
ENDBRANCH  19  20
ENDBRANCH  18  19
ENDBRANCH  17  18
ENDBRANCH   1  17
TORSDOF 18
ENDMDL
MODEL 5
REMARK VINA RESULT: -6.216013583      1.767      2.684
REMARK  18 active torsions:
REMARK  status: ('A' for Active; 'I' for Inactive)
REMARK    1  A    between atoms: O1_1  and  C1_3 
REMARK    2  A    between atoms: C1_3  and  C2_4 
REMARK    3  A    between atoms: C3_6  and  O3_7 
REMARK    4  A    between atoms: O3_7  and  C4_8 
REMARK    5  A    between atoms: C4_8  and  C5_9 
REMARK    6  A    between atoms: C5_9  and  C6_10 
REMARK    7  A    between atoms: C6_10  and  C7_11 
REMARK    8  A    between atoms: C7_11  and  C8_12 
REMARK    9  A    between atoms: C8_12  and  C9_13 
REMARK   10  A    between atoms: C9_13  and  C10_14 
REMARK   11  A    between atoms: C10_14  and  C11_15 
REMARK   12  A    between atoms: C11_15  and  C12_16 
REMARK   13  A    between atoms: C12_16  and  C13_17 
REMARK   14  A    between atoms: C13_17  and  N1_18 
REMARK   15  A    between atoms: N1_18  and  C14_19 
REMARK   16  A    between atoms: C19_24  and  O4_25 
REMARK   17  A    between atoms: C20_27  and  O5_28 
REMARK   18  A    between atoms: C21_30  and  O6_31 
ROOT
HETATM    1  O3  UNL     1      71.346  11.318  13.479  1.00  0.00    -0.359 OA
ENDROOT
BRANCH   1   2
HETATM    2  C3  UNL     1      71.040  10.505  12.419  1.00  0.00     0.291 C 
HETATM    3  O2  UNL     1      71.567   9.217  12.624  1.00  0.00    -0.348 OA
HETATM    4  C2  UNL     1      71.110   8.400  11.605  1.00  0.00     0.179 C 
HETATM    5  C21 UNL     1      71.888   8.739  10.355  1.00  0.00     0.180 C 
HETATM    6  C20 UNL     1      71.559  10.175  10.010  1.00  0.00     0.183 C 
HETATM    7  C19 UNL     1      71.736  11.077  11.188  1.00  0.00     0.204 C 
BRANCH   4   8
HETATM    8  C1  UNL     1      71.267   6.942  11.914  1.00  0.00     0.198 C 
BRANCH   8   9
HETATM    9  O1  UNL     1      70.016   6.416  12.244  1.00  0.00    -0.398 OA
ATOM     10  H1  UNL     1      69.700   6.850  13.028  1.00  0.00     0.209 HD
ENDBRANCH   8   9
ENDBRANCH   4   8
BRANCH   5  11
HETATM   11  O6  UNL     1      73.248   8.616  10.497  1.00  0.00    -0.390 OA
ATOM     12  H6  UNL     1      73.642   7.995   9.896  1.00  0.00     0.210 HD
ENDBRANCH   5  11
BRANCH   6  13
HETATM   13  O5  UNL     1      70.274  10.242   9.453  1.00  0.00    -0.390 OA
ATOM     14  H5  UNL     1      69.725   9.506   9.693  1.00  0.00     0.210 HD
ENDBRANCH   6  13
BRANCH   7  15
HETATM   15  O4  UNL     1      73.079  11.289  11.420  1.00  0.00    -0.388 OA
ATOM     16  H4  UNL     1      73.262  12.206  11.586  1.00  0.00     0.210 HD
ENDBRANCH   7  15
ENDBRANCH   1   2
BRANCH   1  17
HETATM   17  C4  UNL     1      70.675  12.514  13.535  1.00  0.00     0.171 C 
BRANCH  17  18
HETATM   18  C5  UNL     1      69.296  12.372  14.131  1.00  0.00     0.026 C 
BRANCH  18  19
HETATM   19  C6  UNL     1      68.936  13.516  15.029  1.00  0.00     0.002 C 
BRANCH  19  20
HETATM   20  C7  UNL     1      70.163  14.192  15.631  1.00  0.00     0.000 C 
BRANCH  20  21
HETATM   21  C8  UNL     1      69.807  15.508  16.256  1.00  0.00     0.000 C 
BRANCH  21  22
HETATM   22  C9  UNL     1      70.136  16.675  15.333  1.00  0.00     0.000 C 
BRANCH  22  23
HETATM   23  C10 UNL     1      71.074  16.256  14.267  1.00  0.00     0.000 C 
BRANCH  23  24
HETATM   24  C11 UNL     1      70.743  16.632  12.878  1.00  0.00     0.006 C 
BRANCH  24  25
HETATM   25  C12 UNL     1      69.498  16.052  12.331  1.00  0.00     0.059 C 
BRANCH  25  26
HETATM   26  C13 UNL     1      68.458  16.902  11.841  1.00  0.00     0.154 C 
BRANCH  26  27
HETATM   27  N1  UNL     1      67.583  17.323  12.648  1.00  0.00    -0.431 NA
BRANCH  27  28
HETATM   28  C14 UNL     1      66.719  17.582  13.506  1.00  0.00     0.061 C 
HETATM   29  C15 UNL     1      65.306  17.387  13.302  1.00  0.00     0.068 C 
HETATM   30  C16 UNL     1      64.735  17.581  14.693  1.00  0.00     0.007 C 
HETATM   31  C17 UNL     1      65.873  17.593  15.658  1.00  0.00     0.007 C 
HETATM   32  C18 UNL     1      67.044  18.108  14.811  1.00  0.00     0.068 C 
ENDBRANCH  27  28
ENDBRANCH  26  27
ENDBRANCH  25  26
ENDBRANCH  24  25
ENDBRANCH  23  24
ENDBRANCH  22  23
ENDBRANCH  21  22
ENDBRANCH  20  21
ENDBRANCH  19  20
ENDBRANCH  18  19
ENDBRANCH  17  18
ENDBRANCH   1  17
TORSDOF 18
ENDMDL
