MODEL 1
REMARK VINA RESULT: -6.617734849      0.000      0.000
REMARK  5 active torsions:
REMARK  status: ('A' for Active; 'I' for Inactive)
REMARK    1  A    between atoms: O1_1  and  C1_3 
REMARK    2  A    between atoms: N1_6  and  C4_7 
REMARK    3  A    between atoms: C5_9  and  C6_10 
REMARK    4  A    between atoms: C7_12  and  O3_13 
REMARK    5  A    between atoms: C8_15  and  O4_16 
ROOT
HETATM    1  C4  UNL     1      74.522  58.583  36.351  1.00  0.00     0.259 C 
HETATM    2  O2  UNL     1      75.327  57.581  36.890  1.00  0.00    -0.355 OA
HETATM    3  C5  UNL     1      76.264  58.255  37.662  1.00  0.00     0.165 C 
HETATM    4  C7  UNL     1      75.621  59.514  38.177  1.00  0.00     0.180 C 
HETATM    5  C8  UNL     1      74.195  59.361  37.634  1.00  0.00     0.198 C 
ENDROOT
BRANCH   1   6
HETATM    6  N1  UNL     1      73.340  58.078  35.736  1.00  0.00    -0.335 N 
HETATM    7  C3  UNL     1      72.406  58.814  35.137  1.00  0.00     0.096 A 
HETATM    8  C2  UNL     1      71.393  57.982  34.649  1.00  0.00     0.055 A 
HETATM    9  C1  UNL     1      71.789  56.702  35.000  1.00  0.00     0.082 A 
HETATM   10  C9  UNL     1      73.002  56.780  35.674  1.00  0.00     0.129 A 
BRANCH   9  11
HETATM   11  O1  UNL     1      71.088  55.538  34.721  1.00  0.00    -0.359 OA
ATOM     12  H1  UNL     1      71.211  54.991  33.955  1.00  0.00     0.217 HD
ENDBRANCH   9  11
ENDBRANCH   1   6
BRANCH   5  13
HETATM   13  O4  UNL     1      73.521  58.544  38.507  1.00  0.00    -0.388 OA
ATOM     14  H4  UNL     1      72.599  58.770  38.504  1.00  0.00     0.210 HD
ENDBRANCH   5  13
BRANCH   3  15
HETATM   15  C6  UNL     1      77.461  58.543  36.780  1.00  0.00     0.120 C 
HETATM   16  S1  UNL     1      77.616  57.190  35.580  1.00  0.00    -0.095 SA
ENDBRANCH   3  15
BRANCH   4  17
HETATM   17  O3  UNL     1      75.636  59.606  39.556  1.00  0.00    -0.390 OA
ATOM     18  H3  UNL     1      75.995  60.427  39.872  1.00  0.00     0.210 HD
ENDBRANCH   4  17
TORSDOF 5
ENDMDL
MODEL 2
REMARK VINA RESULT: -6.568875281      1.907      2.341
REMARK  5 active torsions:
REMARK  status: ('A' for Active; 'I' for Inactive)
REMARK    1  A    between atoms: O1_1  and  C1_3 
REMARK    2  A    between atoms: N1_6  and  C4_7 
REMARK    3  A    between atoms: C5_9  and  C6_10 
REMARK    4  A    between atoms: C7_12  and  O3_13 
REMARK    5  A    between atoms: C8_15  and  O4_16 
ROOT
HETATM    1  C4  UNL     1      74.723  57.898  35.469  1.00  0.00     0.259 C 
HETATM    2  O2  UNL     1      75.530  57.369  36.474  1.00  0.00    -0.355 OA
HETATM    3  C5  UNL     1      75.588  58.363  37.442  1.00  0.00     0.165 C 
HETATM    4  C7  UNL     1      74.299  59.137  37.390  1.00  0.00     0.180 C 
HETATM    5  C8  UNL     1      73.529  58.357  36.318  1.00  0.00     0.198 C 
ENDROOT
BRANCH   1   6
HETATM    6  N1  UNL     1      74.329  56.927  34.502  1.00  0.00    -0.335 N 
HETATM    7  C3  UNL     1      74.822  55.695  34.398  1.00  0.00     0.096 A 
HETATM    8  C2  UNL     1      74.199  55.027  33.337  1.00  0.00     0.055 A 
HETATM    9  C1  UNL     1      73.305  55.948  32.818  1.00  0.00     0.082 A 
HETATM   10  C9  UNL     1      73.398  57.124  33.554  1.00  0.00     0.129 A 
BRANCH   9  11
HETATM   11  O1  UNL     1      72.458  55.729  31.742  1.00  0.00    -0.359 OA
ATOM     12  H1  UNL     1      71.797  56.335  31.428  1.00  0.00     0.217 HD
ENDBRANCH   9  11
ENDBRANCH   1   6
BRANCH   5  13
HETATM   13  O4  UNL     1      72.965  57.272  36.941  1.00  0.00    -0.388 OA
ATOM     14  H4  UNL     1      72.044  57.219  36.715  1.00  0.00     0.210 HD
ENDBRANCH   5  13
BRANCH   3  15
HETATM   15  C6  UNL     1      76.790  59.232  37.133  1.00  0.00     0.120 C 
HETATM   16  S1  UNL     1      78.166  58.144  36.666  1.00  0.00    -0.095 SA
ENDBRANCH   3  15
BRANCH   4  17
HETATM   17  O3  UNL     1      73.624  59.150  38.596  1.00  0.00    -0.390 OA
ATOM     18  H3  UNL     1      73.305  60.012  38.837  1.00  0.00     0.210 HD
ENDBRANCH   4  17
TORSDOF 5
ENDMDL
MODEL 3
REMARK VINA RESULT: -6.454526156      2.248      5.272
REMARK  5 active torsions:
REMARK  status: ('A' for Active; 'I' for Inactive)
REMARK    1  A    between atoms: O1_1  and  C1_3 
REMARK    2  A    between atoms: N1_6  and  C4_7 
REMARK    3  A    between atoms: C5_9  and  C6_10 
REMARK    4  A    between atoms: C7_12  and  O3_13 
REMARK    5  A    between atoms: C8_15  and  O4_16 
ROOT
HETATM    1  C4  UNL     1      73.717  57.696  35.623  1.00  0.00     0.259 C 
HETATM    2  O2  UNL     1      72.501  57.381  36.227  1.00  0.00    -0.355 OA
HETATM    3  C5  UNL     1      71.799  56.672  35.261  1.00  0.00     0.165 C 
HETATM    4  C7  UNL     1      72.797  55.942  34.404  1.00  0.00     0.180 C 
HETATM    5  C8  UNL     1      74.111  56.305  35.107  1.00  0.00     0.198 C 
ENDROOT
BRANCH   1   6
HETATM    6  N1  UNL     1      74.682  58.200  36.543  1.00  0.00    -0.335 N 
HETATM    7  C3  UNL     1      75.981  58.354  36.292  1.00  0.00     0.096 A 
HETATM    8  C2  UNL     1      76.619  58.873  37.424  1.00  0.00     0.055 A 
HETATM    9  C1  UNL     1      75.611  59.015  38.363  1.00  0.00     0.082 A 
HETATM   10  C9  UNL     1      74.413  58.593  37.798  1.00  0.00     0.129 A 
BRANCH   9  11
HETATM   11  O1  UNL     1      75.775  59.500  39.652  1.00  0.00    -0.359 OA
ATOM     12  H1  UNL     1      76.308  59.099  40.328  1.00  0.00     0.217 HD
ENDBRANCH   9  11
ENDBRANCH   1   6
BRANCH   5  13
HETATM   13  O4  UNL     1      74.247  55.444  36.167  1.00  0.00    -0.388 OA
ATOM     14  H4  UNL     1      73.571  54.778  36.124  1.00  0.00     0.210 HD
ENDBRANCH   5  13
BRANCH   3  15
HETATM   15  C6  UNL     1      70.982  57.669  34.466  1.00  0.00     0.120 C 
HETATM   16  S1  UNL     1      71.413  57.479  32.713  1.00  0.00    -0.095 SA
ENDBRANCH   3  15
BRANCH   4  17
HETATM   17  O3  UNL     1      72.593  54.576  34.375  1.00  0.00    -0.390 OA
ATOM     18  H3  UNL     1      72.441  54.239  33.500  1.00  0.00     0.210 HD
ENDBRANCH   4  17
TORSDOF 5
ENDMDL
MODEL 4
REMARK VINA RESULT: -6.392097152      2.513      5.353
REMARK  5 active torsions:
REMARK  status: ('A' for Active; 'I' for Inactive)
REMARK    1  A    between atoms: O1_1  and  C1_3 
REMARK    2  A    between atoms: N1_6  and  C4_7 
REMARK    3  A    between atoms: C5_9  and  C6_10 
REMARK    4  A    between atoms: C7_12  and  O3_13 
REMARK    5  A    between atoms: C8_15  and  O4_16 
ROOT
HETATM    1  C4  UNL     1      73.639  57.733  35.542  1.00  0.00     0.259 C 
HETATM    2  O2  UNL     1      72.425  58.406  35.663  1.00  0.00    -0.355 OA
HETATM    3  C5  UNL     1      71.606  57.838  34.697  1.00  0.00     0.165 C 
HETATM    4  C7  UNL     1      72.030  56.406  34.513  1.00  0.00     0.180 C 
HETATM    5  C8  UNL     1      73.129  56.285  35.575  1.00  0.00     0.198 C 
ENDROOT
BRANCH   1   6
HETATM    6  N1  UNL     1      74.531  57.993  36.622  1.00  0.00    -0.335 N 
HETATM    7  C3  UNL     1      75.715  57.411  36.804  1.00  0.00     0.096 A 
HETATM    8  C2  UNL     1      76.312  57.912  37.967  1.00  0.00     0.055 A 
HETATM    9  C1  UNL     1      75.401  58.830  38.463  1.00  0.00     0.082 A 
HETATM   10  C9  UNL     1      74.300  58.868  37.614  1.00  0.00     0.129 A 
BRANCH   9  11
HETATM   11  O1  UNL     1      75.565  59.584  39.615  1.00  0.00    -0.359 OA
ATOM     12  H1  UNL     1      75.909  59.262  40.440  1.00  0.00     0.217 HD
ENDBRANCH   9  11
ENDBRANCH   1   6
BRANCH   5  13
HETATM   13  O4  UNL     1      72.502  56.046  36.772  1.00  0.00    -0.388 OA
ATOM     14  H4  UNL     1      73.036  56.382  37.482  1.00  0.00     0.210 HD
ENDBRANCH   5  13
BRANCH   3  15
HETATM   15  C6  UNL     1      71.765  58.649  33.428  1.00  0.00     0.120 C 
HETATM   16  S1  UNL     1      70.131  58.812  32.655  1.00  0.00    -0.095 SA
ENDBRANCH   3  15
BRANCH   4  17
HETATM   17  O3  UNL     1      71.006  55.503  34.731  1.00  0.00    -0.390 OA
ATOM     18  H3  UNL     1      70.878  54.901  34.007  1.00  0.00     0.210 HD
ENDBRANCH   4  17
TORSDOF 5
ENDMDL
MODEL 5
REMARK VINA RESULT: -6.349899011      0.862      1.278
REMARK  5 active torsions:
REMARK  status: ('A' for Active; 'I' for Inactive)
REMARK    1  A    between atoms: O1_1  and  C1_3 
REMARK    2  A    between atoms: N1_6  and  C4_7 
REMARK    3  A    between atoms: C5_9  and  C6_10 
REMARK    4  A    between atoms: C7_12  and  O3_13 
REMARK    5  A    between atoms: C8_15  and  O4_16 
ROOT
HETATM    1  C4  UNL     1      74.463  58.640  36.277  1.00  0.00     0.259 C 
HETATM    2  O2  UNL     1      75.210  57.606  36.839  1.00  0.00    -0.355 OA
HETATM    3  C5  UNL     1      76.181  58.243  37.599  1.00  0.00     0.165 C 
HETATM    4  C7  UNL     1      75.608  59.546  38.087  1.00  0.00     0.180 C 
HETATM    5  C8  UNL     1      74.177  59.462  37.542  1.00  0.00     0.198 C 
ENDROOT
BRANCH   1   6
HETATM    6  N1  UNL     1      73.256  58.189  35.669  1.00  0.00    -0.335 N 
HETATM    7  C3  UNL     1      72.811  56.934  35.671  1.00  0.00     0.096 A 
HETATM    8  C2  UNL     1      71.596  56.865  34.980  1.00  0.00     0.055 A 
HETATM    9  C1  UNL     1      71.351  58.164  34.567  1.00  0.00     0.082 A 
HETATM   10  C9  UNL     1      72.392  58.974  35.004  1.00  0.00     0.129 A 
BRANCH   9  11
HETATM   11  O1  UNL     1      70.247  58.582  33.838  1.00  0.00    -0.359 OA
ATOM     12  H1  UNL     1      69.964  59.483  33.736  1.00  0.00     0.217 HD
ENDBRANCH   9  11
ENDBRANCH   1   6
BRANCH   5  13
HETATM   13  O4  UNL     1      73.457  58.702  38.430  1.00  0.00    -0.388 OA
ATOM     14  H4  UNL     1      73.910  58.674  39.264  1.00  0.00     0.210 HD
ENDBRANCH   5  13
BRANCH   3  15
HETATM   15  C6  UNL     1      77.394  58.446  36.715  1.00  0.00     0.120 C 
HETATM   16  S1  UNL     1      77.497  57.042  35.570  1.00  0.00    -0.095 SA
ENDBRANCH   3  15
BRANCH   4  17
HETATM   17  O3  UNL     1      75.625  59.666  39.464  1.00  0.00    -0.390 OA
ATOM     18  H3  UNL     1      75.583  60.568  39.761  1.00  0.00     0.210 HD
ENDBRANCH   4  17
TORSDOF 5
ENDMDL
