MODEL 1
REMARK VINA RESULT: -7.257923050      0.000      0.000
REMARK  6 active torsions:
REMARK  status: ('A' for Active; 'I' for Inactive)
REMARK    1  A    between atoms: O1_1  and  C1_3 
REMARK    2  A    between atoms: N1_6  and  N2_7 
REMARK    3  A    between atoms: C4_9  and  C5_10 
REMARK    4  A    between atoms: C6_12  and  O3_13 
REMARK    5  A    between atoms: C7_15  and  O4_16 
REMARK    6  A    between atoms: C8_18  and  O5_19 
ROOT
HETATM    1  C5  UNL     1      72.490  55.420  35.214  1.00  0.00     0.196 C 
HETATM    2  O2  UNL     1      71.375  55.972  34.570  1.00  0.00    -0.346 OA
HETATM    3  C6  UNL     1      71.907  56.785  33.565  1.00  0.00     0.289 C 
HETATM    4  C7  UNL     1      73.114  56.023  33.031  1.00  0.00     0.204 C 
HETATM    5  C8  UNL     1      73.333  54.948  34.075  1.00  0.00     0.185 C 
ENDROOT
BRANCH   1   6
HETATM    6  C4  UNL     1      73.202  56.455  35.971  1.00  0.00     0.115 C 
HETATM    7  N2  UNL     1      74.472  56.361  36.144  1.00  0.00    -0.307 N 
ATOM      8  H2  UNL     1      74.962  55.560  35.746  1.00  0.00     0.186 HD
BRANCH   7   9
HETATM    9  N1  UNL     1      75.205  57.307  36.850  1.00  0.00    -0.277 N 
HETATM   10  C3  UNL     1      76.464  57.737  36.607  1.00  0.00     0.118 A 
HETATM   11  C2  UNL     1      76.789  58.675  37.552  1.00  0.00     0.057 A 
HETATM   12  C1  UNL     1      75.694  58.816  38.391  1.00  0.00     0.084 A 
HETATM   13  C9  UNL     1      74.720  57.954  37.933  1.00  0.00     0.152 A 
BRANCH  12  14
HETATM   14  O1  UNL     1      75.599  59.670  39.488  1.00  0.00    -0.359 OA
ATOM     15  H1  UNL     1      75.185  60.525  39.501  1.00  0.00     0.217 HD
ENDBRANCH  12  14
ENDBRANCH   7   9
ENDBRANCH   1   6
BRANCH   5  16
HETATM   16  O5  UNL     1      73.008  53.693  33.610  1.00  0.00    -0.390 OA
ATOM     17  H5  UNL     1      73.741  53.089  33.570  1.00  0.00     0.210 HD
ENDBRANCH   5  16
BRANCH   3  18
HETATM   18  O3  UNL     1      70.969  56.984  32.556  1.00  0.00    -0.368 OA
ATOM     19  H3  UNL     1      71.309  57.583  31.902  1.00  0.00     0.212 HD
ENDBRANCH   3  18
BRANCH   4  20
HETATM   20  O4  UNL     1      72.837  55.447  31.791  1.00  0.00    -0.388 OA
ATOM     21  H4  UNL     1      73.402  55.803  31.115  1.00  0.00     0.210 HD
ENDBRANCH   4  20
TORSDOF 6
ENDMDL
MODEL 2
REMARK VINA RESULT: -7.013216325      2.104      6.090
REMARK  6 active torsions:
REMARK  status: ('A' for Active; 'I' for Inactive)
REMARK    1  A    between atoms: O1_1  and  C1_3 
REMARK    2  A    between atoms: N1_6  and  N2_7 
REMARK    3  A    between atoms: C4_9  and  C5_10 
REMARK    4  A    between atoms: C6_12  and  O3_13 
REMARK    5  A    between atoms: C7_15  and  O4_16 
REMARK    6  A    between atoms: C8_18  and  O5_19 
ROOT
HETATM    1  C5  UNL     1      75.688  58.319  36.307  1.00  0.00     0.196 C 
HETATM    2  O2  UNL     1      75.071  59.577  36.356  1.00  0.00    -0.346 OA
HETATM    3  C6  UNL     1      74.286  59.547  37.513  1.00  0.00     0.289 C 
HETATM    4  C7  UNL     1      75.112  58.780  38.537  1.00  0.00     0.204 C 
HETATM    5  C8  UNL     1      76.201  58.145  37.698  1.00  0.00     0.185 C 
ENDROOT
BRANCH   1   6
HETATM    6  C4  UNL     1      74.697  57.282  36.004  1.00  0.00     0.115 C 
HETATM    7  N2  UNL     1      74.958  56.051  36.267  1.00  0.00    -0.307 N 
ATOM      8  H2  UNL     1      75.859  55.822  36.685  1.00  0.00     0.186 HD
BRANCH   7   9
HETATM    9  N1  UNL     1      74.063  55.021  36.005  1.00  0.00    -0.277 N 
HETATM   10  C3  UNL     1      73.347  54.293  36.892  1.00  0.00     0.118 A 
HETATM   11  C2  UNL     1      72.594  53.384  36.194  1.00  0.00     0.057 A 
HETATM   12  C1  UNL     1      72.862  53.569  34.846  1.00  0.00     0.084 A 
HETATM   13  C9  UNL     1      73.779  54.594  34.754  1.00  0.00     0.152 A 
BRANCH  12  14
HETATM   14  O1  UNL     1      72.306  52.853  33.789  1.00  0.00    -0.359 OA
ATOM     15  H1  UNL     1      71.781  52.064  33.858  1.00  0.00     0.217 HD
ENDBRANCH  12  14
ENDBRANCH   7   9
ENDBRANCH   1   6
BRANCH   5  16
HETATM   16  O5  UNL     1      77.434  58.715  37.923  1.00  0.00    -0.390 OA
ATOM     17  H5  UNL     1      78.105  58.457  37.302  1.00  0.00     0.210 HD
ENDBRANCH   5  16
BRANCH   3  18
HETATM   18  O3  UNL     1      74.031  60.841  37.959  1.00  0.00    -0.368 OA
ATOM     19  H3  UNL     1      73.120  60.929  38.211  1.00  0.00     0.212 HD
ENDBRANCH   3  18
BRANCH   4  20
HETATM   20  O4  UNL     1      75.667  59.642  39.483  1.00  0.00    -0.388 OA
ATOM     21  H4  UNL     1      76.610  59.703  39.380  1.00  0.00     0.210 HD
ENDBRANCH   4  20
TORSDOF 6
ENDMDL
MODEL 3
REMARK VINA RESULT: -6.883901859      1.306      1.782
REMARK  6 active torsions:
REMARK  status: ('A' for Active; 'I' for Inactive)
REMARK    1  A    between atoms: O1_1  and  C1_3 
REMARK    2  A    between atoms: N1_6  and  N2_7 
REMARK    3  A    between atoms: C4_9  and  C5_10 
REMARK    4  A    between atoms: C6_12  and  O3_13 
REMARK    5  A    between atoms: C7_15  and  O4_16 
REMARK    6  A    between atoms: C8_18  and  O5_19 
ROOT
HETATM    1  C5  UNL     1      71.518  56.342  34.947  1.00  0.00     0.196 C 
HETATM    2  O2  UNL     1      71.419  56.412  33.550  1.00  0.00    -0.346 OA
HETATM    3  C6  UNL     1      72.709  56.138  33.085  1.00  0.00     0.289 C 
HETATM    4  C7  UNL     1      73.247  55.056  34.013  1.00  0.00     0.204 C 
HETATM    5  C8  UNL     1      72.264  55.068  35.165  1.00  0.00     0.185 C 
ENDROOT
BRANCH   1   6
HETATM    6  C4  UNL     1      72.298  57.475  35.456  1.00  0.00     0.115 C 
HETATM    7  N2  UNL     1      72.998  57.340  36.525  1.00  0.00    -0.307 N 
ATOM      8  H2  UNL     1      72.995  56.438  37.001  1.00  0.00     0.186 HD
BRANCH   7   9
HETATM    9  N1  UNL     1      73.759  58.373  37.059  1.00  0.00    -0.277 N 
HETATM   10  C3  UNL     1      73.915  59.627  36.578  1.00  0.00     0.118 A 
HETATM   11  C2  UNL     1      74.752  60.311  37.422  1.00  0.00     0.057 A 
HETATM   12  C1  UNL     1      75.112  59.444  38.443  1.00  0.00     0.084 A 
HETATM   13  C9  UNL     1      74.481  58.244  38.195  1.00  0.00     0.152 A 
BRANCH  12  14
HETATM   14  O1  UNL     1      75.952  59.735  39.515  1.00  0.00    -0.359 OA
ATOM     15  H1  UNL     1      75.767  59.580  40.434  1.00  0.00     0.217 HD
ENDBRANCH  12  14
ENDBRANCH   7   9
ENDBRANCH   1   6
BRANCH   5  16
HETATM   16  O5  UNL     1      71.471  53.942  35.188  1.00  0.00    -0.390 OA
ATOM     17  H5  UNL     1      71.932  53.144  35.418  1.00  0.00     0.210 HD
ENDBRANCH   5  16
BRANCH   3  18
HETATM   18  O3  UNL     1      72.661  55.678  31.772  1.00  0.00    -0.368 OA
ATOM     19  H3  UNL     1      72.080  56.221  31.253  1.00  0.00     0.212 HD
ENDBRANCH   3  18
BRANCH   4  20
HETATM   20  O4  UNL     1      73.245  53.810  33.385  1.00  0.00    -0.388 OA
ATOM     21  H4  UNL     1      72.452  53.682  32.878  1.00  0.00     0.210 HD
ENDBRANCH   4  20
TORSDOF 6
ENDMDL
MODEL 4
REMARK VINA RESULT: -6.883062371      0.749      1.231
REMARK  6 active torsions:
REMARK  status: ('A' for Active; 'I' for Inactive)
REMARK    1  A    between atoms: O1_1  and  C1_3 
REMARK    2  A    between atoms: N1_6  and  N2_7 
REMARK    3  A    between atoms: C4_9  and  C5_10 
REMARK    4  A    between atoms: C6_12  and  O3_13 
REMARK    5  A    between atoms: C7_15  and  O4_16 
REMARK    6  A    between atoms: C8_18  and  O5_19 
ROOT
HETATM    1  C5  UNL     1      71.872  55.907  35.337  1.00  0.00     0.196 C 
HETATM    2  O2  UNL     1      71.615  56.219  33.995  1.00  0.00    -0.346 OA
HETATM    3  C6  UNL     1      72.808  55.935  33.325  1.00  0.00     0.289 C 
HETATM    4  C7  UNL     1      73.349  54.675  33.989  1.00  0.00     0.204 C 
HETATM    5  C8  UNL     1      72.516  54.563  35.248  1.00  0.00     0.185 C 
ENDROOT
BRANCH   1   6
HETATM    6  C4  UNL     1      72.810  56.877  35.911  1.00  0.00     0.115 C 
HETATM    7  N2  UNL     1      73.810  56.465  36.606  1.00  0.00    -0.307 N 
ATOM      8  H2  UNL     1      73.929  55.462  36.743  1.00  0.00     0.186 HD
BRANCH   7   9
HETATM    9  N1  UNL     1      74.734  57.332  37.177  1.00  0.00    -0.277 N 
HETATM   10  C3  UNL     1      76.039  57.487  36.856  1.00  0.00     0.118 A 
HETATM   11  C2  UNL     1      76.571  58.450  37.674  1.00  0.00     0.057 A 
HETATM   12  C1  UNL     1      75.558  58.889  38.514  1.00  0.00     0.084 A 
HETATM   13  C9  UNL     1      74.424  58.178  38.184  1.00  0.00     0.152 A 
BRANCH  12  14
HETATM   14  O1  UNL     1      75.670  59.865  39.501  1.00  0.00    -0.359 OA
ATOM     15  H1  UNL     1      75.393  59.785  40.406  1.00  0.00     0.217 HD
ENDBRANCH  12  14
ENDBRANCH   7   9
ENDBRANCH   1   6
BRANCH   5  16
HETATM   16  O5  UNL     1      71.629  53.511  35.197  1.00  0.00    -0.390 OA
ATOM     17  H5  UNL     1      71.862  52.833  34.573  1.00  0.00     0.210 HD
ENDBRANCH   5  16
BRANCH   3  18
HETATM   18  O3  UNL     1      72.562  55.709  31.973  1.00  0.00    -0.368 OA
ATOM     19  H3  UNL     1      71.944  56.348  31.640  1.00  0.00     0.212 HD
ENDBRANCH   3  18
BRANCH   4  20
HETATM   20  O4  UNL     1      73.156  53.557  33.178  1.00  0.00    -0.388 OA
ATOM     21  H4  UNL     1      72.748  52.848  33.662  1.00  0.00     0.210 HD
ENDBRANCH   4  20
TORSDOF 6
ENDMDL
MODEL 5
REMARK VINA RESULT: -6.672068237      2.199      6.285
REMARK  6 active torsions:
REMARK  status: ('A' for Active; 'I' for Inactive)
REMARK    1  A    between atoms: O1_1  and  C1_3 
REMARK    2  A    between atoms: N1_6  and  N2_7 
REMARK    3  A    between atoms: C4_9  and  C5_10 
REMARK    4  A    between atoms: C6_12  and  O3_13 
REMARK    5  A    between atoms: C7_15  and  O4_16 
REMARK    6  A    between atoms: C8_18  and  O5_19 
ROOT
HETATM    1  C5  UNL     1      73.274  59.373  37.130  1.00  0.00     0.196 C 
HETATM    2  O2  UNL     1      73.733  59.162  38.437  1.00  0.00    -0.346 OA
HETATM    3  C6  UNL     1      75.117  59.345  38.366  1.00  0.00     0.289 C 
HETATM    4  C7  UNL     1      75.318  60.500  37.393  1.00  0.00     0.204 C 
HETATM    5  C8  UNL     1      73.961  60.639  36.737  1.00  0.00     0.185 C 
ENDROOT
BRANCH   1   6
HETATM    6  C4  UNL     1      73.707  58.276  36.258  1.00  0.00     0.115 C 
HETATM    7  N2  UNL     1      72.866  57.370  35.906  1.00  0.00    -0.307 N 
ATOM      8  H2  UNL     1      71.906  57.435  36.244  1.00  0.00     0.186 HD
BRANCH   7   9
HETATM    9  N1  UNL     1      73.212  56.305  35.083  1.00  0.00    -0.277 N 
HETATM   10  C3  UNL     1      74.230  56.235  34.195  1.00  0.00     0.118 A 
HETATM   11  C2  UNL     1      74.199  54.999  33.601  1.00  0.00     0.057 A 
HETATM   12  C1  UNL     1      73.130  54.302  34.147  1.00  0.00     0.084 A 
HETATM   13  C9  UNL     1      72.532  55.136  35.066  1.00  0.00     0.152 A 
BRANCH  12  14
HETATM   14  O1  UNL     1      72.741  53.005  33.824  1.00  0.00    -0.359 OA
ATOM     15  H1  UNL     1      72.014  52.524  34.204  1.00  0.00     0.217 HD
ENDBRANCH  12  14
ENDBRANCH   7   9
ENDBRANCH   1   6
BRANCH   5  16
HETATM   16  O5  UNL     1      73.306  61.786  37.127  1.00  0.00    -0.390 OA
ATOM     17  H5  UNL     1      72.705  61.665  37.854  1.00  0.00     0.210 HD
ENDBRANCH   5  16
BRANCH   3  18
HETATM   18  O3  UNL     1      75.628  59.667  39.620  1.00  0.00    -0.368 OA
ATOM     19  H3  UNL     1      76.390  59.134  39.813  1.00  0.00     0.212 HD
ENDBRANCH   3  18
BRANCH   4  20
HETATM   20  O4  UNL     1      75.654  61.674  38.069  1.00  0.00    -0.388 OA
ATOM     21  H4  UNL     1      75.927  62.352  37.462  1.00  0.00     0.210 HD
ENDBRANCH   4  20
TORSDOF 6
ENDMDL
