MODEL 1
REMARK VINA RESULT: -7.457629015      0.000      0.000
REMARK  9 active torsions:
REMARK  status: ('A' for Active; 'I' for Inactive)
REMARK    1  A    between atoms: C4_4  and  C5_5 
REMARK    2  A    between atoms: C5_5  and  C6_6 
REMARK    3  A    between atoms: C6_6  and  C7_7 
REMARK    4  A    between atoms: C9_9  and  C10_10 
REMARK    5  A    between atoms: C10_10  and  C11_11 
REMARK    6  A    between atoms: C12_12  and  O1_13 
REMARK    7  A    between atoms: C13_15  and  O2_16 
REMARK    8  A    between atoms: C14_18  and  C15_19 
REMARK    9  A    between atoms: C15_19  and  N1_20 
ROOT
HETATM    1  C11 UNL     1      27.963  46.706  48.100  1.00  0.00     0.032 C 
HETATM    2  C12 UNL     1      29.364  46.703  48.206  1.00  0.00     0.110 C 
HETATM    3  C13 UNL     1      30.280  47.509  47.517  1.00  0.00     0.113 C 
HETATM    4  C14 UNL     1      29.956  48.506  46.571  1.00  0.00     0.038 C 
HETATM    5  C18 UNL     1      28.855  48.480  45.759  1.00  0.00     0.062 A 
HETATM    6  N2  UNL     1      29.151  49.004  44.564  1.00  0.00    -0.333 N 
ATOM      7  H2  UNL     1      30.090  49.357  44.373  1.00  0.00     0.168 HD
HETATM    8  C19 UNL     1      28.197  49.060  43.617  1.00  0.00     0.171 A 
HETATM    9  C20 UNL     1      26.902  48.584  43.855  1.00  0.00     0.082 A 
HETATM   10  C21 UNL     1      26.583  48.041  45.081  1.00  0.00     0.051 A 
HETATM   11  C22 UNL     1      27.568  47.991  46.033  1.00  0.00     0.045 A 
HETATM   12  C23 UNL     1      27.152  47.395  47.219  1.00  0.00     0.193 C 
HETATM   13  O3  UNL     1      25.933  47.526  47.453  1.00  0.00    -0.287 OA
HETATM   14  N3  UNL     1      26.104  48.764  42.693  1.00  0.00    -0.365 N 
ATOM     15  H3  UNL     1      25.116  48.531  42.588  1.00  0.00     0.162 HD
HETATM   16  C24 UNL     1      26.982  49.352  41.673  1.00  0.00     0.300 A 
HETATM   17  O4  UNL     1      28.209  49.537  42.312  1.00  0.00    -0.314 OA
ENDROOT
BRANCH   1  18
HETATM   18  C10 UNL     1      27.274  45.835  49.074  1.00  0.00     0.073 C 
BRANCH  18  19
HETATM   19  C9  UNL     1      26.934  44.491  48.510  1.00  0.00    -0.019 C 
HETATM   20  C7  UNL     1      25.698  43.979  48.569  1.00  0.00    -0.087 C 
HETATM   21  C8  UNL     1      24.591  44.734  49.207  1.00  0.00     0.043 C 
BRANCH  20  22
HETATM   22  C6  UNL     1      25.458  42.653  47.987  1.00  0.00     0.037 C 
BRANCH  22  23
HETATM   23  C5  UNL     1      24.668  42.811  46.710  1.00  0.00     0.031 C 
BRANCH  23  24
HETATM   24  C4  UNL     1      25.664  43.147  45.626  1.00  0.00    -0.024 C 
HETATM   25  C2  UNL     1      25.540  44.270  44.935  1.00  0.00    -0.091 C 
HETATM   26  C1  UNL     1      24.400  45.205  45.240  1.00  0.00     0.042 C 
HETATM   27  C3  UNL     1      26.534  44.568  43.881  1.00  0.00     0.042 C 
ENDBRANCH  23  24
ENDBRANCH  22  23
ENDBRANCH  20  22
ENDBRANCH  18  19
ENDBRANCH   1  18
BRANCH   2  28
HETATM   28  O1  UNL     1      29.815  45.778  49.110  1.00  0.00    -0.357 OA
ATOM     29  H1  UNL     1      30.756  45.658  49.064  1.00  0.00     0.217 HD
ENDBRANCH   2  28
BRANCH   3  30
HETATM   30  O2  UNL     1      31.597  47.329  47.770  1.00  0.00    -0.357 OA
ATOM     31  H2  UNL     1      31.870  47.245  48.676  1.00  0.00     0.217 HD
ENDBRANCH   3  30
BRANCH   4  32
HETATM   32  C15 UNL     1      30.909  49.572  46.476  1.00  0.00     0.075 C 
BRANCH  32  33
HETATM   33  N1  UNL     1      31.505  50.141  47.614  1.00  0.00    -0.300 NA
HETATM   34  C16 UNL     1      32.868  50.635  47.345  1.00  0.00     0.115 C 
HETATM   35  C17 UNL     1      30.742  51.301  48.036  1.00  0.00     0.115 C 
ENDBRANCH  32  33
ENDBRANCH   4  32
TORSDOF 9
ENDMDL
MODEL 2
REMARK VINA RESULT: -7.094172902      1.584      1.684
REMARK  9 active torsions:
REMARK  status: ('A' for Active; 'I' for Inactive)
REMARK    1  A    between atoms: C4_4  and  C5_5 
REMARK    2  A    between atoms: C5_5  and  C6_6 
REMARK    3  A    between atoms: C6_6  and  C7_7 
REMARK    4  A    between atoms: C9_9  and  C10_10 
REMARK    5  A    between atoms: C10_10  and  C11_11 
REMARK    6  A    between atoms: C12_12  and  O1_13 
REMARK    7  A    between atoms: C13_15  and  O2_16 
REMARK    8  A    between atoms: C14_18  and  C15_19 
REMARK    9  A    between atoms: C15_19  and  N1_20 
ROOT
HETATM    1  C11 UNL     1      28.224  46.514  47.813  1.00  0.00     0.032 C 
HETATM    2  C12 UNL     1      29.579  46.485  47.447  1.00  0.00     0.110 C 
HETATM    3  C13 UNL     1      30.368  47.545  46.982  1.00  0.00     0.113 C 
HETATM    4  C14 UNL     1      29.936  48.877  46.799  1.00  0.00     0.038 C 
HETATM    5  C18 UNL     1      28.657  49.245  46.479  1.00  0.00     0.062 A 
HETATM    6  N2  UNL     1      28.673  50.305  45.665  1.00  0.00    -0.333 N 
ATOM      7  H2  UNL     1      29.558  50.724  45.378  1.00  0.00     0.168 HD
HETATM    8  C19 UNL     1      27.506  50.814  45.228  1.00  0.00     0.171 A 
HETATM    9  C20 UNL     1      26.278  50.258  45.607  1.00  0.00     0.082 A 
HETATM   10  C21 UNL     1      26.248  49.164  46.446  1.00  0.00     0.051 A 
HETATM   11  C22 UNL     1      27.446  48.659  46.880  1.00  0.00     0.045 A 
HETATM   12  C23 UNL     1      27.304  47.538  47.690  1.00  0.00     0.193 C 
HETATM   13  O3  UNL     1      26.237  47.509  48.336  1.00  0.00    -0.287 OA
HETATM   14  N3  UNL     1      25.216  50.986  45.005  1.00  0.00    -0.365 N 
ATOM     15  H3  UNL     1      24.217  50.819  45.125  1.00  0.00     0.162 HD
HETATM   16  C24 UNL     1      25.841  52.025  44.177  1.00  0.00     0.300 A 
HETATM   17  O4  UNL     1      27.213  51.886  44.393  1.00  0.00    -0.314 OA
ENDROOT
BRANCH   1  18
HETATM   18  C10 UNL     1      27.722  45.257  48.406  1.00  0.00     0.073 C 
BRANCH  18  19
HETATM   19  C9  UNL     1      27.199  44.301  47.380  1.00  0.00    -0.019 C 
HETATM   20  C7  UNL     1      25.938  43.851  47.396  1.00  0.00    -0.087 C 
HETATM   21  C8  UNL     1      24.987  44.285  48.450  1.00  0.00     0.043 C 
BRANCH  20  22
HETATM   22  C6  UNL     1      25.512  42.915  46.348  1.00  0.00     0.037 C 
BRANCH  22  23
HETATM   23  C5  UNL     1      24.678  43.660  45.333  1.00  0.00     0.031 C 
BRANCH  23  24
HETATM   24  C4  UNL     1      25.633  44.512  44.531  1.00  0.00    -0.024 C 
HETATM   25  C2  UNL     1      25.466  45.825  44.475  1.00  0.00    -0.091 C 
HETATM   26  C1  UNL     1      24.318  46.457  45.216  1.00  0.00     0.042 C 
HETATM   27  C3  UNL     1      26.421  46.628  43.682  1.00  0.00     0.042 C 
ENDBRANCH  23  24
ENDBRANCH  22  23
ENDBRANCH  20  22
ENDBRANCH  18  19
ENDBRANCH   1  18
BRANCH   2  28
HETATM   28  O1  UNL     1      30.130  45.238  47.591  1.00  0.00    -0.357 OA
ATOM     29  H1  UNL     1      30.492  45.102  48.459  1.00  0.00     0.217 HD
ENDBRANCH   2  28
BRANCH   3  30
HETATM   30  O2  UNL     1      31.661  47.287  46.677  1.00  0.00    -0.357 OA
ATOM     31  H2  UNL     1      32.328  47.565  47.294  1.00  0.00     0.217 HD
ENDBRANCH   3  30
BRANCH   4  32
HETATM   32  C15 UNL     1      30.968  49.863  46.930  1.00  0.00     0.075 C 
BRANCH  32  33
HETATM   33  N1  UNL     1      31.514  50.206  48.179  1.00  0.00    -0.300 NA
HETATM   34  C16 UNL     1      32.986  50.121  48.189  1.00  0.00     0.115 C 
HETATM   35  C17 UNL     1      31.198  51.588  48.487  1.00  0.00     0.115 C 
ENDBRANCH  32  33
ENDBRANCH   4  32
TORSDOF 9
ENDMDL
MODEL 3
REMARK VINA RESULT: -6.864085040      1.309      2.534
REMARK  9 active torsions:
REMARK  status: ('A' for Active; 'I' for Inactive)
REMARK    1  A    between atoms: C4_4  and  C5_5 
REMARK    2  A    between atoms: C5_5  and  C6_6 
REMARK    3  A    between atoms: C6_6  and  C7_7 
REMARK    4  A    between atoms: C9_9  and  C10_10 
REMARK    5  A    between atoms: C10_10  and  C11_11 
REMARK    6  A    between atoms: C12_12  and  O1_13 
REMARK    7  A    between atoms: C13_15  and  O2_16 
REMARK    8  A    between atoms: C14_18  and  C15_19 
REMARK    9  A    between atoms: C15_19  and  N1_20 
ROOT
HETATM    1  C11 UNL     1      27.928  46.454  48.058  1.00  0.00     0.032 C 
HETATM    2  C12 UNL     1      29.327  46.473  48.176  1.00  0.00     0.110 C 
HETATM    3  C13 UNL     1      30.235  47.321  47.528  1.00  0.00     0.113 C 
HETATM    4  C14 UNL     1      29.900  48.348  46.619  1.00  0.00     0.038 C 
HETATM    5  C18 UNL     1      28.806  48.336  45.797  1.00  0.00     0.062 A 
HETATM    6  N2  UNL     1      29.102  48.912  44.627  1.00  0.00    -0.333 N 
ATOM      7  H2  UNL     1      30.036  49.288  44.458  1.00  0.00     0.168 HD
HETATM    8  C19 UNL     1      28.155  48.988  43.674  1.00  0.00     0.171 A 
HETATM    9  C20 UNL     1      26.867  48.480  43.882  1.00  0.00     0.082 A 
HETATM   10  C21 UNL     1      26.548  47.883  45.083  1.00  0.00     0.051 A 
HETATM   11  C22 UNL     1      27.526  47.813  46.041  1.00  0.00     0.045 A 
HETATM   12  C23 UNL     1      27.111  47.164  47.198  1.00  0.00     0.193 C 
HETATM   13  O3  UNL     1      25.889  47.263  47.427  1.00  0.00    -0.287 OA
HETATM   14  N3  UNL     1      26.075  48.692  42.721  1.00  0.00    -0.365 N 
ATOM     15  H3  UNL     1      25.092  48.446  42.598  1.00  0.00     0.162 HD
HETATM   16  C24 UNL     1      26.950  49.335  41.732  1.00  0.00     0.300 A 
HETATM   17  O4  UNL     1      28.168  49.517  42.389  1.00  0.00    -0.314 OA
ENDROOT
BRANCH   1  18
HETATM   18  C10 UNL     1      27.247  45.533  48.991  1.00  0.00     0.073 C 
BRANCH  18  19
HETATM   19  C9  UNL     1      26.720  44.308  48.313  1.00  0.00    -0.019 C 
HETATM   20  C7  UNL     1      25.442  43.921  48.421  1.00  0.00    -0.087 C 
HETATM   21  C8  UNL     1      24.476  44.703  49.231  1.00  0.00     0.043 C 
BRANCH  20  22
HETATM   22  C6  UNL     1      25.015  42.705  47.719  1.00  0.00     0.037 C 
BRANCH  22  23
HETATM   23  C5  UNL     1      25.668  41.507  48.367  1.00  0.00     0.031 C 
BRANCH  23  24
HETATM   24  C4  UNL     1      24.994  41.321  49.706  1.00  0.00    -0.024 C 
HETATM   25  C2  UNL     1      24.165  40.305  49.897  1.00  0.00    -0.091 C 
HETATM   26  C1  UNL     1      23.903  39.342  48.770  1.00  0.00     0.042 C 
HETATM   27  C3  UNL     1      23.524  40.152  51.220  1.00  0.00     0.042 C 
ENDBRANCH  23  24
ENDBRANCH  22  23
ENDBRANCH  20  22
ENDBRANCH  18  19
ENDBRANCH   1  18
BRANCH   2  28
HETATM   28  O1  UNL     1      29.788  45.521  49.047  1.00  0.00    -0.357 OA
ATOM     29  H1  UNL     1      29.484  44.649  48.822  1.00  0.00     0.217 HD
ENDBRANCH   2  28
BRANCH   3  30
HETATM   30  O2  UNL     1      31.553  47.155  47.785  1.00  0.00    -0.357 OA
ATOM     31  H2  UNL     1      31.962  46.344  47.505  1.00  0.00     0.217 HD
ENDBRANCH   3  30
BRANCH   4  32
HETATM   32  C15 UNL     1      30.834  49.434  46.574  1.00  0.00     0.075 C 
BRANCH  32  33
HETATM   33  N1  UNL     1      31.348  50.023  47.742  1.00  0.00    -0.300 NA
HETATM   34  C16 UNL     1      32.738  50.484  47.573  1.00  0.00     0.115 C 
HETATM   35  C17 UNL     1      30.578  51.207  48.072  1.00  0.00     0.115 C 
ENDBRANCH  32  33
ENDBRANCH   4  32
TORSDOF 9
ENDMDL
MODEL 4
REMARK VINA RESULT: -6.800600557      1.542      4.298
REMARK  9 active torsions:
REMARK  status: ('A' for Active; 'I' for Inactive)
REMARK    1  A    between atoms: C4_4  and  C5_5 
REMARK    2  A    between atoms: C5_5  and  C6_6 
REMARK    3  A    between atoms: C6_6  and  C7_7 
REMARK    4  A    between atoms: C9_9  and  C10_10 
REMARK    5  A    between atoms: C10_10  and  C11_11 
REMARK    6  A    between atoms: C12_12  and  O1_13 
REMARK    7  A    between atoms: C13_15  and  O2_16 
REMARK    8  A    between atoms: C14_18  and  C15_19 
REMARK    9  A    between atoms: C15_19  and  N1_20 
ROOT
HETATM    1  C11 UNL     1      27.972  46.919  48.154  1.00  0.00     0.032 C 
HETATM    2  C12 UNL     1      26.944  47.822  47.838  1.00  0.00     0.110 C 
HETATM    3  C13 UNL     1      27.031  48.992  47.073  1.00  0.00     0.113 C 
HETATM    4  C14 UNL     1      28.199  49.488  46.453  1.00  0.00     0.038 C 
HETATM    5  C18 UNL     1      29.471  49.297  46.920  1.00  0.00     0.062 A 
HETATM    6  N2  UNL     1      30.217  50.381  46.683  1.00  0.00    -0.333 N 
ATOM      7  H2  UNL     1      29.816  51.190  46.207  1.00  0.00     0.168 HD
HETATM    8  C19 UNL     1      31.503  50.393  47.079  1.00  0.00     0.171 A 
HETATM    9  C20 UNL     1      32.076  49.295  47.733  1.00  0.00     0.082 A 
HETATM   10  C21 UNL     1      31.319  48.171  47.984  1.00  0.00     0.051 A 
HETATM   11  C22 UNL     1      30.010  48.178  47.574  1.00  0.00     0.045 A 
HETATM   12  C23 UNL     1      29.328  47.013  47.907  1.00  0.00     0.193 C 
HETATM   13  O3  UNL     1      30.054  46.000  47.974  1.00  0.00    -0.287 OA
HETATM   14  N3  UNL     1      33.436  49.575  48.037  1.00  0.00    -0.365 N 
ATOM     15  H3  UNL     1      34.103  48.948  48.489  1.00  0.00     0.162 HD
HETATM   16  C24 UNL     1      33.693  50.944  47.573  1.00  0.00     0.300 A 
HETATM   17  O4  UNL     1      32.500  51.354  46.974  1.00  0.00    -0.314 OA
ENDROOT
BRANCH   1  18
HETATM   18  C10 UNL     1      27.521  45.701  48.858  1.00  0.00     0.073 C 
BRANCH  18  19
HETATM   19  C9  UNL     1      27.222  44.570  47.925  1.00  0.00    -0.019 C 
HETATM   20  C7  UNL     1      26.072  43.886  47.971  1.00  0.00    -0.087 C 
HETATM   21  C8  UNL     1      25.024  44.224  48.966  1.00  0.00     0.043 C 
BRANCH  20  22
HETATM   22  C6  UNL     1      25.866  42.792  47.014  1.00  0.00     0.037 C 
BRANCH  22  23
HETATM   23  C5  UNL     1      24.928  43.259  45.927  1.00  0.00     0.031 C 
BRANCH  23  24
HETATM   24  C4  UNL     1      25.781  43.950  44.889  1.00  0.00    -0.024 C 
HETATM   25  C2  UNL     1      25.598  45.236  44.628  1.00  0.00    -0.091 C 
HETATM   26  C1  UNL     1      24.535  45.998  45.372  1.00  0.00     0.042 C 
HETATM   27  C3  UNL     1      26.452  45.880  43.606  1.00  0.00     0.042 C 
ENDBRANCH  23  24
ENDBRANCH  22  23
ENDBRANCH  20  22
ENDBRANCH  18  19
ENDBRANCH   1  18
BRANCH   2  28
HETATM   28  O1  UNL     1      25.740  47.448  48.375  1.00  0.00    -0.357 OA
ATOM     29  H1  UNL     1      25.764  47.414  49.325  1.00  0.00     0.217 HD
ENDBRANCH   2  28
BRANCH   3  30
HETATM   30  O2  UNL     1      25.906  49.724  46.902  1.00  0.00    -0.357 OA
ATOM     31  H2  UNL     1      25.338  49.850  47.653  1.00  0.00     0.217 HD
ENDBRANCH   3  30
BRANCH   4  32
HETATM   32  C15 UNL     1      27.964  50.273  45.277  1.00  0.00     0.075 C 
BRANCH  32  33
HETATM   33  N1  UNL     1      27.213  49.784  44.194  1.00  0.00    -0.300 NA
HETATM   34  C16 UNL     1      26.481  50.854  43.492  1.00  0.00     0.115 C 
HETATM   35  C17 UNL     1      28.103  49.203  43.206  1.00  0.00     0.115 C 
ENDBRANCH  32  33
ENDBRANCH   4  32
TORSDOF 9
ENDMDL
MODEL 5
REMARK VINA RESULT: -6.758807485      2.287      3.156
REMARK  9 active torsions:
REMARK  status: ('A' for Active; 'I' for Inactive)
REMARK    1  A    between atoms: C4_4  and  C5_5 
REMARK    2  A    between atoms: C5_5  and  C6_6 
REMARK    3  A    between atoms: C6_6  and  C7_7 
REMARK    4  A    between atoms: C9_9  and  C10_10 
REMARK    5  A    between atoms: C10_10  and  C11_11 
REMARK    6  A    between atoms: C12_12  and  O1_13 
REMARK    7  A    between atoms: C13_15  and  O2_16 
REMARK    8  A    between atoms: C14_18  and  C15_19 
REMARK    9  A    between atoms: C15_19  and  N1_20 
ROOT
HETATM    1  C11 UNL     1      29.241  47.613  47.746  1.00  0.00     0.032 C 
HETATM    2  C12 UNL     1      30.635  47.745  47.850  1.00  0.00     0.110 C 
HETATM    3  C13 UNL     1      31.385  48.926  47.916  1.00  0.00     0.113 C 
HETATM    4  C14 UNL     1      30.862  50.238  47.899  1.00  0.00     0.038 C 
HETATM    5  C18 UNL     1      29.706  50.609  47.266  1.00  0.00     0.062 A 
HETATM    6  N2  UNL     1      29.834  51.839  46.757  1.00  0.00    -0.333 N 
ATOM      7  H2  UNL     1      30.703  52.361  46.878  1.00  0.00     0.168 HD
HETATM    8  C19 UNL     1      28.802  52.381  46.085  1.00  0.00     0.171 A 
HETATM    9  C20 UNL     1      27.600  51.686  45.906  1.00  0.00     0.082 A 
HETATM   10  C21 UNL     1      27.455  50.417  46.425  1.00  0.00     0.051 A 
HETATM   11  C22 UNL     1      28.517  49.881  47.107  1.00  0.00     0.045 A 
HETATM   12  C23 UNL     1      28.279  48.587  47.557  1.00  0.00     0.193 C 
HETATM   13  O3  UNL     1      27.078  48.343  47.792  1.00  0.00    -0.287 OA
HETATM   14  N3  UNL     1      26.689  52.486  45.164  1.00  0.00    -0.365 N 
ATOM     15  H3  UNL     1      25.732  52.244  44.909  1.00  0.00     0.162 HD
HETATM   16  C24 UNL     1      27.399  53.730  44.839  1.00  0.00     0.300 A 
HETATM   17  O4  UNL     1      28.644  53.611  45.457  1.00  0.00    -0.314 OA
ENDROOT
BRANCH   1  18
HETATM   18  C10 UNL     1      28.748  46.224  47.849  1.00  0.00     0.073 C 
BRANCH  18  19
HETATM   19  C9  UNL     1      28.419  45.626  46.517  1.00  0.00    -0.019 C 
HETATM   20  C7  UNL     1      27.236  45.055  46.259  1.00  0.00    -0.087 C 
HETATM   21  C8  UNL     1      26.180  44.987  47.299  1.00  0.00     0.043 C 
BRANCH  20  22
HETATM   22  C6  UNL     1      27.003  44.495  44.921  1.00  0.00     0.037 C 
BRANCH  22  23
HETATM   23  C5  UNL     1      25.860  45.237  44.270  1.00  0.00     0.031 C 
BRANCH  23  24
HETATM   24  C4  UNL     1      26.468  46.416  43.548  1.00  0.00    -0.024 C 
HETATM   25  C2  UNL     1      26.099  47.650  43.861  1.00  0.00    -0.091 C 
HETATM   26  C1  UNL     1      25.071  47.863  44.940  1.00  0.00     0.042 C 
HETATM   27  C3  UNL     1      26.715  48.781  43.134  1.00  0.00     0.042 C 
ENDBRANCH  23  24
ENDBRANCH  22  23
ENDBRANCH  20  22
ENDBRANCH  18  19
ENDBRANCH   1  18
BRANCH   2  28
HETATM   28  O1  UNL     1      31.270  46.532  47.889  1.00  0.00    -0.357 OA
ATOM     29  H1  UNL     1      31.480  46.262  48.776  1.00  0.00     0.217 HD
ENDBRANCH   2  28
BRANCH   3  30
HETATM   30  O2  UNL     1      32.731  48.819  48.005  1.00  0.00    -0.357 OA
ATOM     31  H2  UNL     1      33.220  48.678  47.203  1.00  0.00     0.217 HD
ENDBRANCH   3  30
BRANCH   4  32
HETATM   32  C15 UNL     1      31.667  51.211  48.577  1.00  0.00     0.075 C 
BRANCH  32  33
HETATM   33  N1  UNL     1      32.852  51.718  48.015  1.00  0.00    -0.300 NA
HETATM   34  C16 UNL     1      32.720  53.129  47.608  1.00  0.00     0.115 C 
HETATM   35  C17 UNL     1      33.912  51.692  49.005  1.00  0.00     0.115 C 
ENDBRANCH  32  33
ENDBRANCH   4  32
TORSDOF 9
ENDMDL
