MODEL 1
REMARK VINA RESULT: -4.791724605      0.000      0.000
REMARK  1 active torsions:
REMARK  status: ('A' for Active; 'I' for Inactive)
REMARK    1  A    between atoms: N1_1  and  C1_5 
ROOT
HETATM    1  C1  UNL     1      37.719  22.668  24.495  1.00  0.00     0.342 C 
HETATM    2  C2  UNL     1      36.956  23.260  23.311  1.00  0.00     0.228 C 
HETATM    3  O1  UNL     1      37.791  23.871  22.401  1.00  0.00    -0.385 OA
HETATM    4  C3  UNL     1      37.377  23.699  21.076  1.00  0.00     0.194 C 
HETATM    5  C4  UNL     1      38.478  23.011  20.323  1.00  0.00     0.193 C 
HETATM    6  O2  UNL     1      38.060  22.091  19.407  1.00  0.00    -0.387 OA
HETATM    7  C5  UNL     1      37.394  21.010  19.891  1.00  0.00     0.193 C 
HETATM    8  C6  UNL     1      38.254  20.064  20.708  1.00  0.00     0.193 C 
HETATM    9  O3  UNL     1      38.334  20.541  21.982  1.00  0.00    -0.387 OA
HETATM   10  C7  UNL     1      37.981  19.679  22.978  1.00  0.00     0.194 C 
HETATM   11  C8  UNL     1      38.195  20.411  24.307  1.00  0.00     0.196 C 
HETATM   12  O4  UNL     1      38.633  21.713  24.105  1.00  0.00    -0.356 OA
ENDROOT
BRANCH   1  13
HETATM   13  N1  UNL     1      38.433  23.724  25.172  1.00  0.00    -0.051 N 
ATOM     14  H13 UNL     1      39.375  23.444  25.444  1.00  0.00     0.277 HD
ATOM     15  H12 UNL     1      38.686  24.486  24.543  1.00  0.00     0.277 HD
ATOM     16  H11 UNL     1      37.879  24.044  25.967  1.00  0.00     0.277 HD
ENDBRANCH   1  13
TORSDOF 1
ENDMDL
MODEL 2
REMARK VINA RESULT: -4.776244755      1.043      1.115
REMARK  1 active torsions:
REMARK  status: ('A' for Active; 'I' for Inactive)
REMARK    1  A    between atoms: N1_1  and  C1_5 
ROOT
HETATM    1  C1  UNL     1      37.547  21.567  24.444  1.00  0.00     0.342 C 
HETATM    2  C2  UNL     1      36.803  22.604  23.604  1.00  0.00     0.228 C 
HETATM    3  O1  UNL     1      37.635  23.602  23.144  1.00  0.00    -0.385 OA
HETATM    4  C3  UNL     1      37.305  24.042  21.858  1.00  0.00     0.194 C 
HETATM    5  C4  UNL     1      38.492  23.827  20.966  1.00  0.00     0.193 C 
HETATM    6  O2  UNL     1      38.194  23.416  19.700  1.00  0.00    -0.387 OA
HETATM    7  C5  UNL     1      37.588  22.205  19.582  1.00  0.00     0.193 C 
HETATM    8  C6  UNL     1      38.474  21.028  19.943  1.00  0.00     0.193 C 
HETATM    9  O3  UNL     1      38.451  20.867  21.296  1.00  0.00    -0.387 OA
HETATM   10  C7  UNL     1      38.114  19.628  21.756  1.00  0.00     0.194 C 
HETATM   11  C8  UNL     1      38.202  19.674  23.286  1.00  0.00     0.196 C 
HETATM   12  O4  UNL     1      38.550  20.941  23.737  1.00  0.00    -0.356 OA
ENDROOT
BRANCH   1  13
HETATM   13  N1  UNL     1      38.142  22.222  25.585  1.00  0.00    -0.051 N 
ATOM     14  H13 UNL     1      39.161  22.181  25.568  1.00  0.00     0.277 HD
ATOM     15  H12 UNL     1      38.039  23.236  25.546  1.00  0.00     0.277 HD
ATOM     16  H11 UNL     1      37.753  21.824  26.439  1.00  0.00     0.277 HD
ENDBRANCH   1  13
TORSDOF 1
ENDMDL
MODEL 3
REMARK VINA RESULT: -4.493162304      2.205      4.200
REMARK  1 active torsions:
REMARK  status: ('A' for Active; 'I' for Inactive)
REMARK    1  A    between atoms: N1_1  and  C1_5 
ROOT
HETATM    1  C1  UNL     1      38.010  23.011  19.971  1.00  0.00     0.342 C 
HETATM    2  C2  UNL     1      37.172  21.746  20.146  1.00  0.00     0.228 C 
HETATM    3  O1  UNL     1      37.944  20.604  20.174  1.00  0.00    -0.385 OA
HETATM    4  C3  UNL     1      37.462  19.638  21.063  1.00  0.00     0.194 C 
HETATM    5  C4  UNL     1      38.533  19.351  22.074  1.00  0.00     0.193 C 
HETATM    6  O2  UNL     1      38.083  19.145  23.346  1.00  0.00    -0.387 OA
HETATM    7  C5  UNL     1      37.465  20.195  23.948  1.00  0.00     0.193 C 
HETATM    8  C6  UNL     1      38.385  21.355  24.275  1.00  0.00     0.193 C 
HETATM    9  O3  UNL     1      38.526  22.125  23.159  1.00  0.00    -0.387 OA
HETATM   10  C7  UNL     1      38.244  23.452  23.296  1.00  0.00     0.194 C 
HETATM   11  C8  UNL     1      38.516  24.115  21.941  1.00  0.00     0.196 C 
HETATM   12  O4  UNL     1      38.918  23.184  20.992  1.00  0.00    -0.356 OA
ENDROOT
BRANCH   1  13
HETATM   13  N1  UNL     1      38.739  22.926  18.728  1.00  0.00    -0.051 N 
ATOM     14  H13 UNL     1      38.178  22.528  17.976  1.00  0.00     0.277 HD
ATOM     15  H12 UNL     1      38.905  23.843  18.313  1.00  0.00     0.277 HD
ATOM     16  H11 UNL     1      39.604  22.408  18.883  1.00  0.00     0.277 HD
ENDBRANCH   1  13
TORSDOF 1
ENDMDL
MODEL 4
REMARK VINA RESULT: -4.361969887      2.229      4.684
REMARK  1 active torsions:
REMARK  status: ('A' for Active; 'I' for Inactive)
REMARK    1  A    between atoms: N1_1  and  C1_5 
ROOT
HETATM    1  C1  UNL     1      38.635  20.245  19.850  1.00  0.00     0.342 C 
HETATM    2  C2  UNL     1      37.727  19.835  21.008  1.00  0.00     0.228 C 
HETATM    3  O1  UNL     1      38.417  19.695  22.193  1.00  0.00    -0.385 OA
HETATM    4  C3  UNL     1      37.685  20.117  23.307  1.00  0.00     0.194 C 
HETATM    5  C4  UNL     1      38.452  21.211  23.989  1.00  0.00     0.193 C 
HETATM    6  O2  UNL     1      37.687  22.224  24.489  1.00  0.00    -0.387 OA
HETATM    7  C5  UNL     1      36.983  22.957  23.587  1.00  0.00     0.193 C 
HETATM    8  C6  UNL     1      37.840  23.818  22.680  1.00  0.00     0.193 C 
HETATM    9  O3  UNL     1      38.291  23.049  21.650  1.00  0.00    -0.387 OA
HETATM   10  C7  UNL     1      38.041  23.510  20.391  1.00  0.00     0.194 C 
HETATM   11  C8  UNL     1      38.675  22.517  19.410  1.00  0.00     0.196 C 
HETATM   12  O4  UNL     1      39.263  21.450  20.078  1.00  0.00    -0.356 OA
ENDROOT
BRANCH   1  13
HETATM   13  N1  UNL     1      39.651  19.236  19.666  1.00  0.00    -0.051 N 
ATOM     14  H13 UNL     1      39.386  18.340  20.076  1.00  0.00     0.277 HD
ATOM     15  H12 UNL     1      39.724  18.933  18.695  1.00  0.00     0.277 HD
ATOM     16  H11 UNL     1      40.537  19.582  20.033  1.00  0.00     0.277 HD
ENDBRANCH   1  13
TORSDOF 1
ENDMDL
MODEL 5
REMARK VINA RESULT: -4.353472710      1.451      1.993
REMARK  1 active torsions:
REMARK  status: ('A' for Active; 'I' for Inactive)
REMARK    1  A    between atoms: N1_1  and  C1_5 
ROOT
HETATM    1  C1  UNL     1      37.898  22.848  23.071  1.00  0.00     0.342 C 
HETATM    2  C2  UNL     1      37.357  22.592  21.666  1.00  0.00     0.228 C 
HETATM    3  O1  UNL     1      38.363  22.440  20.736  1.00  0.00    -0.385 OA
HETATM    4  C3  UNL     1      38.063  21.488  19.756  1.00  0.00     0.194 C 
HETATM    5  C4  UNL     1      39.117  20.420  19.797  1.00  0.00     0.193 C 
HETATM    6  O2  UNL     1      38.658  19.152  19.593  1.00  0.00    -0.387 OA
HETATM    7  C5  UNL     1      37.790  18.663  20.517  1.00  0.00     0.193 C 
HETATM    8  C6  UNL     1      38.409  18.407  21.878  1.00  0.00     0.193 C 
HETATM    9  O3  UNL     1      38.432  19.579  22.572  1.00  0.00    -0.387 OA
HETATM   10  C7  UNL     1      37.853  19.567  23.806  1.00  0.00     0.194 C 
HETATM   11  C8  UNL     1      38.041  20.964  24.408  1.00  0.00     0.196 C 
HETATM   12  O4  UNL     1      38.690  21.815  23.523  1.00  0.00    -0.356 OA
ENDROOT
BRANCH   1  13
HETATM   13  N1  UNL     1      38.692  24.053  23.060  1.00  0.00    -0.051 N 
ATOM     14  H13 UNL     1      38.215  24.836  23.507  1.00  0.00     0.277 HD
ATOM     15  H12 UNL     1      39.493  23.995  23.689  1.00  0.00     0.277 HD
ATOM     16  H11 UNL     1      38.966  24.264  22.101  1.00  0.00     0.277 HD
ENDBRANCH   1  13
TORSDOF 1
ENDMDL
