MODEL 1
REMARK VINA RESULT: -4.438517118      0.000      0.000
REMARK  1 active torsions:
REMARK  status: ('A' for Active; 'I' for Inactive)
REMARK    1  A    between atoms: C2_2  and  C3_3 
ROOT
HETATM    1  C3  UNL     1       0.612  18.214  23.348  1.00  0.00     0.344 C 
HETATM    2  N1  UNL     1       1.774  19.049  23.625  1.00  0.00    -0.043 N 
ATOM      3  H11 UNL     1       1.588  19.956  24.054  1.00  0.00     0.280 HD
ATOM      4  H12 UNL     1       2.247  19.449  22.815  1.00  0.00     0.280 HD
HETATM    5  C4  UNL     1       2.550  18.094  24.428  1.00  0.00     0.262 C 
HETATM    6  C5  UNL     1       1.450  17.291  25.107  1.00  0.00     0.198 C 
HETATM    7  O1  UNL     1       0.243  17.825  24.623  1.00  0.00    -0.355 OA
ENDROOT
BRANCH   1   8
HETATM    8  C2  UNL     1      -0.445  18.915  22.612  1.00  0.00     0.023 C 
HETATM    9  C1  UNL     1      -1.240  19.840  23.111  1.00  0.00     0.011 C 
ENDBRANCH   1   8
TORSDOF 1
ENDMDL
MODEL 2
REMARK VINA RESULT: -4.139084456      1.290      3.210
REMARK  1 active torsions:
REMARK  status: ('A' for Active; 'I' for Inactive)
REMARK    1  A    between atoms: C2_2  and  C3_3 
ROOT
HETATM    1  C3  UNL     1       0.594  18.844  23.654  1.00  0.00     0.344 C 
HETATM    2  N1  UNL     1       0.265  20.235  23.372  1.00  0.00    -0.043 N 
ATOM      3  H11 UNL     1       0.736  20.659  22.573  1.00  0.00     0.280 HD
ATOM      4  H12 UNL     1       0.614  20.926  24.037  1.00  0.00     0.280 HD
HETATM    5  C4  UNL     1      -1.196  20.104  23.275  1.00  0.00     0.262 C 
HETATM    6  C5  UNL     1      -1.346  18.692  22.727  1.00  0.00     0.198 C 
HETATM    7  O1  UNL     1      -0.036  18.194  22.608  1.00  0.00    -0.355 OA
ENDROOT
BRANCH   1   8
HETATM    8  C2  UNL     1       2.037  18.592  23.724  1.00  0.00     0.023 C 
HETATM    9  C1  UNL     1       2.655  17.946  24.693  1.00  0.00     0.011 C 
ENDBRANCH   1   8
TORSDOF 1
ENDMDL
MODEL 3
REMARK VINA RESULT: -4.128270254      1.262      1.500
REMARK  1 active torsions:
REMARK  status: ('A' for Active; 'I' for Inactive)
REMARK    1  A    between atoms: C2_2  and  C3_3 
ROOT
HETATM    1  C3  UNL     1       0.455  18.695  23.879  1.00  0.00     0.344 C 
HETATM    2  N1  UNL     1       0.271  17.326  24.344  1.00  0.00    -0.043 N 
ATOM      3  H11 UNL     1       0.121  16.619  23.623  1.00  0.00     0.280 HD
ATOM      4  H12 UNL     1      -0.606  17.125  24.825  1.00  0.00     0.280 HD
HETATM    5  C4  UNL     1       1.498  17.194  25.142  1.00  0.00     0.262 C 
HETATM    6  C5  UNL     1       2.463  18.093  24.382  1.00  0.00     0.198 C 
HETATM    7  O1  UNL     1       1.717  18.628  23.317  1.00  0.00    -0.355 OA
ENDROOT
BRANCH   1   8
HETATM    8  C2  UNL     1      -0.587  19.136  22.947  1.00  0.00     0.023 C 
HETATM    9  C1  UNL     1      -1.388  20.167  23.126  1.00  0.00     0.011 C 
ENDBRANCH   1   8
TORSDOF 1
ENDMDL
MODEL 4
REMARK VINA RESULT: -3.974482110      1.209      3.164
REMARK  1 active torsions:
REMARK  status: ('A' for Active; 'I' for Inactive)
REMARK    1  A    between atoms: C2_2  and  C3_3 
ROOT
HETATM    1  C3  UNL     1       0.915  19.031  23.269  1.00  0.00     0.344 C 
HETATM    2  N1  UNL     1       0.296  17.911  22.572  1.00  0.00    -0.043 N 
ATOM      3  H11 UNL     1       0.197  17.045  23.104  1.00  0.00     0.280 HD
ATOM      4  H12 UNL     1       0.848  17.477  21.832  1.00  0.00     0.280 HD
HETATM    5  C4  UNL     1      -0.951  18.568  22.156  1.00  0.00     0.262 C 
HETATM    6  C5  UNL     1      -1.176  19.558  23.290  1.00  0.00     0.198 C 
HETATM    7  O1  UNL     1      -0.083  19.387  24.159  1.00  0.00    -0.355 OA
ENDROOT
BRANCH   1   8
HETATM    8  C2  UNL     1       2.186  18.683  23.913  1.00  0.00     0.023 C 
HETATM    9  C1  UNL     1       2.363  17.705  24.778  1.00  0.00     0.011 C 
ENDBRANCH   1   8
TORSDOF 1
ENDMDL
MODEL 5
REMARK VINA RESULT: -3.880894818      5.382      5.856
REMARK  1 active torsions:
REMARK  status: ('A' for Active; 'I' for Inactive)
REMARK    1  A    between atoms: C2_2  and  C3_3 
ROOT
HETATM    1  C3  UNL     1      -2.372  23.181  23.902  1.00  0.00     0.344 C 
HETATM    2  N1  UNL     1      -1.795  24.032  24.934  1.00  0.00    -0.043 N 
ATOM      3  H11 UNL     1      -1.616  23.591  25.837  1.00  0.00     0.280 HD
ATOM      4  H12 UNL     1      -2.406  24.749  25.325  1.00  0.00     0.280 HD
HETATM    5  C4  UNL     1      -0.617  24.511  24.198  1.00  0.00     0.262 C 
HETATM    6  C5  UNL     1      -0.307  23.323  23.298  1.00  0.00     0.198 C 
HETATM    7  O1  UNL     1      -1.299  22.368  23.583  1.00  0.00    -0.355 OA
ENDROOT
BRANCH   1   8
HETATM    8  C2  UNL     1      -3.559  22.448  24.351  1.00  0.00     0.023 C 
HETATM    9  C1  UNL     1      -4.793  22.911  24.343  1.00  0.00     0.011 C 
ENDBRANCH   1   8
TORSDOF 1
ENDMDL
