MODEL 1
REMARK VINA RESULT: -4.670664546      0.000      0.000
REMARK  2 active torsions:
REMARK  status: ('A' for Active; 'I' for Inactive)
REMARK    1  A    between atoms: C2_2  and  C3_3 
REMARK    2  A    between atoms: C5_7  and  N2_8 
ROOT
HETATM    1  C3  UNL     1       0.871  17.979  23.481  1.00  0.00     0.138 A 
HETATM    2  N1  UNL     1       1.369  17.394  24.640  1.00  0.00    -0.390 N 
ATOM      3  H1  UNL     1       0.982  16.714  25.294  1.00  0.00     0.159 HD
HETATM    4  C4  UNL     1       2.455  17.998  24.593  1.00  0.00     0.091 A 
HETATM    5  C5  UNL     1       2.121  18.704  23.387  1.00  0.00     0.247 A 
ENDROOT
BRANCH   5   6
HETATM    6  N2  UNL     1       2.091  20.152  23.457  1.00  0.00    -0.068 N 
ATOM      7  H23 UNL     1       1.156  20.451  23.733  1.00  0.00     0.275 HD
ATOM      8  H22 UNL     1       2.640  20.455  24.261  1.00  0.00     0.275 HD
ATOM      9  H21 UNL     1       2.381  20.688  22.638  1.00  0.00     0.275 HD
ENDBRANCH   5   6
BRANCH   1  10
HETATM   10  C2  UNL     1      -0.360  18.765  23.822  1.00  0.00    -0.010 C 
HETATM   11  C1  UNL     1      -1.233  18.992  22.857  1.00  0.00     0.009 C 
ENDBRANCH   1  10
TORSDOF 2
ENDMDL
MODEL 2
REMARK VINA RESULT: -4.279079133      1.162      2.047
REMARK  2 active torsions:
REMARK  status: ('A' for Active; 'I' for Inactive)
REMARK    1  A    between atoms: C2_2  and  C3_3 
REMARK    2  A    between atoms: C5_7  and  N2_8 
ROOT
HETATM    1  C3  UNL     1       0.186  18.895  23.992  1.00  0.00     0.138 A 
HETATM    2  N1  UNL     1       1.220  19.754  23.635  1.00  0.00    -0.390 N 
ATOM      3  H1  UNL     1       1.312  20.770  23.648  1.00  0.00     0.159 HD
HETATM    4  C4  UNL     1       1.990  18.840  23.293  1.00  0.00     0.091 A 
HETATM    5  C5  UNL     1       1.050  17.799  23.605  1.00  0.00     0.247 A 
ENDROOT
BRANCH   5   6
HETATM    6  N2  UNL     1       0.634  16.938  22.515  1.00  0.00    -0.068 N 
ATOM      7  H23 UNL     1       1.435  16.763  21.908  1.00  0.00     0.275 HD
ATOM      8  H22 UNL     1       0.457  16.003  22.881  1.00  0.00     0.275 HD
ATOM      9  H21 UNL     1      -0.159  17.224  21.940  1.00  0.00     0.275 HD
ENDBRANCH   5   6
BRANCH   1  10
HETATM   10  C2  UNL     1      -1.003  19.177  23.124  1.00  0.00    -0.010 C 
HETATM   11  C1  UNL     1      -1.453  20.419  23.079  1.00  0.00     0.009 C 
ENDBRANCH   1  10
TORSDOF 2
ENDMDL
MODEL 3
REMARK VINA RESULT: -4.268128577      1.073      1.073
REMARK  2 active torsions:
REMARK  status: ('A' for Active; 'I' for Inactive)
REMARK    1  A    between atoms: C2_2  and  C3_3 
REMARK    2  A    between atoms: C5_7  and  N2_8 
ROOT
HETATM    1  C3  UNL     1       0.250  17.772  23.071  1.00  0.00     0.138 A 
HETATM    2  N1  UNL     1       0.087  17.768  24.452  1.00  0.00    -0.390 N 
ATOM      3  H1  UNL     1      -0.727  17.634  25.053  1.00  0.00     0.159 HD
HETATM    4  C4  UNL     1       1.286  17.988  24.691  1.00  0.00     0.091 A 
HETATM    5  C5  UNL     1       1.656  18.030  23.303  1.00  0.00     0.247 A 
ENDROOT
BRANCH   5   6
HETATM    6  N2  UNL     1       2.227  19.268  22.809  1.00  0.00    -0.068 N 
ATOM      7  H23 UNL     1       3.217  19.297  23.056  1.00  0.00     0.275 HD
ATOM      8  H22 UNL     1       2.278  19.225  21.792  1.00  0.00     0.275 HD
ATOM      9  H21 UNL     1       1.793  20.150  23.082  1.00  0.00     0.275 HD
ENDBRANCH   5   6
BRANCH   1  10
HETATM   10  C2  UNL     1      -0.569  18.884  22.487  1.00  0.00    -0.010 C 
HETATM   11  C1  UNL     1      -1.371  19.551  23.298  1.00  0.00     0.009 C 
ENDBRANCH   1  10
TORSDOF 2
ENDMDL
MODEL 4
REMARK VINA RESULT: -4.202894080      1.480      2.954
REMARK  2 active torsions:
REMARK  status: ('A' for Active; 'I' for Inactive)
REMARK    1  A    between atoms: C2_2  and  C3_3 
REMARK    2  A    between atoms: C5_7  and  N2_8 
ROOT
HETATM    1  C3  UNL     1       0.240  18.456  23.810  1.00  0.00     0.138 A 
HETATM    2  N1  UNL     1       0.042  17.847  22.576  1.00  0.00    -0.390 N 
ATOM      3  H1  UNL     1       0.463  17.032  22.130  1.00  0.00     0.159 HD
HETATM    4  C4  UNL     1      -0.831  18.653  22.210  1.00  0.00     0.091 A 
HETATM    5  C5  UNL     1      -0.773  19.417  23.426  1.00  0.00     0.247 A 
ENDROOT
BRANCH   5   6
HETATM    6  N2  UNL     1      -0.397  20.813  23.310  1.00  0.00    -0.068 N 
ATOM      7  H23 UNL     1      -1.162  21.391  23.660  1.00  0.00     0.275 HD
ATOM      8  H22 UNL     1       0.332  21.017  23.992  1.00  0.00     0.275 HD
ATOM      9  H21 UNL     1      -0.106  21.167  22.398  1.00  0.00     0.275 HD
ENDBRANCH   5   6
BRANCH   1  10
HETATM   10  C2  UNL     1       1.656  18.940  23.893  1.00  0.00    -0.010 C 
HETATM   11  C1  UNL     1       2.549  18.143  24.454  1.00  0.00     0.009 C 
ENDBRANCH   1  10
TORSDOF 2
ENDMDL
MODEL 5
REMARK VINA RESULT: -4.158485299      5.054      5.764
REMARK  2 active torsions:
REMARK  status: ('A' for Active; 'I' for Inactive)
REMARK    1  A    between atoms: C2_2  and  C3_3 
REMARK    2  A    between atoms: C5_7  and  N2_8 
ROOT
HETATM    1  C3  UNL     1      -2.265  23.306  23.321  1.00  0.00     0.138 A 
HETATM    2  N1  UNL     1      -1.273  22.420  22.916  1.00  0.00    -0.390 N 
ATOM      3  H1  UNL     1      -1.303  21.512  22.451  1.00  0.00     0.159 HD
HETATM    4  C4  UNL     1      -0.338  23.129  23.324  1.00  0.00     0.091 A 
HETATM    5  C5  UNL     1      -1.207  24.164  23.812  1.00  0.00     0.247 A 
ENDROOT
BRANCH   5   6
HETATM    6  N2  UNL     1      -1.152  24.457  25.231  1.00  0.00    -0.068 N 
ATOM      7  H23 UNL     1      -2.070  24.282  25.641  1.00  0.00     0.275 HD
ATOM      8  H22 UNL     1      -0.590  23.744  25.694  1.00  0.00     0.275 HD
ATOM      9  H21 UNL     1      -0.828  25.378  25.528  1.00  0.00     0.275 HD
ENDBRANCH   5   6
BRANCH   1  10
HETATM   10  C2  UNL     1      -3.135  22.631  24.338  1.00  0.00    -0.010 C 
HETATM   11  C1  UNL     1      -4.436  22.855  24.282  1.00  0.00     0.009 C 
ENDBRANCH   1  10
TORSDOF 2
ENDMDL
