MODEL 1
REMARK VINA RESULT: -6.542339828      0.000      0.000
REMARK  5 active torsions:
REMARK  status: ('A' for Active; 'I' for Inactive)
REMARK    1  A    between atoms: C2_2  and  O1_3 
REMARK    2  A    between atoms: O1_3  and  O2_4 
REMARK    3  A    between atoms: C4_9  and  O3_10 
REMARK    4  A    between atoms: C5_12  and  N2_13 
REMARK    5  A    between atoms: N3_19  and  O7_21 
ROOT
HETATM    1  C1  UNL     1     -13.773 -28.196  -6.497  1.00  0.00     0.082 C 
HETATM    2  C2  UNL     1     -13.409 -27.695  -5.132  1.00  0.00     0.109 C 
HETATM    3  C3  UNL     1     -12.186 -27.319  -4.930  1.00  0.00     0.099 A 
HETATM    4  N1  UNL     1     -11.219 -27.390  -6.003  1.00  0.00    -0.331 N 
ATOM      5  H1  UNL     1     -11.533 -27.741  -6.907  1.00  0.00     0.168 HD
HETATM    6  C4  UNL     1      -9.868 -27.003  -5.877  1.00  0.00     0.178 A 
HETATM    7  C5  UNL     1      -9.392 -26.545  -4.748  1.00  0.00     0.205 A 
HETATM    8  C6  UNL     1     -10.230 -26.420  -3.607  1.00  0.00     0.239 A 
HETATM    9  O6  UNL     1      -9.814 -25.988  -2.517  1.00  0.00    -0.283 OA
HETATM   10  C7  UNL     1     -11.687 -26.808  -3.645  1.00  0.00     0.136 A 
HETATM   11  N3  UNL     1     -12.342 -26.674  -2.628  1.00  0.00    -0.263 N 
ATOM     12  H3  UNL     1     -11.669 -26.301  -1.958  1.00  0.00     0.194 HD
ENDROOT
BRANCH   2  13
HETATM   13  O1  UNL     1     -14.406 -27.681  -4.220  1.00  0.00    -0.203 OA
BRANCH  13  14
HETATM   14  O2  UNL     1     -14.706 -28.748  -3.436  1.00  0.00    -0.245 OA
ATOM     15  H2  UNL     1     -15.387 -28.728  -2.775  1.00  0.00     0.254 HD
ENDBRANCH  13  14
ENDBRANCH   2  13
BRANCH   6  16
HETATM   16  O3  UNL     1      -9.031 -27.115  -6.976  1.00  0.00    -0.344 OA
ATOM     17  H3  UNL     1      -8.778 -26.328  -7.446  1.00  0.00     0.219 HD
ENDBRANCH   6  16
BRANCH  11  18
HETATM   18  O7  UNL     1     -13.414 -26.750  -1.955  1.00  0.00    -0.289 OA
ATOM     19  H7  UNL     1     -13.940 -26.597  -1.179  1.00  0.00     0.244 HD
ENDBRANCH  11  18
BRANCH   7  20
HETATM   20  N2  UNL     1      -8.025 -26.164  -4.655  1.00  0.00    -0.107 N 
HETATM   21  O4  UNL     1      -7.640 -24.995  -4.876  1.00  0.00    -0.531 OA
HETATM   22  O5  UNL     1      -7.083 -27.106  -4.313  1.00  0.00    -0.531 OA
ENDBRANCH   7  20
TORSDOF 5
ENDMDL
MODEL 2
REMARK VINA RESULT: -6.350439596      1.259      2.897
REMARK  5 active torsions:
REMARK  status: ('A' for Active; 'I' for Inactive)
REMARK    1  A    between atoms: C2_2  and  O1_3 
REMARK    2  A    between atoms: O1_3  and  O2_4 
REMARK    3  A    between atoms: C4_9  and  O3_10 
REMARK    4  A    between atoms: C5_12  and  N2_13 
REMARK    5  A    between atoms: N3_19  and  O7_21 
ROOT
HETATM    1  C1  UNL     1     -14.003 -26.490  -2.036  1.00  0.00     0.082 C 
HETATM    2  C2  UNL     1     -13.597 -27.005  -3.384  1.00  0.00     0.109 C 
HETATM    3  C3  UNL     1     -12.389 -26.763  -3.787  1.00  0.00     0.099 A 
HETATM    4  N1  UNL     1     -11.479 -26.017  -2.947  1.00  0.00    -0.331 N 
ATOM      5  H1  UNL     1     -11.821 -25.695  -2.041  1.00  0.00     0.168 HD
HETATM    6  C4  UNL     1     -10.149 -25.706  -3.300  1.00  0.00     0.178 A 
HETATM    7  C5  UNL     1      -9.642 -26.084  -4.445  1.00  0.00     0.205 A 
HETATM    8  C6  UNL     1     -10.422 -26.825  -5.373  1.00  0.00     0.239 A 
HETATM    9  O6  UNL     1      -9.975 -27.202  -6.471  1.00  0.00    -0.283 OA
HETATM   10  C7  UNL     1     -11.854 -27.205  -5.084  1.00  0.00     0.136 A 
HETATM   11  N3  UNL     1     -12.460 -27.840  -5.927  1.00  0.00    -0.263 N 
ATOM     12  H3  UNL     1     -11.775 -27.957  -6.674  1.00  0.00     0.194 HD
ENDROOT
BRANCH   2  13
HETATM   13  O1  UNL     1     -14.541 -27.686  -4.069  1.00  0.00    -0.203 OA
BRANCH  13  14
HETATM   14  O2  UNL     1     -14.752 -29.017  -3.912  1.00  0.00    -0.245 OA
ATOM     15  H2  UNL     1     -15.269 -29.534  -4.518  1.00  0.00     0.254 HD
ENDBRANCH  13  14
ENDBRANCH   2  13
BRANCH   6  16
HETATM   16  O3  UNL     1      -9.368 -24.984  -2.412  1.00  0.00    -0.344 OA
ATOM     17  H3  UNL     1      -8.454 -24.829  -2.621  1.00  0.00     0.219 HD
ENDBRANCH   6  16
BRANCH  11  18
HETATM   18  O7  UNL     1     -13.487 -28.433  -6.373  1.00  0.00    -0.289 OA
ATOM     19  H7  UNL     1     -14.152 -28.596  -7.032  1.00  0.00     0.244 HD
ENDBRANCH  11  18
BRANCH   7  20
HETATM   20  N2  UNL     1      -8.298 -25.753  -4.771  1.00  0.00    -0.107 N 
HETATM   21  O4  UNL     1      -7.341 -26.514  -4.509  1.00  0.00    -0.531 OA
HETATM   22  O5  UNL     1      -8.028 -24.558  -5.395  1.00  0.00    -0.531 OA
ENDBRANCH   7  20
TORSDOF 5
ENDMDL
MODEL 3
REMARK VINA RESULT: -6.163335123      1.343      4.974
REMARK  5 active torsions:
REMARK  status: ('A' for Active; 'I' for Inactive)
REMARK    1  A    between atoms: C2_2  and  O1_3 
REMARK    2  A    between atoms: O1_3  and  O2_4 
REMARK    3  A    between atoms: C4_9  and  O3_10 
REMARK    4  A    between atoms: C5_12  and  N2_13 
REMARK    5  A    between atoms: N3_19  and  O7_21 
ROOT
HETATM    1  C1  UNL     1      -9.231 -27.199  -6.911  1.00  0.00     0.082 C 
HETATM    2  C2  UNL     1      -9.447 -26.756  -5.496  1.00  0.00     0.109 C 
HETATM    3  C3  UNL     1     -10.634 -26.885  -4.994  1.00  0.00     0.099 A 
HETATM    4  N1  UNL     1     -11.703 -27.441  -5.793  1.00  0.00    -0.331 N 
ATOM      5  H1  UNL     1     -11.488 -27.722  -6.750  1.00  0.00     0.168 HD
HETATM    6  C4  UNL     1     -13.025 -27.621  -5.334  1.00  0.00     0.178 A 
HETATM    7  C5  UNL     1     -13.376 -27.282  -4.120  1.00  0.00     0.205 A 
HETATM    8  C6  UNL     1     -12.429 -26.722  -3.221  1.00  0.00     0.239 A 
HETATM    9  O6  UNL     1     -12.725 -26.389  -2.060  1.00  0.00    -0.283 OA
HETATM   10  C7  UNL     1     -10.992 -26.493  -3.622  1.00  0.00     0.136 A 
HETATM   11  N3  UNL     1     -10.238 -26.008  -2.799  1.00  0.00    -0.263 N 
ATOM     12  H3  UNL     1     -10.833 -25.873  -1.982  1.00  0.00     0.194 HD
ENDROOT
BRANCH   2  13
HETATM   13  O1  UNL     1      -8.366 -26.253  -4.860  1.00  0.00    -0.203 OA
BRANCH  13  14
HETATM   14  O2  UNL     1      -7.503 -27.022  -4.149  1.00  0.00    -0.245 OA
ATOM     15  H2  UNL     1      -6.629 -26.736  -3.913  1.00  0.00     0.254 HD
ENDBRANCH  13  14
ENDBRANCH   2  13
BRANCH   6  16
HETATM   16  O3  UNL     1     -13.968 -28.165  -6.191  1.00  0.00    -0.344 OA
ATOM     17  H3  UNL     1     -14.875 -27.893  -6.113  1.00  0.00     0.219 HD
ENDBRANCH   6  16
BRANCH  11  18
HETATM   18  O7  UNL     1      -9.109 -25.581  -2.415  1.00  0.00    -0.289 OA
ATOM     19  H7  UNL     1      -8.539 -25.114  -1.815  1.00  0.00     0.244 HD
ENDBRANCH  11  18
BRANCH   7  20
HETATM   20  N2  UNL     1     -14.718 -27.475  -3.688  1.00  0.00    -0.107 N 
HETATM   21  O4  UNL     1     -15.219 -28.613  -3.553  1.00  0.00    -0.531 OA
HETATM   22  O5  UNL     1     -15.501 -26.381  -3.408  1.00  0.00    -0.531 OA
ENDBRANCH   7  20
TORSDOF 5
ENDMDL
MODEL 4
REMARK VINA RESULT: -6.034552765      1.672      1.934
REMARK  5 active torsions:
REMARK  status: ('A' for Active; 'I' for Inactive)
REMARK    1  A    between atoms: C2_2  and  O1_3 
REMARK    2  A    between atoms: O1_3  and  O2_4 
REMARK    3  A    between atoms: C4_9  and  O3_10 
REMARK    4  A    between atoms: C5_12  and  N2_13 
REMARK    5  A    between atoms: N3_19  and  O7_21 
ROOT
HETATM    1  C1  UNL     1     -13.447 -26.801  -6.079  1.00  0.00     0.082 C 
HETATM    2  C2  UNL     1     -12.536 -27.430  -5.070  1.00  0.00     0.109 C 
HETATM    3  C3  UNL     1     -11.328 -26.971  -4.973  1.00  0.00     0.099 A 
HETATM    4  N1  UNL     1     -10.895 -25.886  -5.825  1.00  0.00    -0.331 N 
ATOM      5  H1  UNL     1     -11.565 -25.504  -6.491  1.00  0.00     0.168 HD
HETATM    6  C4  UNL     1      -9.602 -25.321  -5.792  1.00  0.00     0.178 A 
HETATM    7  C5  UNL     1      -8.688 -25.759  -4.965  1.00  0.00     0.205 A 
HETATM    8  C6  UNL     1      -8.973 -26.824  -4.068  1.00  0.00     0.239 A 
HETATM    9  O6  UNL     1      -8.130 -27.267  -3.267  1.00  0.00    -0.283 OA
HETATM   10  C7  UNL     1     -10.326 -27.490  -4.030  1.00  0.00     0.136 A 
HETATM   11  N3  UNL     1     -10.497 -28.396  -3.235  1.00  0.00    -0.263 N 
ATOM     12  H3  UNL     1      -9.596 -28.471  -2.763  1.00  0.00     0.194 HD
ENDROOT
BRANCH   2  13
HETATM   13  O1  UNL     1     -13.064 -28.436  -4.338  1.00  0.00    -0.203 OA
BRANCH  13  14
HETATM   14  O2  UNL     1     -13.686 -28.236  -3.148  1.00  0.00    -0.245 OA
ATOM     15  H2  UNL     1     -14.114 -28.933  -2.665  1.00  0.00     0.254 HD
ENDBRANCH  13  14
ENDBRANCH   2  13
BRANCH   6  16
HETATM   16  O3  UNL     1      -9.299 -24.281  -6.656  1.00  0.00    -0.344 OA
ATOM     17  H3  UNL     1      -9.483 -24.383  -7.583  1.00  0.00     0.219 HD
ENDBRANCH   6  16
BRANCH  11  18
HETATM   18  O7  UNL     1     -11.195 -29.296  -2.681  1.00  0.00    -0.289 OA
ATOM     19  H7  UNL     1     -11.553 -29.745  -1.924  1.00  0.00     0.244 HD
ENDBRANCH  11  18
BRANCH   7  20
HETATM   20  N2  UNL     1      -7.394 -25.169  -4.957  1.00  0.00    -0.107 N 
HETATM   21  O4  UNL     1      -6.454 -25.610  -5.653  1.00  0.00    -0.531 OA
HETATM   22  O5  UNL     1      -7.156 -24.075  -4.159  1.00  0.00    -0.531 OA
ENDBRANCH   7  20
TORSDOF 5
ENDMDL
MODEL 5
REMARK VINA RESULT: -5.981885056      4.754      7.914
REMARK  5 active torsions:
REMARK  status: ('A' for Active; 'I' for Inactive)
REMARK    1  A    between atoms: C2_2  and  O1_3 
REMARK    2  A    between atoms: O1_3  and  O2_4 
REMARK    3  A    between atoms: C4_9  and  O3_10 
REMARK    4  A    between atoms: C5_12  and  N2_13 
REMARK    5  A    between atoms: N3_19  and  O7_21 
ROOT
HETATM    1  C1  UNL     1      -4.948 -27.954   0.858  1.00  0.00     0.082 C 
HETATM    2  C2  UNL     1      -4.156 -27.753  -0.398  1.00  0.00     0.109 C 
HETATM    3  C3  UNL     1      -4.786 -27.343  -1.453  1.00  0.00     0.099 A 
HETATM    4  N1  UNL     1      -6.209 -27.094  -1.398  1.00  0.00    -0.331 N 
ATOM      5  H1  UNL     1      -6.687 -27.252  -0.511  1.00  0.00     0.168 HD
HETATM    6  C4  UNL     1      -6.978 -26.647  -2.492  1.00  0.00     0.178 A 
HETATM    7  C5  UNL     1      -6.435 -26.425  -3.662  1.00  0.00     0.205 A 
HETATM    8  C6  UNL     1      -5.043 -26.627  -3.863  1.00  0.00     0.239 A 
HETATM    9  O6  UNL     1      -4.490 -26.426  -4.960  1.00  0.00    -0.283 OA
HETATM   10  C7  UNL     1      -4.140 -27.103  -2.753  1.00  0.00     0.136 A 
HETATM   11  N3  UNL     1      -2.958 -27.255  -3.000  1.00  0.00    -0.263 N 
ATOM     12  H3  UNL     1      -2.886 -26.996  -3.984  1.00  0.00     0.194 HD
ENDROOT
BRANCH   2  13
HETATM   13  O1  UNL     1      -2.834 -28.022  -0.316  1.00  0.00    -0.203 OA
BRANCH  13  14
HETATM   14  O2  UNL     1      -2.307 -29.235  -0.617  1.00  0.00    -0.245 OA
ATOM     15  H2  UNL     1      -1.893 -29.427  -1.451  1.00  0.00     0.254 HD
ENDBRANCH  13  14
ENDBRANCH   2  13
BRANCH   6  16
HETATM   16  O3  UNL     1      -8.338 -26.442  -2.321  1.00  0.00    -0.344 OA
ATOM     17  H3  UNL     1      -8.635 -25.646  -1.895  1.00  0.00     0.219 HD
ENDBRANCH   6  16
BRANCH  11  18
HETATM   18  O7  UNL     1      -1.769 -27.563  -2.689  1.00  0.00    -0.289 OA
ATOM     19  H7  UNL     1      -0.850 -27.702  -2.888  1.00  0.00     0.244 HD
ENDBRANCH  11  18
BRANCH   7  20
HETATM   20  N2  UNL     1      -7.238 -25.975  -4.745  1.00  0.00    -0.107 N 
HETATM   21  O4  UNL     1      -7.408 -24.761  -4.993  1.00  0.00    -0.531 OA
HETATM   22  O5  UNL     1      -7.857 -26.897  -5.556  1.00  0.00    -0.531 OA
ENDBRANCH   7  20
TORSDOF 5
ENDMDL
