MODEL 1
REMARK VINA RESULT: -7.342598982      0.000      0.000
REMARK  1 active torsions:
REMARK  status: ('A' for Active; 'I' for Inactive)
REMARK    1  A    between atoms: C6_10  and  C7_11 
ROOT
HETATM    1  C1  UNL     1      -7.854 -27.382  -6.093  1.00  0.00     0.070 C 
HETATM    2  C2  UNL     1      -9.262 -27.281  -5.567  1.00  0.00     0.031 A 
HETATM    3  C3  UNL     1      -9.564 -27.085  -4.294  1.00  0.00     0.120 A 
HETATM    4  C4  UNL     1      -8.608 -26.938  -3.238  1.00  0.00     0.103 C 
HETATM    5  N1  UNL     1      -7.835 -26.838  -2.373  1.00  0.00    -0.191 NA
HETATM    6  C5  UNL     1     -11.030 -27.032  -4.093  1.00  0.00     0.332 A 
HETATM    7  O1  UNL     1     -11.392 -25.813  -3.509  1.00  0.00    -0.220 OA
HETATM    8  N2  UNL     1     -12.702 -25.621  -3.145  1.00  0.00    -0.239 N 
ATOM      9  H2  UNL     1     -13.132 -24.696  -3.163  1.00  0.00     0.196 HD
HETATM   10  C6  UNL     1     -13.364 -26.666  -2.781  1.00  0.00     0.223 C 
HETATM   11  N3  UNL     1     -12.673 -27.902  -2.795  1.00  0.00    -0.239 N 
ATOM     12  H3  UNL     1     -13.171 -28.730  -2.471  1.00  0.00     0.196 HD
HETATM   13  O4  UNL     1     -11.410 -28.054  -3.206  1.00  0.00    -0.220 OA
HETATM   14  C8  UNL     1     -11.576 -27.229  -5.444  1.00  0.00     0.295 A 
HETATM   15  O5  UNL     1     -12.809 -27.261  -5.774  1.00  0.00    -0.266 OA
HETATM   16  N4  UNL     1     -10.465 -27.378  -6.317  1.00  0.00    -0.325 N 
ATOM     17  H4  UNL     1     -10.522 -27.530  -7.324  1.00  0.00     0.169 HD
ENDROOT
BRANCH  10  18
HETATM   18  C7  UNL     1     -14.755 -26.585  -2.377  1.00  0.00     0.248 C 
HETATM   19  O2  UNL     1     -15.499 -27.592  -2.408  1.00  0.00    -0.642 OA
HETATM   20  O3  UNL     1     -15.287 -25.384  -1.947  1.00  0.00    -0.642 OA
ENDBRANCH  10  18
TORSDOF 1
ENDMDL
MODEL 2
REMARK VINA RESULT: -7.242483789      2.099      5.438
REMARK  1 active torsions:
REMARK  status: ('A' for Active; 'I' for Inactive)
REMARK    1  A    between atoms: C6_10  and  C7_11 
ROOT
HETATM    1  C1  UNL     1     -15.495 -27.474  -1.282  1.00  0.00     0.070 C 
HETATM    2  C2  UNL     1     -14.262 -27.400  -2.143  1.00  0.00     0.031 A 
HETATM    3  C3  UNL     1     -13.955 -26.366  -2.908  1.00  0.00     0.120 A 
HETATM    4  C4  UNL     1     -14.739 -25.173  -3.029  1.00  0.00     0.103 C 
HETATM    5  N1  UNL     1     -15.384 -24.211  -3.146  1.00  0.00    -0.191 NA
HETATM    6  C5  UNL     1     -12.683 -26.593  -3.632  1.00  0.00     0.332 A 
HETATM    7  O1  UNL     1     -11.766 -25.581  -3.324  1.00  0.00    -0.220 OA
HETATM    8  N2  UNL     1     -10.563 -25.560  -3.984  1.00  0.00    -0.239 N 
ATOM      9  H2  UNL     1      -9.716 -25.204  -3.540  1.00  0.00     0.196 HD
HETATM   10  C6  UNL     1     -10.553 -26.013  -5.191  1.00  0.00     0.223 C 
HETATM   11  N3  UNL     1     -11.783 -26.486  -5.710  1.00  0.00    -0.239 N 
ATOM     12  H3  UNL     1     -11.800 -26.809  -6.677  1.00  0.00     0.196 HD
HETATM   13  O4  UNL     1     -12.924 -26.536  -5.016  1.00  0.00    -0.220 OA
HETATM   14  C8  UNL     1     -12.263 -27.930  -3.189  1.00  0.00     0.295 A 
HETATM   15  O5  UNL     1     -11.211 -28.560  -3.549  1.00  0.00    -0.266 OA
HETATM   16  N4  UNL     1     -13.253 -28.391  -2.280  1.00  0.00    -0.325 N 
ATOM     17  H4  UNL     1     -13.242 -29.292  -1.801  1.00  0.00     0.169 HD
ENDROOT
BRANCH  10  18
HETATM   18  C7  UNL     1      -9.339 -26.042  -5.985  1.00  0.00     0.248 C 
HETATM   19  O2  UNL     1      -8.440 -25.185  -5.827  1.00  0.00    -0.642 OA
HETATM   20  O3  UNL     1      -9.154 -27.024  -6.939  1.00  0.00    -0.642 OA
ENDBRANCH  10  18
TORSDOF 1
ENDMDL
MODEL 3
REMARK VINA RESULT: -7.138308116      2.482      5.299
REMARK  1 active torsions:
REMARK  status: ('A' for Active; 'I' for Inactive)
REMARK    1  A    between atoms: C6_10  and  C7_11 
ROOT
HETATM    1  C1  UNL     1     -14.644 -28.285  -2.737  1.00  0.00     0.070 C 
HETATM    2  C2  UNL     1     -13.240 -27.828  -3.037  1.00  0.00     0.031 A 
HETATM    3  C3  UNL     1     -12.895 -26.562  -3.207  1.00  0.00     0.120 A 
HETATM    4  C4  UNL     1     -13.793 -25.449  -3.131  1.00  0.00     0.103 C 
HETATM    5  N1  UNL     1     -14.523 -24.543  -3.090  1.00  0.00    -0.191 NA
HETATM    6  C5  UNL     1     -11.446 -26.434  -3.487  1.00  0.00     0.332 A 
HETATM    7  O1  UNL     1     -10.842 -25.608  -2.534  1.00  0.00    -0.220 OA
HETATM    8  N2  UNL     1      -9.517 -25.282  -2.689  1.00  0.00    -0.239 N 
ATOM      9  H2  UNL     1      -8.912 -25.111  -1.886  1.00  0.00     0.196 HD
HETATM   10  C6  UNL     1      -9.076 -25.204  -3.897  1.00  0.00     0.223 C 
HETATM   11  N3  UNL     1     -10.001 -25.462  -4.938  1.00  0.00    -0.239 N 
ATOM     12  H3  UNL     1      -9.676 -25.363  -5.900  1.00  0.00     0.196 HD
HETATM   13  O4  UNL     1     -11.272 -25.827  -4.743  1.00  0.00    -0.220 OA
HETATM   14  C8  UNL     1     -10.962 -27.822  -3.463  1.00  0.00     0.295 A 
HETATM   15  O5  UNL     1      -9.763 -28.218  -3.654  1.00  0.00    -0.266 OA
HETATM   16  N4  UNL     1     -12.087 -28.645  -3.185  1.00  0.00    -0.325 N 
ATOM     17  H4  UNL     1     -12.070 -29.661  -3.104  1.00  0.00     0.169 HD
ENDROOT
BRANCH  10  18
HETATM   18  C7  UNL     1      -7.693 -24.868  -4.184  1.00  0.00     0.248 C 
HETATM   19  O2  UNL     1      -6.775 -25.702  -4.015  1.00  0.00    -0.642 OA
HETATM   20  O3  UNL     1      -7.364 -23.610  -4.651  1.00  0.00    -0.642 OA
ENDBRANCH  10  18
TORSDOF 1
ENDMDL
MODEL 4
REMARK VINA RESULT: -7.114289091      1.143      1.347
REMARK  1 active torsions:
REMARK  status: ('A' for Active; 'I' for Inactive)
REMARK    1  A    between atoms: C6_10  and  C7_11 
ROOT
HETATM    1  C1  UNL     1      -7.401 -25.541  -5.747  1.00  0.00     0.070 C 
HETATM    2  C2  UNL     1      -8.797 -25.939  -5.347  1.00  0.00     0.031 A 
HETATM    3  C3  UNL     1      -9.117 -26.419  -4.156  1.00  0.00     0.120 A 
HETATM    4  C4  UNL     1      -8.194 -26.628  -3.081  1.00  0.00     0.103 C 
HETATM    5  N1  UNL     1      -7.444 -26.819  -2.211  1.00  0.00    -0.191 NA
HETATM    6  C5  UNL     1     -10.565 -26.716  -4.069  1.00  0.00     0.332 A 
HETATM    7  O1  UNL     1     -11.141 -25.998  -3.016  1.00  0.00    -0.220 OA
HETATM    8  N2  UNL     1     -12.460 -26.224  -2.709  1.00  0.00    -0.239 N 
ATOM      9  H2  UNL     1     -13.054 -25.487  -2.328  1.00  0.00     0.196 HD
HETATM   10  C6  UNL     1     -12.912 -27.411  -2.925  1.00  0.00     0.223 C 
HETATM   11  N3  UNL     1     -12.003 -28.358  -3.457  1.00  0.00    -0.239 N 
ATOM     12  H3  UNL     1     -12.336 -29.313  -3.595  1.00  0.00     0.196 HD
HETATM   13  O4  UNL     1     -10.739 -28.083  -3.791  1.00  0.00    -0.220 OA
HETATM   14  C8  UNL     1     -11.079 -26.343  -5.395  1.00  0.00     0.295 A 
HETATM   15  O5  UNL     1     -12.288 -26.423  -5.797  1.00  0.00    -0.266 OA
HETATM   16  N4  UNL     1      -9.969 -25.873  -6.147  1.00  0.00    -0.325 N 
ATOM     17  H4  UNL     1     -10.007 -25.540  -7.111  1.00  0.00     0.169 HD
ENDROOT
BRANCH  10  18
HETATM   18  C7  UNL     1     -14.290 -27.767  -2.639  1.00  0.00     0.248 C 
HETATM   19  O2  UNL     1     -14.863 -27.360  -1.603  1.00  0.00    -0.642 OA
HETATM   20  O3  UNL     1     -14.998 -28.569  -3.513  1.00  0.00    -0.642 OA
ENDBRANCH  10  18
TORSDOF 1
ENDMDL
MODEL 5
REMARK VINA RESULT: -6.999489929      1.403      2.214
REMARK  1 active torsions:
REMARK  status: ('A' for Active; 'I' for Inactive)
REMARK    1  A    between atoms: C6_10  and  C7_11 
ROOT
HETATM    1  C1  UNL     1      -7.575 -27.399  -5.855  1.00  0.00     0.070 C 
HETATM    2  C2  UNL     1      -8.920 -27.336  -5.182  1.00  0.00     0.031 A 
HETATM    3  C3  UNL     1      -9.750 -26.310  -5.281  1.00  0.00     0.120 A 
HETATM    4  C4  UNL     1      -9.496 -25.120  -6.036  1.00  0.00     0.103 C 
HETATM    5  N1  UNL     1      -9.285 -24.142  -6.631  1.00  0.00    -0.191 NA
HETATM    6  C5  UNL     1     -10.990 -26.547  -4.507  1.00  0.00     0.332 A 
HETATM    7  O1  UNL     1     -12.105 -26.464  -5.348  1.00  0.00    -0.220 OA
HETATM    8  N2  UNL     1     -13.357 -26.550  -4.791  1.00  0.00    -0.239 N 
ATOM      9  H2  UNL     1     -14.143 -26.952  -5.302  1.00  0.00     0.196 HD
HETATM   10  C6  UNL     1     -13.492 -26.097  -3.591  1.00  0.00     0.223 C 
HETATM   11  N3  UNL     1     -12.337 -25.561  -2.973  1.00  0.00    -0.239 N 
ATOM     12  H3  UNL     1     -12.437 -25.162  -2.039  1.00  0.00     0.196 HD
HETATM   13  O4  UNL     1     -11.122 -25.543  -3.531  1.00  0.00    -0.220 OA
HETATM   14  C8  UNL     1     -10.786 -27.879  -3.919  1.00  0.00     0.295 A 
HETATM   15  O5  UNL     1     -11.596 -28.514  -3.162  1.00  0.00    -0.266 OA
HETATM   16  N4  UNL     1      -9.510 -28.328  -4.354  1.00  0.00    -0.325 N 
ATOM     17  H4  UNL     1      -9.085 -29.223  -4.110  1.00  0.00     0.169 HD
ENDROOT
BRANCH  10  18
HETATM   18  C7  UNL     1     -14.768 -26.135  -2.901  1.00  0.00     0.248 C 
HETATM   19  O2  UNL     1     -15.502 -27.149  -2.949  1.00  0.00    -0.642 OA
HETATM   20  O3  UNL     1     -15.199 -25.042  -2.173  1.00  0.00    -0.642 OA
ENDBRANCH  10  18
TORSDOF 1
ENDMDL
