MODEL 1
REMARK VINA RESULT: -5.941708436      0.000      0.000
REMARK  3 active torsions:
REMARK  status: ('A' for Active; 'I' for Inactive)
REMARK    1  A    between atoms: N1_1  and  C1_5 
REMARK    2  A    between atoms: C7_11  and  N2_12 
REMARK    3  A    between atoms: C8_16  and  O1_17 
ROOT
HETATM    1  C1  UNL     1      -7.994  12.398 -36.227  1.00  0.00     0.190 C 
HETATM    2  C2  UNL     1      -7.380  13.487 -35.360  1.00  0.00     0.040 C 
HETATM    3  C3  UNL     1      -7.833  13.201 -33.924  1.00  0.00     0.018 C 
HETATM    4  C4  UNL     1      -7.027  11.997 -33.457  1.00  0.00     0.008 C 
HETATM    5  C5  UNL     1      -6.944  10.946 -34.562  1.00  0.00     0.009 C 
HETATM    6  C6  UNL     1      -8.208  11.145 -35.405  1.00  0.00     0.049 C 
HETATM    7  C7  UNL     1      -9.328  11.362 -34.405  1.00  0.00     0.218 C 
HETATM    8  C8  UNL     1      -9.319  12.835 -34.051  1.00  0.00     0.153 C 
ENDROOT
BRANCH   1   9
HETATM    9  N1  UNL     1      -7.169  12.146 -37.371  1.00  0.00    -0.075 N 
ATOM     10  H13 UNL     1      -6.459  11.439 -37.180  1.00  0.00     0.274 HD
ATOM     11  H12 UNL     1      -7.678  11.655 -38.106  1.00  0.00     0.274 HD
ATOM     12  H11 UNL     1      -6.757  13.015 -37.710  1.00  0.00     0.274 HD
ENDBRANCH   1   9
BRANCH   7  13
HETATM   13  N2  UNL     1     -10.578  10.890 -34.884  1.00  0.00    -0.072 N 
ATOM     14  H23 UNL     1     -11.342  11.491 -34.575  1.00  0.00     0.274 HD
ATOM     15  H22 UNL     1     -10.661  11.026 -35.892  1.00  0.00     0.274 HD
ATOM     16  H21 UNL     1     -10.748   9.917 -34.629  1.00  0.00     0.274 HD
ENDBRANCH   7  13
BRANCH   8  17
HETATM   17  O1  UNL     1     -10.021  13.124 -32.902  1.00  0.00    -0.393 OA
ATOM     18  H1  UNL     1     -10.933  13.319 -33.083  1.00  0.00     0.210 HD
ENDBRANCH   8  17
TORSDOF 3
ENDMDL
MODEL 2
REMARK VINA RESULT: -5.706634717      1.001      1.050
REMARK  3 active torsions:
REMARK  status: ('A' for Active; 'I' for Inactive)
REMARK    1  A    between atoms: N1_1  and  C1_5 
REMARK    2  A    between atoms: C7_11  and  N2_12 
REMARK    3  A    between atoms: C8_16  and  O1_17 
ROOT
HETATM    1  C1  UNL     1      -8.279  13.048 -35.545  1.00  0.00     0.190 C 
HETATM    2  C2  UNL     1      -7.418  13.463 -34.360  1.00  0.00     0.040 C 
HETATM    3  C3  UNL     1      -7.584  12.364 -33.303  1.00  0.00     0.018 C 
HETATM    4  C4  UNL     1      -6.792  11.167 -33.808  1.00  0.00     0.008 C 
HETATM    5  C5  UNL     1      -7.019  10.966 -35.305  1.00  0.00     0.009 C 
HETATM    6  C6  UNL     1      -8.412  11.541 -35.584  1.00  0.00     0.049 C 
HETATM    7  C7  UNL     1      -9.281  11.065 -34.434  1.00  0.00     0.218 C 
HETATM    8  C8  UNL     1      -9.087  12.051 -33.302  1.00  0.00     0.153 C 
ENDROOT
BRANCH   1   9
HETATM    9  N1  UNL     1      -7.730  13.563 -36.764  1.00  0.00    -0.075 N 
ATOM     10  H13 UNL     1      -8.413  13.554 -37.522  1.00  0.00     0.274 HD
ATOM     11  H12 UNL     1      -7.573  14.570 -36.715  1.00  0.00     0.274 HD
ATOM     12  H11 UNL     1      -6.881  13.057 -37.013  1.00  0.00     0.274 HD
ENDBRANCH   1   9
BRANCH   7  13
HETATM   13  N2  UNL     1     -10.635  10.885 -34.820  1.00  0.00    -0.072 N 
ATOM     14  H23 UNL     1     -10.830   9.908 -35.035  1.00  0.00     0.274 HD
ATOM     15  H22 UNL     1     -11.264  11.007 -34.027  1.00  0.00     0.274 HD
ATOM     16  H21 UNL     1     -10.899  11.493 -35.596  1.00  0.00     0.274 HD
ENDBRANCH   7  13
BRANCH   8  17
HETATM   17  O1  UNL     1      -9.512  11.571 -32.082  1.00  0.00    -0.393 OA
ATOM     18  H1  UNL     1      -9.420  10.628 -32.020  1.00  0.00     0.210 HD
ENDBRANCH   8  17
TORSDOF 3
ENDMDL
MODEL 3
REMARK VINA RESULT: -5.537723847      2.135      3.459
REMARK  3 active torsions:
REMARK  status: ('A' for Active; 'I' for Inactive)
REMARK    1  A    between atoms: N1_1  and  C1_5 
REMARK    2  A    between atoms: C7_11  and  N2_12 
REMARK    3  A    between atoms: C8_16  and  O1_17 
ROOT
HETATM    1  C1  UNL     1      -9.839  11.033 -32.854  1.00  0.00     0.190 C 
HETATM    2  C2  UNL     1      -8.450  10.414 -32.836  1.00  0.00     0.040 C 
HETATM    3  C3  UNL     1      -7.667  11.080 -33.975  1.00  0.00     0.018 C 
HETATM    4  C4  UNL     1      -7.342  12.488 -33.498  1.00  0.00     0.008 C 
HETATM    5  C5  UNL     1      -8.550  13.111 -32.801  1.00  0.00     0.009 C 
HETATM    6  C6  UNL     1      -9.773  12.433 -33.428  1.00  0.00     0.049 C 
HETATM    7  C7  UNL     1      -9.481  12.373 -34.916  1.00  0.00     0.218 C 
HETATM    8  C8  UNL     1      -8.655  11.126 -35.150  1.00  0.00     0.153 C 
ENDROOT
BRANCH   1   9
HETATM    9  N1  UNL     1     -10.405  11.027 -31.538  1.00  0.00    -0.075 N 
ATOM     10  H13 UNL     1      -9.965  10.329 -30.939  1.00  0.00     0.274 HD
ATOM     11  H12 UNL     1     -10.150  11.862 -31.010  1.00  0.00     0.274 HD
ATOM     12  H11 UNL     1     -11.416  10.903 -31.587  1.00  0.00     0.274 HD
ENDBRANCH   1   9
BRANCH   7  13
HETATM   13  N2  UNL     1     -10.662  12.440 -35.700  1.00  0.00    -0.072 N 
ATOM     14  H23 UNL     1     -11.491  12.259 -35.134  1.00  0.00     0.274 HD
ATOM     15  H22 UNL     1     -10.864  13.400 -35.981  1.00  0.00     0.274 HD
ATOM     16  H21 UNL     1     -10.626  11.820 -36.509  1.00  0.00     0.274 HD
ENDBRANCH   7  13
BRANCH   8  17
HETATM   17  O1  UNL     1      -8.009  11.120 -36.366  1.00  0.00    -0.393 OA
ATOM     18  H1  UNL     1      -8.535  10.716 -37.046  1.00  0.00     0.210 HD
ENDBRANCH   8  17
TORSDOF 3
ENDMDL
MODEL 4
REMARK VINA RESULT: -5.424987976      2.053      2.848
REMARK  3 active torsions:
REMARK  status: ('A' for Active; 'I' for Inactive)
REMARK    1  A    between atoms: N1_1  and  C1_5 
REMARK    2  A    between atoms: C7_11  and  N2_12 
REMARK    3  A    between atoms: C8_16  and  O1_17 
ROOT
HETATM    1  C1  UNL     1      -7.993  13.236 -33.741  1.00  0.00     0.190 C 
HETATM    2  C2  UNL     1      -7.556  11.782 -33.636  1.00  0.00     0.040 C 
HETATM    3  C3  UNL     1      -8.814  10.981 -33.278  1.00  0.00     0.018 C 
HETATM    4  C4  UNL     1      -9.652  10.920 -34.547  1.00  0.00     0.008 C 
HETATM    5  C5  UNL     1      -9.664  12.278 -35.248  1.00  0.00     0.009 C 
HETATM    6  C6  UNL     1      -9.452  13.309 -34.135  1.00  0.00     0.049 C 
HETATM    7  C7  UNL     1     -10.327  12.844 -32.984  1.00  0.00     0.218 C 
HETATM    8  C8  UNL     1      -9.521  11.824 -32.208  1.00  0.00     0.153 C 
ENDROOT
BRANCH   1   9
HETATM    9  N1  UNL     1      -7.158  13.941 -34.668  1.00  0.00    -0.075 N 
ATOM     10  H13 UNL     1      -6.982  14.900 -34.368  1.00  0.00     0.274 HD
ATOM     11  H12 UNL     1      -6.197  13.599 -34.651  1.00  0.00     0.274 HD
ATOM     12  H11 UNL     1      -7.558  13.904 -35.605  1.00  0.00     0.274 HD
ENDBRANCH   1   9
BRANCH   7  13
HETATM   13  N2  UNL     1     -10.803  13.925 -32.198  1.00  0.00    -0.072 N 
ATOM     14  H23 UNL     1     -11.552  14.426 -32.676  1.00  0.00     0.274 HD
ATOM     15  H22 UNL     1     -11.322  13.591 -31.387  1.00  0.00     0.274 HD
ATOM     16  H21 UNL     1     -10.055  14.561 -31.920  1.00  0.00     0.274 HD
ENDBRANCH   7  13
BRANCH   8  17
HETATM   17  O1  UNL     1     -10.289  11.050 -31.366  1.00  0.00    -0.393 OA
ATOM     18  H1  UNL     1     -10.245  10.128 -31.593  1.00  0.00     0.210 HD
ENDBRANCH   8  17
TORSDOF 3
ENDMDL
MODEL 5
REMARK VINA RESULT: -5.379881493      1.841      2.432
REMARK  3 active torsions:
REMARK  status: ('A' for Active; 'I' for Inactive)
REMARK    1  A    between atoms: N1_1  and  C1_5 
REMARK    2  A    between atoms: C7_11  and  N2_12 
REMARK    3  A    between atoms: C8_16  and  O1_17 
ROOT
HETATM    1  C1  UNL     1      -8.067  13.847 -34.812  1.00  0.00     0.190 C 
HETATM    2  C2  UNL     1      -9.317  14.086 -33.978  1.00  0.00     0.040 C 
HETATM    3  C3  UNL     1      -9.945  12.706 -33.740  1.00  0.00     0.018 C 
HETATM    4  C4  UNL     1      -9.063  12.011 -32.713  1.00  0.00     0.008 C 
HETATM    5  C5  UNL     1      -7.587  12.245 -33.027  1.00  0.00     0.009 C 
HETATM    6  C6  UNL     1      -7.525  12.459 -34.543  1.00  0.00     0.049 C 
HETATM    7  C7  UNL     1      -8.452  11.414 -35.135  1.00  0.00     0.218 C 
HETATM    8  C8  UNL     1      -9.849  11.997 -35.098  1.00  0.00     0.153 C 
ENDROOT
BRANCH   1   9
HETATM    9  N1  UNL     1      -7.088  14.859 -34.544  1.00  0.00    -0.075 N 
ATOM     10  H13 UNL     1      -6.324  14.837 -35.219  1.00  0.00     0.274 HD
ATOM     11  H12 UNL     1      -7.443  15.793 -34.747  1.00  0.00     0.274 HD
ATOM     12  H11 UNL     1      -6.750  14.780 -33.585  1.00  0.00     0.274 HD
ENDBRANCH   1   9
BRANCH   7  13
HETATM   13  N2  UNL     1      -8.035  10.992 -36.425  1.00  0.00    -0.072 N 
ATOM     14  H23 UNL     1      -8.649  11.362 -37.150  1.00  0.00     0.274 HD
ATOM     15  H22 UNL     1      -7.165  11.450 -36.699  1.00  0.00     0.274 HD
ATOM     16  H21 UNL     1      -7.953   9.977 -36.493  1.00  0.00     0.274 HD
ENDBRANCH   7  13
BRANCH   8  17
HETATM   17  O1  UNL     1     -10.838  11.052 -35.257  1.00  0.00    -0.393 OA
ATOM     18  H1  UNL     1     -11.669  11.345 -34.902  1.00  0.00     0.210 HD
ENDBRANCH   8  17
TORSDOF 3
ENDMDL
