MODEL 1
REMARK VINA RESULT: -6.497227516      0.000      0.000
REMARK  3 active torsions:
REMARK  status: ('A' for Active; 'I' for Inactive)
REMARK    1  A    between atoms: C2_2  and  N2_5 
REMARK       I    between atoms: N2_5  and  C4_7 
REMARK    2  A    between atoms: C4_7  and  C5_9 
REMARK    3  A    between atoms: C8_12  and  C9_13 
ROOT
HETATM    1  C1  UNL     1      -5.063   0.977   8.803  1.00  0.00     0.048 C 
HETATM    2  C2  UNL     1      -4.526   1.436  10.133  1.00  0.00     0.188 C 
HETATM    3  C3  UNL     1      -5.612   1.613  11.085  1.00  0.00     0.084 C 
HETATM    4  N1  UNL     1      -6.467   1.741  11.849  1.00  0.00    -0.195 NA
ENDROOT
BRANCH   2   5
HETATM    5  N2  UNL     1      -3.812   2.694  10.043  1.00  0.00    -0.344 N 
HETATM    6  C4  UNL     1      -2.575   2.926  10.680  1.00  0.00     0.222 C 
HETATM    7  O1  UNL     1      -2.070   1.998  11.357  1.00  0.00    -0.273 OA
ATOM      8  H2  UNL     1      -4.225   3.447   9.493  1.00  0.00     0.163 HD
BRANCH   6   9
HETATM    9  C5  UNL     1      -1.886   4.228  10.559  1.00  0.00     0.078 C 
HETATM   10  C6  UNL     1      -2.374   4.970   9.308  1.00  0.00     0.015 C 
HETATM   11  C7  UNL     1      -1.805   6.380   9.427  1.00  0.00     0.016 C 
HETATM   12  C8  UNL     1      -0.297   6.218   9.203  1.00  0.00     0.087 C 
HETATM   13  C10 UNL     1       0.231   5.414  10.375  1.00  0.00     0.016 C 
HETATM   14  C11 UNL     1      -0.378   4.047  10.344  1.00  0.00     0.015 C 
BRANCH  12  15
HETATM   15  C9  UNL     1       0.274   7.564   9.139  1.00  0.00     0.177 C 
HETATM   16  O2  UNL     1       0.567   8.144  10.211  1.00  0.00    -0.648 OA
HETATM   17  O3  UNL     1       0.509   8.234   7.949  1.00  0.00    -0.648 OA
ENDBRANCH  12  15
ENDBRANCH   6   9
ENDBRANCH   2   5
TORSDOF 3
ENDMDL
MODEL 2
REMARK VINA RESULT: -6.391554825      1.617      2.077
REMARK  3 active torsions:
REMARK  status: ('A' for Active; 'I' for Inactive)
REMARK    1  A    between atoms: C2_2  and  N2_5 
REMARK       I    between atoms: N2_5  and  C4_7 
REMARK    2  A    between atoms: C4_7  and  C5_9 
REMARK    3  A    between atoms: C8_12  and  C9_13 
ROOT
HETATM    1  C1  UNL     1      -3.200  -0.845  11.077  1.00  0.00     0.048 C 
HETATM    2  C2  UNL     1      -3.858   0.303  10.357  1.00  0.00     0.188 C 
HETATM    3  C3  UNL     1      -4.253  -0.099   9.016  1.00  0.00     0.084 C 
HETATM    4  N1  UNL     1      -4.583  -0.416   7.957  1.00  0.00    -0.195 NA
ENDROOT
BRANCH   2   5
HETATM    5  N2  UNL     1      -2.987   1.454  10.230  1.00  0.00    -0.344 N 
HETATM    6  C4  UNL     1      -3.219   2.675  10.899  1.00  0.00     0.222 C 
HETATM    7  O1  UNL     1      -4.230   2.766  11.638  1.00  0.00    -0.273 OA
ATOM      8  H2  UNL     1      -2.167   1.379   9.629  1.00  0.00     0.163 HD
BRANCH   6   9
HETATM    9  C5  UNL     1      -2.302   3.821  10.737  1.00  0.00     0.078 C 
HETATM   10  C6  UNL     1      -2.614   4.569   9.435  1.00  0.00     0.015 C 
HETATM   11  C7  UNL     1      -1.800   5.857   9.502  1.00  0.00     0.016 C 
HETATM   12  C8  UNL     1      -0.341   5.412   9.340  1.00  0.00     0.087 C 
HETATM   13  C10 UNL     1       0.001   4.591  10.567  1.00  0.00     0.016 C 
HETATM   14  C11 UNL     1      -0.846   3.358  10.584  1.00  0.00     0.015 C 
BRANCH  12  15
HETATM   15  C9  UNL     1       0.467   6.626   9.227  1.00  0.00     0.177 C 
HETATM   16  O2  UNL     1       0.057   7.555   8.492  1.00  0.00    -0.648 OA
HETATM   17  O3  UNL     1       1.668   6.805   9.895  1.00  0.00    -0.648 OA
ENDBRANCH  12  15
ENDBRANCH   6   9
ENDBRANCH   2   5
TORSDOF 3
ENDMDL
MODEL 3
REMARK VINA RESULT: -6.357843244      3.055      6.647
REMARK  3 active torsions:
REMARK  status: ('A' for Active; 'I' for Inactive)
REMARK    1  A    between atoms: C2_2  and  N2_5 
REMARK       I    between atoms: N2_5  and  C4_7 
REMARK    2  A    between atoms: C4_7  and  C5_9 
REMARK    3  A    between atoms: C8_12  and  C9_13 
ROOT
HETATM    1  C1  UNL     1       1.585   7.866  11.972  1.00  0.00     0.048 C 
HETATM    2  C2  UNL     1       1.336   7.234  10.627  1.00  0.00     0.188 C 
HETATM    3  C3  UNL     1       0.917   8.241   9.663  1.00  0.00     0.084 C 
HETATM    4  N1  UNL     1       0.600   9.036   8.890  1.00  0.00    -0.195 NA
ENDROOT
BRANCH   2   5
HETATM    5  N2  UNL     1       0.306   6.216  10.672  1.00  0.00    -0.344 N 
HETATM    6  C4  UNL     1       0.356   5.034   9.902  1.00  0.00     0.222 C 
HETATM    7  O1  UNL     1       1.339   4.859   9.142  1.00  0.00    -0.273 OA
ATOM      8  H2  UNL     1      -0.492   6.360  11.290  1.00  0.00     0.163 HD
BRANCH   6   9
HETATM    9  C5  UNL     1      -0.721   4.025   9.982  1.00  0.00     0.078 C 
HETATM   10  C6  UNL     1      -2.082   4.714  10.139  1.00  0.00     0.015 C 
HETATM   11  C7  UNL     1      -3.118   3.611   9.949  1.00  0.00     0.016 C 
HETATM   12  C8  UNL     1      -2.995   2.733  11.200  1.00  0.00     0.087 C 
HETATM   13  C10 UNL     1      -1.626   2.086  11.142  1.00  0.00     0.016 C 
HETATM   14  C11 UNL     1      -0.577   3.149  11.234  1.00  0.00     0.015 C 
BRANCH  12  15
HETATM   15  C9  UNL     1      -4.084   1.757  11.147  1.00  0.00     0.177 C 
HETATM   16  O2  UNL     1      -5.225   2.109  11.531  1.00  0.00    -0.648 OA
HETATM   17  O3  UNL     1      -3.922   0.459  10.691  1.00  0.00    -0.648 OA
ENDBRANCH  12  15
ENDBRANCH   6   9
ENDBRANCH   2   5
TORSDOF 3
ENDMDL
MODEL 4
REMARK VINA RESULT: -6.345551786      1.613      2.392
REMARK  3 active torsions:
REMARK  status: ('A' for Active; 'I' for Inactive)
REMARK    1  A    between atoms: C2_2  and  N2_5 
REMARK       I    between atoms: N2_5  and  C4_7 
REMARK    2  A    between atoms: C4_7  and  C5_9 
REMARK    3  A    between atoms: C8_12  and  C9_13 
ROOT
HETATM    1  C1  UNL     1      -5.906  -1.125   8.933  1.00  0.00     0.048 C 
HETATM    2  C2  UNL     1      -5.280  -0.476  10.140  1.00  0.00     0.188 C 
HETATM    3  C3  UNL     1      -6.310   0.000  11.051  1.00  0.00     0.084 C 
HETATM    4  N1  UNL     1      -7.120   0.366  11.785  1.00  0.00    -0.195 NA
ENDROOT
BRANCH   2   5
HETATM    5  N2  UNL     1      -4.443   0.655   9.794  1.00  0.00    -0.344 N 
HETATM    6  C4  UNL     1      -3.161   0.863  10.345  1.00  0.00     0.222 C 
HETATM    7  O1  UNL     1      -2.726   0.028  11.175  1.00  0.00    -0.273 OA
ATOM      8  H2  UNL     1      -4.798   1.333   9.120  1.00  0.00     0.163 HD
BRANCH   6   9
HETATM    9  C5  UNL     1      -2.346   2.034   9.961  1.00  0.00     0.078 C 
HETATM   10  C6  UNL     1      -1.521   2.520  11.158  1.00  0.00     0.015 C 
HETATM   11  C7  UNL     1      -0.542   3.542  10.587  1.00  0.00     0.016 C 
HETATM   12  C8  UNL     1      -1.408   4.751  10.211  1.00  0.00     0.087 C 
HETATM   13  C10 UNL     1      -2.311   4.303   9.079  1.00  0.00     0.016 C 
HETATM   14  C11 UNL     1      -3.228   3.232   9.579  1.00  0.00     0.015 C 
BRANCH  12  15
HETATM   15  C9  UNL     1      -0.496   5.825   9.816  1.00  0.00     0.177 C 
HETATM   16  O2  UNL     1      -0.392   6.830  10.559  1.00  0.00    -0.648 OA
HETATM   17  O3  UNL     1       0.264   5.790   8.658  1.00  0.00    -0.648 OA
ENDBRANCH  12  15
ENDBRANCH   6   9
ENDBRANCH   2   5
TORSDOF 3
ENDMDL
MODEL 5
REMARK VINA RESULT: -6.282275287      1.080      1.427
REMARK  3 active torsions:
REMARK  status: ('A' for Active; 'I' for Inactive)
REMARK    1  A    between atoms: C2_2  and  N2_5 
REMARK       I    between atoms: N2_5  and  C4_7 
REMARK    2  A    between atoms: C4_7  and  C5_9 
REMARK    3  A    between atoms: C8_12  and  C9_13 
ROOT
HETATM    1  C1  UNL     1      -4.774  -0.436   9.177  1.00  0.00     0.048 C 
HETATM    2  C2  UNL     1      -4.676   0.262  10.509  1.00  0.00     0.188 C 
HETATM    3  C3  UNL     1      -6.003   0.478  11.066  1.00  0.00     0.084 C 
HETATM    4  N1  UNL     1      -7.051   0.639  11.520  1.00  0.00    -0.195 NA
ENDROOT
BRANCH   2   5
HETATM    5  N2  UNL     1      -4.024   1.552  10.416  1.00  0.00    -0.344 N 
HETATM    6  C4  UNL     1      -2.792   1.840  11.039  1.00  0.00     0.222 C 
HETATM    7  O1  UNL     1      -2.235   0.934  11.706  1.00  0.00    -0.273 OA
ATOM      8  H2  UNL     1      -4.478   2.287   9.874  1.00  0.00     0.163 HD
BRANCH   6   9
HETATM    9  C5  UNL     1      -2.167   3.173  10.915  1.00  0.00     0.078 C 
HETATM   10  C6  UNL     1      -2.741   3.916   9.703  1.00  0.00     0.015 C 
HETATM   11  C7  UNL     1      -2.229   5.348   9.826  1.00  0.00     0.016 C 
HETATM   12  C8  UNL     1      -0.727   5.258   9.535  1.00  0.00     0.087 C 
HETATM   13  C10 UNL     1      -0.113   4.456  10.665  1.00  0.00     0.016 C 
HETATM   14  C11 UNL     1      -0.662   3.064  10.632  1.00  0.00     0.015 C 
BRANCH  12  15
HETATM   15  C9  UNL     1      -0.219   6.628   9.473  1.00  0.00     0.177 C 
HETATM   16  O2  UNL     1      -0.101   7.176   8.351  1.00  0.00    -0.648 OA
HETATM   17  O3  UNL     1       0.140   7.358  10.595  1.00  0.00    -0.648 OA
ENDBRANCH  12  15
ENDBRANCH   6   9
ENDBRANCH   2   5
TORSDOF 3
ENDMDL
