MODEL 1
REMARK VINA RESULT: -5.718483176      0.000      0.000
REMARK  3 active torsions:
REMARK  status: ('A' for Active; 'I' for Inactive)
REMARK    1  A    between atoms: C2_4  and  N2_5 
REMARK    2  A    between atoms: N2_5  and  N3_7 
REMARK    3  A    between atoms: N3_7  and  C3_8 
ROOT
HETATM    1  N2  UNL     1      13.817  16.577  13.617  1.00  0.00    -0.284 N 
ATOM      2  H2  UNL     1      13.992  16.287  12.655  1.00  0.00     0.184 HD
ENDROOT
BRANCH   1   3
HETATM    3  C2  UNL     1      12.991  17.697  13.879  1.00  0.00     0.133 A 
HETATM    4  N1  UNL     1      13.038  18.876  13.249  1.00  0.00    -0.337 N 
HETATM    5  C1  UNL     1      12.077  19.647  13.791  1.00  0.00     0.182 A 
ATOM      6  H1  UNL     1      13.680  19.140  12.501  1.00  0.00     0.168 HD
HETATM    7  N5  UNL     1      11.411  18.998  14.753  1.00  0.00    -0.358 N 
HETATM    8  C5  UNL     1      11.965  17.787  14.820  1.00  0.00     0.138 A 
ATOM      9  H5  UNL     1      10.639  19.355  15.317  1.00  0.00     0.166 HD
ENDBRANCH   1   3
BRANCH   1  10
HETATM   10  N3  UNL     1      14.389  15.872  14.670  1.00  0.00    -0.078 NA
BRANCH  10  11
HETATM   11  C3  UNL     1      13.449  14.892  15.146  1.00  0.00     0.442 C 
HETATM   12  N4  UNL     1      13.967  13.563  15.403  1.00  0.00    -0.012 N 
HETATM   13  C4  UNL     1      12.946  13.579  16.466  1.00  0.00     0.408 C 
ATOM     14  H42 UNL     1      14.023  12.836  14.691  1.00  0.00     0.284 HD
ATOM     15  H41 UNL     1      14.953  13.370  15.577  1.00  0.00     0.284 HD
HETATM   16  O1  UNL     1      13.212  14.972  16.539  1.00  0.00    -0.318 OA
ENDBRANCH  10  11
ENDBRANCH   1  10
TORSDOF 3
ENDMDL
MODEL 2
REMARK VINA RESULT: -5.519609143      1.506      1.905
REMARK  3 active torsions:
REMARK  status: ('A' for Active; 'I' for Inactive)
REMARK    1  A    between atoms: C2_4  and  N2_5 
REMARK    2  A    between atoms: N2_5  and  N3_7 
REMARK    3  A    between atoms: N3_7  and  C3_8 
ROOT
HETATM    1  N2  UNL     1      11.653  16.383  15.697  1.00  0.00    -0.284 N 
ATOM      2  H2  UNL     1      10.678  16.085  15.738  1.00  0.00     0.184 HD
ENDROOT
BRANCH   1   3
HETATM    3  C2  UNL     1      12.028  17.459  14.857  1.00  0.00     0.133 A 
HETATM    4  N1  UNL     1      11.520  18.696  14.885  1.00  0.00    -0.337 N 
HETATM    5  C1  UNL     1      12.164  19.404  13.938  1.00  0.00     0.182 A 
ATOM      6  H1  UNL     1      10.786  19.037  15.504  1.00  0.00     0.168 HD
HETATM    7  N5  UNL     1      13.073  18.658  13.300  1.00  0.00    -0.358 N 
HETATM    8  C5  UNL     1      13.002  17.449  13.857  1.00  0.00     0.138 A 
ATOM      9  H5  UNL     1      13.692  18.953  12.544  1.00  0.00     0.166 HD
ENDBRANCH   1   3
BRANCH   1  10
HETATM   10  N3  UNL     1      12.611  15.733  16.468  1.00  0.00    -0.078 NA
BRANCH  10  11
HETATM   11  C3  UNL     1      12.881  14.442  15.891  1.00  0.00     0.442 C 
HETATM   12  N4  UNL     1      13.156  13.361  16.815  1.00  0.00    -0.012 N 
HETATM   13  C4  UNL     1      12.483  12.559  15.777  1.00  0.00     0.408 C 
ATOM     14  H42 UNL     1      14.088  13.150  17.170  1.00  0.00     0.284 HD
ATOM     15  H41 UNL     1      12.864  13.371  17.792  1.00  0.00     0.284 HD
HETATM   16  O1  UNL     1      11.711  13.728  15.541  1.00  0.00    -0.318 OA
ENDBRANCH  10  11
ENDBRANCH   1  10
TORSDOF 3
ENDMDL
MODEL 3
REMARK VINA RESULT: -5.256520281      1.373      1.399
REMARK  3 active torsions:
REMARK  status: ('A' for Active; 'I' for Inactive)
REMARK    1  A    between atoms: C2_4  and  N2_5 
REMARK    2  A    between atoms: N2_5  and  N3_7 
REMARK    3  A    between atoms: N3_7  and  C3_8 
ROOT
HETATM    1  N2  UNL     1      12.241  16.638  14.970  1.00  0.00    -0.284 N 
ATOM      2  H2  UNL     1      11.394  16.239  15.374  1.00  0.00     0.184 HD
ENDROOT
BRANCH   1   3
HETATM    3  C2  UNL     1      12.236  17.971  14.490  1.00  0.00     0.133 A 
HETATM    4  N1  UNL     1      12.935  18.437  13.450  1.00  0.00    -0.337 N 
HETATM    5  C1  UNL     1      12.628  19.743  13.327  1.00  0.00     0.182 A 
ATOM      6  H1  UNL     1      13.578  17.906  12.863  1.00  0.00     0.168 HD
HETATM    7  N5  UNL     1      11.750  20.131  14.258  1.00  0.00    -0.358 N 
HETATM    8  C5  UNL     1      11.496  19.044  14.989  1.00  0.00     0.138 A 
ATOM      9  H5  UNL     1      11.356  21.063  14.384  1.00  0.00     0.166 HD
ENDBRANCH   1   3
BRANCH   1  10
HETATM   10  N3  UNL     1      13.400  15.873  14.891  1.00  0.00    -0.078 NA
BRANCH  10  11
HETATM   11  C3  UNL     1      13.261  14.720  15.741  1.00  0.00     0.442 C 
HETATM   12  N4  UNL     1      11.912  14.341  16.109  1.00  0.00    -0.012 N 
HETATM   13  C4  UNL     1      12.488  12.985  16.070  1.00  0.00     0.408 C 
ATOM     14  H42 UNL     1      11.425  14.720  16.920  1.00  0.00     0.284 HD
ATOM     15  H41 UNL     1      11.087  14.615  15.575  1.00  0.00     0.284 HD
HETATM   16  O1  UNL     1      13.319  13.494  15.036  1.00  0.00    -0.318 OA
ENDBRANCH  10  11
ENDBRANCH   1  10
TORSDOF 3
ENDMDL
MODEL 4
REMARK VINA RESULT: -5.207273402      2.179      4.829
REMARK  3 active torsions:
REMARK  status: ('A' for Active; 'I' for Inactive)
REMARK    1  A    between atoms: C2_4  and  N2_5 
REMARK    2  A    between atoms: N2_5  and  N3_7 
REMARK    3  A    between atoms: N3_7  and  C3_8 
ROOT
HETATM    1  N2  UNL     1      13.775  16.833  13.828  1.00  0.00    -0.284 N 
ATOM      2  H2  UNL     1      14.758  17.089  13.735  1.00  0.00     0.184 HD
ENDROOT
BRANCH   1   3
HETATM    3  C2  UNL     1      13.394  15.811  14.731  1.00  0.00     0.133 A 
HETATM    4  N1  UNL     1      14.047  14.664  14.946  1.00  0.00    -0.337 N 
HETATM    5  C1  UNL     1      13.358  13.992  15.887  1.00  0.00     0.182 A 
ATOM      6  H1  UNL     1      14.903  14.357  14.484  1.00  0.00     0.168 HD
HETATM    7  N5  UNL     1      12.278  14.674  16.286  1.00  0.00    -0.358 N 
HETATM    8  C5  UNL     1      12.285  15.805  15.579  1.00  0.00     0.138 A 
ATOM      9  H5  UNL     1      11.592  14.389  16.985  1.00  0.00     0.166 HD
ENDBRANCH   1   3
BRANCH   1  10
HETATM   10  N3  UNL     1      12.812  17.487  13.068  1.00  0.00    -0.078 NA
BRANCH  10  11
HETATM   11  C3  UNL     1      12.557  18.781  13.644  1.00  0.00     0.442 C 
HETATM   12  N4  UNL     1      13.229  19.910  13.034  1.00  0.00    -0.012 N 
HETATM   13  C4  UNL     1      11.994  20.612  13.427  1.00  0.00     0.408 C 
ATOM     14  H42 UNL     1      14.161  20.220  13.305  1.00  0.00     0.284 HD
ATOM     15  H41 UNL     1      13.588  19.899  12.079  1.00  0.00     0.284 HD
HETATM   16  O1  UNL     1      11.351  19.368  13.192  1.00  0.00    -0.318 OA
ENDBRANCH  10  11
ENDBRANCH   1  10
TORSDOF 3
ENDMDL
MODEL 5
REMARK VINA RESULT: -5.204394763      2.141      5.142
REMARK  3 active torsions:
REMARK  status: ('A' for Active; 'I' for Inactive)
REMARK    1  A    between atoms: C2_4  and  N2_5 
REMARK    2  A    between atoms: N2_5  and  N3_7 
REMARK    3  A    between atoms: N3_7  and  C3_8 
ROOT
HETATM    1  N2  UNL     1      12.185  16.791  15.128  1.00  0.00    -0.284 N 
ATOM      2  H2  UNL     1      11.543  17.291  15.742  1.00  0.00     0.184 HD
ENDROOT
BRANCH   1   3
HETATM    3  C2  UNL     1      12.605  15.479  15.460  1.00  0.00     0.133 A 
HETATM    4  N1  UNL     1      11.916  14.592  16.186  1.00  0.00    -0.337 N 
HETATM    5  C1  UNL     1      12.664  13.473  16.247  1.00  0.00     0.182 A 
ATOM      6  H1  UNL     1      11.001  14.734  16.611  1.00  0.00     0.168 HD
HETATM    7  N5  UNL     1      13.815  13.616  15.580  1.00  0.00    -0.358 N 
HETATM    8  C5  UNL     1      13.795  14.854  15.086  1.00  0.00     0.138 A 
ATOM      9  H5  UNL     1      14.555  12.921  15.472  1.00  0.00     0.166 HD
ENDBRANCH   1   3
BRANCH   1  10
HETATM   10  N3  UNL     1      12.648  17.398  13.966  1.00  0.00    -0.078 NA
BRANCH  10  11
HETATM   11  C3  UNL     1      12.401  18.813  14.044  1.00  0.00     0.442 C 
HETATM   12  N4  UNL     1      13.185  19.660  13.168  1.00  0.00    -0.012 N 
HETATM   13  C4  UNL     1      11.953  20.470  13.165  1.00  0.00     0.408 C 
ATOM     14  H42 UNL     1      14.100  20.033  13.420  1.00  0.00     0.284 HD
ATOM     15  H41 UNL     1      13.636  19.323  12.318  1.00  0.00     0.284 HD
HETATM   16  O1  UNL     1      11.276  19.228  13.292  1.00  0.00    -0.318 OA
ENDBRANCH  10  11
ENDBRANCH   1  10
TORSDOF 3
ENDMDL
