MODEL 1
REMARK VINA RESULT: -5.290168895      0.000      0.000
REMARK  3 active torsions:
REMARK  status: ('A' for Active; 'I' for Inactive)
REMARK    1  A    between atoms: C2_5  and  N3_6 
REMARK    2  A    between atoms: N3_6  and  N4_8 
REMARK    3  A    between atoms: N4_8  and  C3_10 
ROOT
HETATM    1  C1  UNL     1     -18.614  -7.147 -10.906  1.00  0.00     0.198 C 
HETATM    2  N1  UNL     1     -17.699  -6.443 -11.807  1.00  0.00    -0.114 N 
HETATM    3  N2  UNL     1     -17.769  -6.558 -13.114  1.00  0.00    -0.114 N 
ATOM      4  H2  UNL     1     -18.450  -7.133 -13.611  1.00  0.00     0.206 HD
HETATM    5  C2  UNL     1     -16.823  -5.815 -13.701  1.00  0.00     0.726 A 
HETATM    6  N5  UNL     1     -16.157  -5.231 -12.686  1.00  0.00    -0.018 N 
ATOM      7  H5  UNL     1     -15.367  -4.595 -12.791  1.00  0.00     0.203 HD
HETATM    8  C4  UNL     1     -16.697  -5.618 -11.498  1.00  0.00     0.707 A 
HETATM    9  N6  UNL     1     -16.320  -5.265 -10.324  1.00  0.00    -0.233 N 
ATOM     10  H61 UNL     1     -15.555  -4.634 -10.087  1.00  0.00     0.174 HD
ATOM     11  H62 UNL     1     -16.725  -5.555  -9.433  1.00  0.00     0.174 HD
ENDROOT
BRANCH   5  12
HETATM   12  N3  UNL     1     -16.613  -5.713 -15.105  1.00  0.00    -0.128 N 
ATOM     13  H3  UNL     1     -16.465  -6.573 -15.633  1.00  0.00     0.205 HD
BRANCH  12  14
HETATM   14  N4  UNL     1     -16.599  -4.508 -15.795  1.00  0.00    -0.263 N 
ATOM     15  H4  UNL     1     -15.719  -4.111 -16.124  1.00  0.00     0.190 HD
BRANCH  14  16
HETATM   16  C3  UNL     1     -17.826  -3.835 -16.037  1.00  0.00     0.369 C 
HETATM   17  O1  UNL     1     -18.828  -4.439 -16.536  1.00  0.00    -0.282 OA
ENDBRANCH  14  16
ENDBRANCH  12  14
ENDBRANCH   5  12
TORSDOF 3
ENDMDL
MODEL 2
REMARK VINA RESULT: -4.968200179      2.430      3.211
REMARK  3 active torsions:
REMARK  status: ('A' for Active; 'I' for Inactive)
REMARK    1  A    between atoms: C2_5  and  N3_6 
REMARK    2  A    between atoms: N3_6  and  N4_8 
REMARK    3  A    between atoms: N4_8  and  C3_10 
ROOT
HETATM    1  C1  UNL     1     -18.046  -8.845  -8.300  1.00  0.00     0.198 C 
HETATM    2  N1  UNL     1     -17.791  -7.764  -9.254  1.00  0.00    -0.114 N 
HETATM    3  N2  UNL     1     -18.224  -7.801 -10.494  1.00  0.00    -0.114 N 
ATOM      4  H2  UNL     1     -18.766  -8.565 -10.898  1.00  0.00     0.206 HD
HETATM    5  C2  UNL     1     -17.856  -6.694 -11.152  1.00  0.00     0.726 A 
HETATM    6  N5  UNL     1     -17.166  -5.966 -10.252  1.00  0.00    -0.018 N 
ATOM      7  H5  UNL     1     -16.743  -5.056 -10.434  1.00  0.00     0.203 HD
HETATM    8  C4  UNL     1     -17.120  -6.627  -9.063  1.00  0.00     0.707 A 
HETATM    9  N6  UNL     1     -16.548  -6.239  -7.982  1.00  0.00    -0.233 N 
ATOM     10  H61 UNL     1     -16.035  -5.369  -7.835  1.00  0.00     0.174 HD
ATOM     11  H62 UNL     1     -16.513  -6.734  -7.091  1.00  0.00     0.174 HD
ENDROOT
BRANCH   5  12
HETATM   12  N3  UNL     1     -18.155  -6.411 -12.514  1.00  0.00    -0.128 N 
ATOM     13  H3  UNL     1     -19.096  -6.093 -12.744  1.00  0.00     0.205 HD
BRANCH  12  14
HETATM   14  N4  UNL     1     -17.236  -6.546 -13.547  1.00  0.00    -0.263 N 
ATOM     15  H4  UNL     1     -17.282  -7.345 -14.179  1.00  0.00     0.190 HD
BRANCH  14  16
HETATM   16  C3  UNL     1     -16.232  -5.555 -13.713  1.00  0.00     0.369 C 
HETATM   17  O1  UNL     1     -15.242  -5.474 -12.917  1.00  0.00    -0.282 OA
ENDBRANCH  14  16
ENDBRANCH  12  14
ENDBRANCH   5  12
TORSDOF 3
ENDMDL
MODEL 3
REMARK VINA RESULT: -4.914713994      0.813      1.708
REMARK  3 active torsions:
REMARK  status: ('A' for Active; 'I' for Inactive)
REMARK    1  A    between atoms: C2_5  and  N3_6 
REMARK    2  A    between atoms: N3_6  and  N4_8 
REMARK    3  A    between atoms: N4_8  and  C3_10 
ROOT
HETATM    1  C1  UNL     1     -16.629  -5.572 -10.331  1.00  0.00     0.198 C 
HETATM    2  N1  UNL     1     -17.094  -5.889 -11.684  1.00  0.00    -0.114 N 
HETATM    3  N2  UNL     1     -16.431  -5.527 -12.759  1.00  0.00    -0.114 N 
ATOM      4  H2  UNL     1     -15.554  -5.006 -12.754  1.00  0.00     0.206 HD
HETATM    5  C2  UNL     1     -17.069  -5.939 -13.862  1.00  0.00     0.726 A 
HETATM    6  N5  UNL     1     -18.167  -6.577 -13.413  1.00  0.00    -0.018 N 
ATOM      7  H5  UNL     1     -18.874  -7.014 -14.004  1.00  0.00     0.203 HD
HETATM    8  C4  UNL     1     -18.192  -6.551 -12.052  1.00  0.00     0.707 A 
HETATM    9  N6  UNL     1     -19.086  -7.054 -11.283  1.00  0.00    -0.233 N 
ATOM     10  H61 UNL     1     -19.926  -7.560 -11.565  1.00  0.00     0.174 HD
ATOM     11  H62 UNL     1     -19.104  -7.034 -10.264  1.00  0.00     0.174 HD
ENDROOT
BRANCH   5  12
HETATM   12  N3  UNL     1     -16.630  -5.712 -15.196  1.00  0.00    -0.128 N 
ATOM     13  H3  UNL     1     -16.316  -6.515 -15.743  1.00  0.00     0.205 HD
BRANCH  12  14
HETATM   14  N4  UNL     1     -16.603  -4.459 -15.795  1.00  0.00    -0.263 N 
ATOM     15  H4  UNL     1     -15.714  -4.012 -16.019  1.00  0.00     0.190 HD
BRANCH  14  16
HETATM   16  C3  UNL     1     -17.830  -3.807 -16.091  1.00  0.00     0.369 C 
HETATM   17  O1  UNL     1     -18.833  -4.451 -16.533  1.00  0.00    -0.282 OA
ENDBRANCH  14  16
ENDBRANCH  12  14
ENDBRANCH   5  12
TORSDOF 3
ENDMDL
MODEL 4
REMARK VINA RESULT: -4.635020569      4.419      5.968
REMARK  3 active torsions:
REMARK  status: ('A' for Active; 'I' for Inactive)
REMARK    1  A    between atoms: C2_5  and  N3_6 
REMARK    2  A    between atoms: N3_6  and  N4_8 
REMARK    3  A    between atoms: N4_8  and  C3_10 
ROOT
HETATM    1  C1  UNL     1     -18.127 -10.027  -6.268  1.00  0.00     0.198 C 
HETATM    2  N1  UNL     1     -17.175  -9.023  -6.746  1.00  0.00    -0.114 N 
HETATM    3  N2  UNL     1     -17.542  -7.996  -7.479  1.00  0.00    -0.114 N 
ATOM      4  H2  UNL     1     -18.499  -7.806  -7.776  1.00  0.00     0.206 HD
HETATM    5  C2  UNL     1     -16.483  -7.234  -7.782  1.00  0.00     0.726 A 
HETATM    6  N5  UNL     1     -15.435  -7.846  -7.197  1.00  0.00    -0.018 N 
ATOM      7  H5  UNL     1     -14.469  -7.519  -7.235  1.00  0.00     0.203 HD
HETATM    8  C4  UNL     1     -15.857  -8.965  -6.547  1.00  0.00     0.707 A 
HETATM    9  N6  UNL     1     -15.137  -9.794  -5.885  1.00  0.00    -0.233 N 
ATOM     10  H61 UNL     1     -14.130  -9.750  -5.732  1.00  0.00     0.174 HD
ATOM     11  H62 UNL     1     -15.454 -10.633  -5.398  1.00  0.00     0.174 HD
ENDROOT
BRANCH   5  12
HETATM   12  N3  UNL     1     -16.523  -6.047  -8.565  1.00  0.00    -0.128 N 
ATOM     13  H3  UNL     1     -16.255  -5.168  -8.122  1.00  0.00     0.205 HD
BRANCH  12  14
HETATM   14  N4  UNL     1     -16.909  -6.018  -9.899  1.00  0.00    -0.263 N 
ATOM     15  H4  UNL     1     -17.557  -6.717 -10.265  1.00  0.00     0.190 HD
BRANCH  14  16
HETATM   16  C3  UNL     1     -16.390  -5.005 -10.748  1.00  0.00     0.369 C 
HETATM   17  O1  UNL     1     -15.873  -5.284 -11.876  1.00  0.00    -0.282 OA
ENDBRANCH  14  16
ENDBRANCH  12  14
ENDBRANCH   5  12
TORSDOF 3
ENDMDL
MODEL 5
REMARK VINA RESULT: -4.577815565      2.850      3.956
REMARK  3 active torsions:
REMARK  status: ('A' for Active; 'I' for Inactive)
REMARK    1  A    between atoms: C2_5  and  N3_6 
REMARK    2  A    between atoms: N3_6  and  N4_8 
REMARK    3  A    between atoms: N4_8  and  C3_10 
ROOT
HETATM    1  C1  UNL     1     -16.786  -6.478  -7.457  1.00  0.00     0.198 C 
HETATM    2  N1  UNL     1     -17.325  -7.038  -8.698  1.00  0.00    -0.114 N 
HETATM    3  N2  UNL     1     -17.455  -6.325  -9.794  1.00  0.00    -0.114 N 
ATOM      4  H2  UNL     1     -17.199  -5.342  -9.882  1.00  0.00     0.206 HD
HETATM    5  C2  UNL     1     -17.971  -7.072 -10.779  1.00  0.00     0.726 A 
HETATM    6  N5  UNL     1     -18.156  -8.289 -10.234  1.00  0.00    -0.018 N 
ATOM      7  H5  UNL     1     -18.539  -9.099 -10.722  1.00  0.00     0.203 HD
HETATM    8  C4  UNL     1     -17.756  -8.278  -8.933  1.00  0.00     0.707 A 
HETATM    9  N6  UNL     1     -17.788  -9.256  -8.103  1.00  0.00    -0.233 N 
ATOM     10  H61 UNL     1     -18.117 -10.205  -8.283  1.00  0.00     0.174 HD
ATOM     11  H62 UNL     1     -17.488  -9.247  -7.128  1.00  0.00     0.174 HD
ENDROOT
BRANCH   5  12
HETATM   12  N3  UNL     1     -18.247  -6.613 -12.097  1.00  0.00    -0.128 N 
ATOM     13  H3  UNL     1     -19.175  -6.238 -12.293  1.00  0.00     0.205 HD
BRANCH  12  14
HETATM   14  N4  UNL     1     -17.322  -6.648 -13.133  1.00  0.00    -0.263 N 
ATOM     15  H4  UNL     1     -17.314  -7.426 -13.793  1.00  0.00     0.190 HD
BRANCH  14  16
HETATM   16  C3  UNL     1     -16.386  -5.588 -13.262  1.00  0.00     0.369 C 
HETATM   17  O1  UNL     1     -15.587  -5.290 -12.318  1.00  0.00    -0.282 OA
ENDBRANCH  14  16
ENDBRANCH  12  14
ENDBRANCH   5  12
TORSDOF 3
ENDMDL
