MODEL 1
REMARK VINA RESULT: -7.762072715      0.000      0.000
REMARK  11 active torsions:
REMARK  status: ('A' for Active; 'I' for Inactive)
REMARK    1  A    between atoms: C3_3  and  O1_4 
REMARK    2  A    between atoms: C3_3  and  C16_26 
REMARK    3  A    between atoms: O1_4  and  C4_5 
REMARK    4  A    between atoms: C5_6  and  O2_7 
REMARK    5  A    between atoms: C6_9  and  O3_10 
REMARK    6  A    between atoms: C7_12  and  O4_13 
REMARK    7  A    between atoms: O4_13  and  C8_14 
REMARK    8  A    between atoms: C14_20  and  O5_21 
REMARK    9  A    between atoms: C15_23  and  O6_24 
REMARK   10  A    between atoms: C16_26  and  O7_27 
REMARK   11  A    between atoms: C19_31  and  N1_32 
ROOT
HETATM    1  C1  UNL     1      17.964  -9.877  23.334  1.00  0.00     0.015 C 
HETATM    2  C2  UNL     1      17.417  -8.836  23.091  1.00  0.00    -0.082 C 
HETATM    3  C3  UNL     1      16.729  -7.522  22.756  1.00  0.00     0.234 C 
ENDROOT
BRANCH   3   4
HETATM    4  O1  UNL     1      17.668  -6.718  22.219  1.00  0.00    -0.360 OA
BRANCH   4   5
HETATM    5  C4  UNL     1      17.351  -6.065  21.054  1.00  0.00     0.185 C 
HETATM    6  C5  UNL     1      17.995  -6.753  19.894  1.00  0.00     0.181 C 
HETATM    7  C6  UNL     1      17.183  -7.944  19.412  1.00  0.00     0.181 C 
HETATM    8  C7  UNL     1      15.928  -7.371  18.789  1.00  0.00     0.184 C 
HETATM    9  C14 UNL     1      15.435  -6.142  19.452  1.00  0.00     0.181 C 
HETATM   10  C15 UNL     1      15.855  -5.922  20.859  1.00  0.00     0.181 C 
BRANCH   6  11
HETATM   11  O2  UNL     1      18.056  -5.893  18.762  1.00  0.00    -0.390 OA
ATOM     12  H2  UNL     1      18.895  -5.969  18.322  1.00  0.00     0.210 HD
ENDBRANCH   6  11
BRANCH   7  13
HETATM   13  O3  UNL     1      17.958  -8.546  18.411  1.00  0.00    -0.390 OA
ATOM     14  H3  UNL     1      17.364  -8.698  17.685  1.00  0.00     0.210 HD
ENDBRANCH   7  13
BRANCH   8  15
HETATM   15  O4  UNL     1      14.972  -8.386  18.716  1.00  0.00    -0.375 OA
BRANCH  15  16
HETATM   16  C8  UNL     1      14.971  -9.063  17.524  1.00  0.00     0.122 C 
HETATM   17  C9  UNL     1      13.783  -8.535  16.715  1.00  0.00     0.032 C 
HETATM   18  C10 UNL     1      13.293  -9.604  15.761  1.00  0.00     0.002 C 
HETATM   19  C11 UNL     1      14.523 -10.323  15.221  1.00  0.00     0.000 C 
HETATM   20  C12 UNL     1      15.058 -11.208  16.327  1.00  0.00     0.002 C 
HETATM   21  C13 UNL     1      14.864 -10.564  17.683  1.00  0.00     0.032 C 
ENDBRANCH  15  16
ENDBRANCH   8  15
BRANCH   9  22
HETATM   22  O5  UNL     1      14.021  -6.184  19.430  1.00  0.00    -0.390 OA
ATOM     23  H5  UNL     1      13.705  -5.317  19.657  1.00  0.00     0.210 HD
ENDBRANCH   9  22
BRANCH  10  24
HETATM   24  O6  UNL     1      15.507  -4.626  21.217  1.00  0.00    -0.390 OA
ATOM     25  H6  UNL     1      15.625  -4.075  20.452  1.00  0.00     0.210 HD
ENDBRANCH  10  24
ENDBRANCH   4   5
ENDBRANCH   3   4
BRANCH   3  26
HETATM   26  C16 UNL     1      16.243  -7.046  24.074  1.00  0.00     0.097 C 
HETATM   27  C17 UNL     1      17.026  -7.434  25.280  1.00  0.00     0.043 C 
HETATM   28  C18 UNL     1      16.037  -7.115  26.421  1.00  0.00     0.036 C 
HETATM   29  C19 UNL     1      14.681  -7.491  25.863  1.00  0.00     0.186 C 
HETATM   30  C20 UNL     1      14.901  -7.753  24.389  1.00  0.00     0.074 C 
BRANCH  26  31
HETATM   31  O7  UNL     1      15.963  -5.665  24.066  1.00  0.00    -0.386 OA
ATOM     32  H7  UNL     1      15.029  -5.491  24.064  1.00  0.00     0.210 HD
ENDBRANCH  26  31
BRANCH  29  33
HETATM   33  N1  UNL     1      13.729  -6.395  25.962  1.00  0.00    -0.075 N 
ATOM     34  H13 UNL     1      13.997  -5.736  26.693  1.00  0.00     0.274 HD
ATOM     35  H12 UNL     1      13.793  -5.775  25.155  1.00  0.00     0.274 HD
ATOM     36  H11 UNL     1      12.775  -6.730  26.096  1.00  0.00     0.274 HD
ENDBRANCH  29  33
ENDBRANCH   3  26
TORSDOF 11
ENDMDL
MODEL 2
REMARK VINA RESULT: -7.730395148      4.329      9.372
REMARK  11 active torsions:
REMARK  status: ('A' for Active; 'I' for Inactive)
REMARK    1  A    between atoms: C3_3  and  O1_4 
REMARK    2  A    between atoms: C3_3  and  C16_26 
REMARK    3  A    between atoms: O1_4  and  C4_5 
REMARK    4  A    between atoms: C5_6  and  O2_7 
REMARK    5  A    between atoms: C6_9  and  O3_10 
REMARK    6  A    between atoms: C7_12  and  O4_13 
REMARK    7  A    between atoms: O4_13  and  C8_14 
REMARK    8  A    between atoms: C14_20  and  O5_21 
REMARK    9  A    between atoms: C15_23  and  O6_24 
REMARK   10  A    between atoms: C16_26  and  O7_27 
REMARK   11  A    between atoms: C19_31  and  N1_32 
ROOT
HETATM    1  C1  UNL     1      11.819  -7.581  25.127  1.00  0.00     0.015 C 
HETATM    2  C2  UNL     1      12.961  -7.952  25.153  1.00  0.00    -0.082 C 
HETATM    3  C3  UNL     1      14.401  -8.436  25.210  1.00  0.00     0.234 C 
ENDROOT
BRANCH   3   4
HETATM    4  O1  UNL     1      14.955  -7.877  26.303  1.00  0.00    -0.360 OA
BRANCH   4   5
HETATM    5  C4  UNL     1      15.302  -8.714  27.335  1.00  0.00     0.185 C 
HETATM    6  C5  UNL     1      16.439  -9.589  26.917  1.00  0.00     0.181 C 
HETATM    7  C6  UNL     1      17.782  -8.895  27.069  1.00  0.00     0.181 C 
HETATM    8  C7  UNL     1      18.015  -8.754  28.558  1.00  0.00     0.184 C 
HETATM    9  C14 UNL     1      16.780  -8.526  29.341  1.00  0.00     0.181 C 
HETATM   10  C15 UNL     1      15.616  -7.961  28.612  1.00  0.00     0.181 C 
BRANCH   6  11
HETATM   11  O2  UNL     1      16.541 -10.730  27.761  1.00  0.00    -0.390 OA
ATOM     12  H2  UNL     1      17.359 -11.190  27.615  1.00  0.00     0.210 HD
ENDBRANCH   6  11
BRANCH   7  13
HETATM   13  O3  UNL     1      18.727  -9.785  26.539  1.00  0.00    -0.390 OA
ATOM     14  H3  UNL     1      18.849 -10.453  27.203  1.00  0.00     0.210 HD
ENDBRANCH   7  13
BRANCH   8  15
HETATM   15  O4  UNL     1      18.990  -7.775  28.759  1.00  0.00    -0.375 OA
BRANCH  15  16
HETATM   16  C8  UNL     1      20.251  -8.278  28.949  1.00  0.00     0.122 C 
HETATM   17  C9  UNL     1      20.606  -8.040  30.419  1.00  0.00     0.032 C 
HETATM   18  C10 UNL     1      22.107  -7.918  30.574  1.00  0.00     0.002 C 
HETATM   19  C11 UNL     1      22.741  -8.933  29.631  1.00  0.00     0.000 C 
HETATM   20  C12 UNL     1      22.596  -8.399  28.221  1.00  0.00     0.002 C 
HETATM   21  C13 UNL     1      21.295  -7.644  28.055  1.00  0.00     0.032 C 
ENDBRANCH  15  16
ENDBRANCH   8  15
BRANCH   9  22
HETATM   22  O5  UNL     1      17.099  -7.633  30.391  1.00  0.00    -0.390 OA
ATOM     23  H5  UNL     1      16.297  -7.455  30.869  1.00  0.00     0.210 HD
ENDBRANCH   9  22
BRANCH  10  24
HETATM   24  O6  UNL     1      14.502  -8.052  29.436  1.00  0.00    -0.390 OA
ATOM     25  H6  UNL     1      14.808  -8.029  30.336  1.00  0.00     0.210 HD
ENDBRANCH  10  24
ENDBRANCH   4   5
ENDBRANCH   3   4
BRANCH   3  26
HETATM   26  C16 UNL     1      14.980  -7.930  23.942  1.00  0.00     0.097 C 
HETATM   27  C17 UNL     1      16.057  -8.736  23.304  1.00  0.00     0.043 C 
HETATM   28  C18 UNL     1      16.650  -7.735  22.290  1.00  0.00     0.036 C 
HETATM   29  C19 UNL     1      16.596  -6.400  23.000  1.00  0.00     0.186 C 
HETATM   30  C20 UNL     1      15.766  -6.629  24.243  1.00  0.00     0.074 C 
BRANCH  26  31
HETATM   31  O7  UNL     1      13.984  -7.576  23.010  1.00  0.00    -0.386 OA
ATOM     32  H7  UNL     1      14.144  -7.958  22.156  1.00  0.00     0.210 HD
ENDBRANCH  26  31
BRANCH  29  33
HETATM   33  N1  UNL     1      15.908  -5.391  22.209  1.00  0.00    -0.075 N 
ATOM     34  H13 UNL     1      14.900  -5.543  22.211  1.00  0.00     0.274 HD
ATOM     35  H12 UNL     1      15.935  -4.480  22.668  1.00  0.00     0.274 HD
ATOM     36  H11 UNL     1      16.273  -5.337  21.258  1.00  0.00     0.274 HD
ENDBRANCH  29  33
ENDBRANCH   3  26
TORSDOF 11
ENDMDL
MODEL 3
REMARK VINA RESULT: -7.578956043      1.703      2.141
REMARK  11 active torsions:
REMARK  status: ('A' for Active; 'I' for Inactive)
REMARK    1  A    between atoms: C3_3  and  O1_4 
REMARK    2  A    between atoms: C3_3  and  C16_26 
REMARK    3  A    between atoms: O1_4  and  C4_5 
REMARK    4  A    between atoms: C5_6  and  O2_7 
REMARK    5  A    between atoms: C6_9  and  O3_10 
REMARK    6  A    between atoms: C7_12  and  O4_13 
REMARK    7  A    between atoms: O4_13  and  C8_14 
REMARK    8  A    between atoms: C14_20  and  O5_21 
REMARK    9  A    between atoms: C15_23  and  O6_24 
REMARK   10  A    between atoms: C16_26  and  O7_27 
REMARK   11  A    between atoms: C19_31  and  N1_32 
ROOT
HETATM    1  C1  UNL     1      18.183  -6.792  25.736  1.00  0.00     0.015 C 
HETATM    2  C2  UNL     1      17.308  -7.305  25.092  1.00  0.00    -0.082 C 
HETATM    3  C3  UNL     1      16.215  -7.949  24.254  1.00  0.00     0.234 C 
ENDROOT
BRANCH   3   4
HETATM    4  O1  UNL     1      15.705  -6.979  23.470  1.00  0.00    -0.360 OA
BRANCH   4   5
HETATM    5  C4  UNL     1      16.391  -6.669  22.321  1.00  0.00     0.185 C 
HETATM    6  C5  UNL     1      17.069  -7.890  21.791  1.00  0.00     0.181 C 
HETATM    7  C6  UNL     1      16.131  -8.752  20.963  1.00  0.00     0.181 C 
HETATM    8  C7  UNL     1      15.847  -7.968  19.699  1.00  0.00     0.184 C 
HETATM    9  C14 UNL     1      15.796  -6.502  19.900  1.00  0.00     0.181 C 
HETATM   10  C15 UNL     1      15.507  -6.021  21.276  1.00  0.00     0.181 C 
BRANCH   6  11
HETATM   11  O2  UNL     1      18.111  -7.542  20.886  1.00  0.00    -0.390 OA
ATOM     12  H2  UNL     1      17.766  -7.386  20.014  1.00  0.00     0.210 HD
ENDBRANCH   6  11
BRANCH   7  13
HETATM   13  O3  UNL     1      16.867  -9.900  20.634  1.00  0.00    -0.390 OA
ATOM     14  H3  UNL     1      16.369 -10.336  19.953  1.00  0.00     0.210 HD
ENDBRANCH   7  13
BRANCH   8  15
HETATM   15  O4  UNL     1      14.694  -8.490  19.110  1.00  0.00    -0.375 OA
BRANCH  15  16
HETATM   16  C8  UNL     1      14.918  -9.110  17.907  1.00  0.00     0.122 C 
HETATM   17  C9  UNL     1      13.851  -8.594  16.938  1.00  0.00     0.032 C 
HETATM   18  C10 UNL     1      13.573  -9.636  15.876  1.00  0.00     0.002 C 
HETATM   19  C11 UNL     1      14.906 -10.279  15.515  1.00  0.00     0.000 C 
HETATM   20  C12 UNL     1      15.297 -11.192  16.658  1.00  0.00     0.002 C 
HETATM   21  C13 UNL     1      14.857 -10.620  17.988  1.00  0.00     0.032 C 
ENDBRANCH  15  16
ENDBRANCH   8  15
BRANCH   9  22
HETATM   22  O5  UNL     1      14.789  -5.990  19.049  1.00  0.00    -0.390 OA
ATOM     23  H5  UNL     1      15.220  -5.621  18.286  1.00  0.00     0.210 HD
ENDBRANCH   9  22
BRANCH  10  24
HETATM   24  O6  UNL     1      15.743  -4.653  21.315  1.00  0.00    -0.390 OA
ATOM     25  H6  UNL     1      15.212  -4.251  20.637  1.00  0.00     0.210 HD
ENDBRANCH  10  24
ENDBRANCH   4   5
ENDBRANCH   3   4
BRANCH   3  26
HETATM   26  C16 UNL     1      15.252  -8.440  25.270  1.00  0.00     0.097 C 
HETATM   27  C17 UNL     1      15.001  -7.577  26.458  1.00  0.00     0.043 C 
HETATM   28  C18 UNL     1      14.301  -8.556  27.424  1.00  0.00     0.036 C 
HETATM   29  C19 UNL     1      14.998  -9.878  27.195  1.00  0.00     0.186 C 
HETATM   30  C20 UNL     1      15.861  -9.682  25.968  1.00  0.00     0.074 C 
BRANCH  26  31
HETATM   31  O7  UNL     1      14.045  -8.873  24.687  1.00  0.00    -0.386 OA
ATOM     32  H7  UNL     1      14.131  -9.014  23.752  1.00  0.00     0.210 HD
ENDBRANCH  26  31
BRANCH  29  33
HETATM   33  N1  UNL     1      14.057 -10.944  26.885  1.00  0.00    -0.075 N 
ATOM     34  H13 UNL     1      13.118 -10.715  27.211  1.00  0.00     0.274 HD
ATOM     35  H12 UNL     1      13.872 -10.995  25.883  1.00  0.00     0.274 HD
ATOM     36  H11 UNL     1      14.367 -11.845  27.250  1.00  0.00     0.274 HD
ENDBRANCH  29  33
ENDBRANCH   3  26
TORSDOF 11
ENDMDL
MODEL 4
REMARK VINA RESULT: -7.423558589      3.670      4.867
REMARK  11 active torsions:
REMARK  status: ('A' for Active; 'I' for Inactive)
REMARK    1  A    between atoms: C3_3  and  O1_4 
REMARK    2  A    between atoms: C3_3  and  C16_26 
REMARK    3  A    between atoms: O1_4  and  C4_5 
REMARK    4  A    between atoms: C5_6  and  O2_7 
REMARK    5  A    between atoms: C6_9  and  O3_10 
REMARK    6  A    between atoms: C7_12  and  O4_13 
REMARK    7  A    between atoms: O4_13  and  C8_14 
REMARK    8  A    between atoms: C14_20  and  O5_21 
REMARK    9  A    between atoms: C15_23  and  O6_24 
REMARK   10  A    between atoms: C16_26  and  O7_27 
REMARK   11  A    between atoms: C19_31  and  N1_32 
ROOT
HETATM    1  C1  UNL     1       9.100  -4.918  21.422  1.00  0.00     0.015 C 
HETATM    2  C2  UNL     1      10.146  -5.472  21.215  1.00  0.00    -0.082 C 
HETATM    3  C3  UNL     1      11.474  -6.156  20.932  1.00  0.00     0.234 C 
ENDROOT
BRANCH   3   4
HETATM    4  O1  UNL     1      11.372  -6.708  19.707  1.00  0.00    -0.360 OA
BRANCH   4   5
HETATM    5  C4  UNL     1      12.279  -6.309  18.756  1.00  0.00     0.185 C 
HETATM    6  C5  UNL     1      13.646  -6.788  19.126  1.00  0.00     0.181 C 
HETATM    7  C6  UNL     1      13.882  -8.228  18.703  1.00  0.00     0.181 C 
HETATM    8  C7  UNL     1      13.943  -8.216  17.189  1.00  0.00     0.184 C 
HETATM    9  C14 UNL     1      13.051  -7.217  16.560  1.00  0.00     0.181 C 
HETATM   10  C15 UNL     1      11.889  -6.753  17.361  1.00  0.00     0.181 C 
BRANCH   6  11
HETATM   11  O2  UNL     1      14.648  -6.054  18.432  1.00  0.00    -0.390 OA
ATOM     12  H2  UNL     1      14.511  -5.118  18.526  1.00  0.00     0.210 HD
ENDBRANCH   6  11
BRANCH   7  13
HETATM   13  O3  UNL     1      15.144  -8.567  19.211  1.00  0.00    -0.390 OA
ATOM     14  H3  UNL     1      15.146  -9.515  19.277  1.00  0.00     0.210 HD
ENDBRANCH   7  13
BRANCH   8  15
HETATM   15  O4  UNL     1      13.734  -9.518  16.732  1.00  0.00    -0.375 OA
BRANCH  15  16
HETATM   16  C8  UNL     1      14.731  -9.986  15.916  1.00  0.00     0.122 C 
HETATM   17  C9  UNL     1      14.067 -10.907  14.889  1.00  0.00     0.032 C 
HETATM   18  C10 UNL     1      15.056 -11.951  14.416  1.00  0.00     0.002 C 
HETATM   19  C11 UNL     1      16.410 -11.264  14.292  1.00  0.00     0.000 C 
HETATM   20  C12 UNL     1      16.940 -11.041  15.693  1.00  0.00     0.002 C 
HETATM   21  C13 UNL     1      15.815 -10.737  16.659  1.00  0.00     0.032 C 
ENDBRANCH  15  16
ENDBRANCH   8  15
BRANCH   9  22
HETATM   22  O5  UNL     1      12.545  -7.789  15.368  1.00  0.00    -0.390 OA
ATOM     23  H5  UNL     1      12.253  -7.077  14.811  1.00  0.00     0.210 HD
ENDBRANCH   9  22
BRANCH  10  24
HETATM   24  O6  UNL     1      11.326  -5.660  16.715  1.00  0.00    -0.390 OA
ATOM     25  H6  UNL     1      11.122  -5.926  15.826  1.00  0.00     0.210 HD
ENDBRANCH  10  24
ENDBRANCH   4   5
ENDBRANCH   3   4
BRANCH   3  26
HETATM   26  C16 UNL     1      11.576  -7.163  22.016  1.00  0.00     0.097 C 
HETATM   27  C17 UNL     1      10.753  -8.398  21.892  1.00  0.00     0.043 C 
HETATM   28  C18 UNL     1      10.817  -8.972  23.323  1.00  0.00     0.036 C 
HETATM   29  C19 UNL     1      10.785  -7.755  24.221  1.00  0.00     0.186 C 
HETATM   30  C20 UNL     1      10.963  -6.563  23.306  1.00  0.00     0.074 C 
BRANCH  26  31
HETATM   31  O7  UNL     1      12.916  -7.469  22.327  1.00  0.00    -0.386 OA
ATOM     32  H7  UNL     1      13.199  -8.281  21.923  1.00  0.00     0.210 HD
ENDBRANCH  26  31
BRANCH  29  33
HETATM   33  N1  UNL     1      11.899  -7.741  25.157  1.00  0.00    -0.075 N 
ATOM     34  H13 UNL     1      11.580  -7.888  26.115  1.00  0.00     0.274 HD
ATOM     35  H12 UNL     1      12.482  -8.571  25.052  1.00  0.00     0.274 HD
ATOM     36  H11 UNL     1      12.453  -6.888  25.079  1.00  0.00     0.274 HD
ENDBRANCH  29  33
ENDBRANCH   3  26
TORSDOF 11
ENDMDL
MODEL 5
REMARK VINA RESULT: -7.369132292      6.377      8.713
REMARK  11 active torsions:
REMARK  status: ('A' for Active; 'I' for Inactive)
REMARK    1  A    between atoms: C3_3  and  O1_4 
REMARK    2  A    between atoms: C3_3  and  C16_26 
REMARK    3  A    between atoms: O1_4  and  C4_5 
REMARK    4  A    between atoms: C5_6  and  O2_7 
REMARK    5  A    between atoms: C6_9  and  O3_10 
REMARK    6  A    between atoms: C7_12  and  O4_13 
REMARK    7  A    between atoms: O4_13  and  C8_14 
REMARK    8  A    between atoms: C14_20  and  O5_21 
REMARK    9  A    between atoms: C15_23  and  O6_24 
REMARK   10  A    between atoms: C16_26  and  O7_27 
REMARK   11  A    between atoms: C19_31  and  N1_32 
ROOT
HETATM    1  C1  UNL     1      20.926  -7.712  31.528  1.00  0.00     0.015 C 
HETATM    2  C2  UNL     1      20.768  -7.956  30.363  1.00  0.00    -0.082 C 
HETATM    3  C3  UNL     1      20.549  -8.245  28.886  1.00  0.00     0.234 C 
ENDROOT
BRANCH   3   4
HETATM    4  O1  UNL     1      19.275  -8.664  28.758  1.00  0.00    -0.360 OA
BRANCH   4   5
HETATM    5  C4  UNL     1      18.290  -7.707  28.764  1.00  0.00     0.185 C 
HETATM    6  C5  UNL     1      18.075  -7.194  27.377  1.00  0.00     0.181 C 
HETATM    7  C6  UNL     1      17.154  -8.093  26.569  1.00  0.00     0.181 C 
HETATM    8  C7  UNL     1      15.778  -7.945  27.185  1.00  0.00     0.184 C 
HETATM    9  C14 UNL     1      15.795  -7.740  28.650  1.00  0.00     0.181 C 
HETATM   10  C15 UNL     1      17.000  -8.205  29.382  1.00  0.00     0.181 C 
BRANCH   6  11
HETATM   11  O2  UNL     1      17.405  -5.939  27.396  1.00  0.00    -0.390 OA
ATOM     12  H2  UNL     1      18.027  -5.221  27.392  1.00  0.00     0.210 HD
ENDBRANCH   6  11
BRANCH   7  13
HETATM   13  O3  UNL     1      17.139  -7.552  25.276  1.00  0.00    -0.390 OA
ATOM     14  H3  UNL     1      17.705  -8.113  24.758  1.00  0.00     0.210 HD
ENDBRANCH   7  13
BRANCH   8  15
HETATM   15  O4  UNL     1      14.999  -9.031  26.782  1.00  0.00    -0.375 OA
BRANCH  15  16
HETATM   16  C8  UNL     1      13.986  -8.698  25.920  1.00  0.00     0.122 C 
HETATM   17  C9  UNL     1      13.700  -7.208  26.126  1.00  0.00     0.032 C 
HETATM   18  C10 UNL     1      12.258  -6.907  25.778  1.00  0.00     0.002 C 
HETATM   19  C11 UNL     1      11.904  -7.749  24.559  1.00  0.00     0.000 C 
HETATM   20  C12 UNL     1      11.750  -9.182  25.022  1.00  0.00     0.002 C 
HETATM   21  C13 UNL     1      12.722  -9.503  26.137  1.00  0.00     0.032 C 
ENDBRANCH  15  16
ENDBRANCH   8  15
BRANCH   9  22
HETATM   22  O5  UNL     1      14.679  -8.423  29.189  1.00  0.00    -0.390 OA
ATOM     23  H5  UNL     1      15.010  -9.099  29.769  1.00  0.00     0.210 HD
ENDBRANCH   9  22
BRANCH  10  24
HETATM   24  O6  UNL     1      16.939  -7.712  30.679  1.00  0.00    -0.390 OA
ATOM     25  H6  UNL     1      16.040  -7.799  30.976  1.00  0.00     0.210 HD
ENDBRANCH  10  24
ENDBRANCH   4   5
ENDBRANCH   3   4
BRANCH   3  26
HETATM   26  C16 UNL     1      21.542  -9.308  28.597  1.00  0.00     0.097 C 
HETATM   27  C17 UNL     1      21.839 -10.289  29.677  1.00  0.00     0.043 C 
HETATM   28  C18 UNL     1      23.139 -10.945  29.167  1.00  0.00     0.036 C 
HETATM   29  C19 UNL     1      23.903  -9.813  28.514  1.00  0.00     0.186 C 
HETATM   30  C20 UNL     1      22.937  -8.651  28.443  1.00  0.00     0.074 C 
BRANCH  26  31
HETATM   31  O7  UNL     1      21.279  -9.956  27.373  1.00  0.00    -0.386 OA
ATOM     32  H7  UNL     1      21.956 -10.585  27.151  1.00  0.00     0.210 HD
ENDBRANCH  26  31
BRANCH  29  33
HETATM   33  N1  UNL     1      24.285 -10.132  27.147  1.00  0.00    -0.075 N 
ATOM     34  H13 UNL     1      25.174 -10.632  27.117  1.00  0.00     0.274 HD
ATOM     35  H12 UNL     1      23.682 -10.854  26.753  1.00  0.00     0.274 HD
ATOM     36  H11 UNL     1      24.306  -9.303  26.553  1.00  0.00     0.274 HD
ENDBRANCH  29  33
ENDBRANCH   3  26
TORSDOF 11
ENDMDL
