MODEL 1
REMARK VINA RESULT: -4.562985555      0.000      0.000
REMARK  2 active torsions:
REMARK  status: ('A' for Active; 'I' for Inactive)
REMARK    1  A    between atoms: N2_3  and  C2_5 
REMARK    2  A    between atoms: N3_6  and  C3_8 
ROOT
HETATM    1  C2  UNL     1      36.584  27.427  32.141  1.00  0.00     0.178 C 
HETATM    2  N3  UNL     1      36.813  27.803  33.356  1.00  0.00    -0.357 N 
ATOM      3  H3  UNL     1      36.510  28.726  33.670  1.00  0.00     0.162 HD
ENDROOT
BRANCH   2   4
HETATM    4  C3  UNL     1      37.491  26.924  34.263  1.00  0.00     0.310 A 
HETATM    5  C4  UNL     1      38.156  27.435  35.429  1.00  0.00     0.289 A 
HETATM    6  N4  UNL     1      38.924  26.899  34.330  1.00  0.00    -0.049 N 
ATOM      7  H42 UNL     1      39.639  26.178  34.232  1.00  0.00     0.279 HD
ATOM      8  H41 UNL     1      39.681  27.247  33.740  1.00  0.00     0.279 HD
ENDBRANCH   2   4
BRANCH   1   9
HETATM    9  N2  UNL     1      36.989  26.143  31.646  1.00  0.00    -0.351 N 
HETATM   10  C1  UNL     1      36.203  25.524  30.833  1.00  0.00     0.190 C 
HETATM   11  N1  UNL     1      34.958  26.063  30.409  1.00  0.00    -0.097 NA
ATOM     12  H2  UNL     1      37.877  25.729  31.931  1.00  0.00     0.166 HD
ENDBRANCH   1   9
TORSDOF 2
ENDMDL
MODEL 2
REMARK VINA RESULT: -4.328986620      1.328      4.290
REMARK  2 active torsions:
REMARK  status: ('A' for Active; 'I' for Inactive)
REMARK    1  A    between atoms: N2_3  and  C2_5 
REMARK    2  A    between atoms: N3_6  and  C3_8 
ROOT
HETATM    1  C2  UNL     1      38.704  26.773  33.568  1.00  0.00     0.178 C 
HETATM    2  N3  UNL     1      38.233  26.737  32.365  1.00  0.00    -0.357 N 
ATOM      3  H3  UNL     1      38.777  27.122  31.593  1.00  0.00     0.162 HD
ENDROOT
BRANCH   2   4
HETATM    4  C3  UNL     1      36.946  26.155  32.116  1.00  0.00     0.310 A 
HETATM    5  C4  UNL     1      36.705  25.373  30.936  1.00  0.00     0.289 A 
HETATM    6  N4  UNL     1      36.091  26.671  31.087  1.00  0.00    -0.049 N 
ATOM      7  H42 UNL     1      35.136  27.027  31.053  1.00  0.00     0.279 HD
ATOM      8  H41 UNL     1      36.065  27.527  30.531  1.00  0.00     0.279 HD
ENDBRANCH   2   4
BRANCH   1   9
HETATM    9  N2  UNL     1      37.981  26.247  34.691  1.00  0.00    -0.351 N 
HETATM   10  C1  UNL     1      37.861  26.985  35.742  1.00  0.00     0.190 C 
HETATM   11  N1  UNL     1      38.413  28.291  35.830  1.00  0.00    -0.097 NA
ATOM     12  H2  UNL     1      37.572  25.313  34.659  1.00  0.00     0.166 HD
ENDBRANCH   1   9
TORSDOF 2
ENDMDL
MODEL 3
REMARK VINA RESULT: -4.256719252      1.381      4.096
REMARK  2 active torsions:
REMARK  status: ('A' for Active; 'I' for Inactive)
REMARK    1  A    between atoms: N2_3  and  C2_5 
REMARK    2  A    between atoms: N3_6  and  C3_8 
ROOT
HETATM    1  C2  UNL     1      37.130  27.587  33.132  1.00  0.00     0.178 C 
HETATM    2  N3  UNL     1      36.450  27.307  32.069  1.00  0.00    -0.357 N 
ATOM      3  H3  UNL     1      35.645  27.879  31.813  1.00  0.00     0.162 HD
ENDROOT
BRANCH   2   4
HETATM    4  C3  UNL     1      36.827  26.192  31.251  1.00  0.00     0.310 A 
HETATM    5  C4  UNL     1      35.834  25.381  30.603  1.00  0.00     0.289 A 
HETATM    6  N4  UNL     1      36.612  24.846  31.696  1.00  0.00    -0.049 N 
ATOM      7  H42 UNL     1      37.204  24.025  31.827  1.00  0.00     0.279 HD
ATOM      8  H41 UNL     1      36.394  24.407  32.591  1.00  0.00     0.279 HD
ENDBRANCH   2   4
BRANCH   1   9
HETATM    9  N2  UNL     1      38.269  26.816  33.539  1.00  0.00    -0.351 N 
HETATM   10  C1  UNL     1      38.802  27.068  34.687  1.00  0.00     0.190 C 
HETATM   11  N1  UNL     1      38.306  28.075  35.558  1.00  0.00    -0.097 NA
ATOM     12  H2  UNL     1      38.649  26.085  32.937  1.00  0.00     0.166 HD
ENDBRANCH   1   9
TORSDOF 2
ENDMDL
MODEL 4
REMARK VINA RESULT: -4.140976770      1.156      1.421
REMARK  2 active torsions:
REMARK  status: ('A' for Active; 'I' for Inactive)
REMARK    1  A    between atoms: N2_3  and  C2_5 
REMARK    2  A    between atoms: N3_6  and  C3_8 
ROOT
HETATM    1  C2  UNL     1      37.228  25.733  32.233  1.00  0.00     0.178 C 
HETATM    2  N3  UNL     1      37.826  25.907  33.366  1.00  0.00    -0.357 N 
ATOM      3  H3  UNL     1      38.121  25.100  33.916  1.00  0.00     0.162 HD
ENDROOT
BRANCH   2   4
HETATM    4  C3  UNL     1      38.073  27.234  33.849  1.00  0.00     0.310 A 
HETATM    5  C4  UNL     1      38.002  27.535  35.251  1.00  0.00     0.289 A 
HETATM    6  N4  UNL     1      37.002  28.048  34.345  1.00  0.00    -0.049 N 
ATOM      7  H42 UNL     1      36.636  28.974  34.123  1.00  0.00     0.279 HD
ATOM      8  H41 UNL     1      35.984  28.011  34.297  1.00  0.00     0.279 HD
ENDBRANCH   2   4
BRANCH   1   9
HETATM    9  N2  UNL     1      36.790  26.831  31.420  1.00  0.00    -0.351 N 
HETATM   10  C1  UNL     1      35.845  26.623  30.567  1.00  0.00     0.190 C 
HETATM   11  N1  UNL     1      35.224  25.355  30.403  1.00  0.00    -0.097 NA
ATOM     12  H2  UNL     1      37.215  27.753  31.514  1.00  0.00     0.166 HD
ENDBRANCH   1   9
TORSDOF 2
ENDMDL
MODEL 5
REMARK VINA RESULT: -3.662166702      1.257      4.269
REMARK  2 active torsions:
REMARK  status: ('A' for Active; 'I' for Inactive)
REMARK    1  A    between atoms: N2_3  and  C2_5 
REMARK    2  A    between atoms: N3_6  and  C3_8 
ROOT
HETATM    1  C2  UNL     1      37.475  26.381  32.649  1.00  0.00     0.178 C 
HETATM    2  N3  UNL     1      37.218  25.627  31.631  1.00  0.00    -0.357 N 
ATOM      3  H3  UNL     1      37.678  24.722  31.537  1.00  0.00     0.162 HD
ENDROOT
BRANCH   2   4
HETATM    4  C3  UNL     1      36.285  26.064  30.634  1.00  0.00     0.310 A 
HETATM    5  C4  UNL     1      34.898  26.256  30.952  1.00  0.00     0.289 A 
HETATM    6  N4  UNL     1      35.304  25.165  30.098  1.00  0.00    -0.049 N 
ATOM      7  H42 UNL     1      35.051  24.847  29.162  1.00  0.00     0.279 HD
ATOM      8  H41 UNL     1      35.172  24.153  30.105  1.00  0.00     0.279 HD
ENDBRANCH   2   4
BRANCH   1   9
HETATM    9  N2  UNL     1      36.858  27.663  32.830  1.00  0.00    -0.351 N 
HETATM   10  C1  UNL     1      37.100  28.312  33.918  1.00  0.00     0.190 C 
HETATM   11  N1  UNL     1      37.950  27.807  34.939  1.00  0.00    -0.097 NA
ATOM     12  H2  UNL     1      36.244  28.053  32.115  1.00  0.00     0.166 HD
ENDBRANCH   1   9
TORSDOF 2
ENDMDL
