MODEL 1
REMARK VINA RESULT: -4.342748859      0.000      0.000
REMARK  3 active torsions:
REMARK  status: ('A' for Active; 'I' for Inactive)
REMARK    1  A    between atoms: N1_1  and  N2_4 
REMARK    2  A    between atoms: N2_4  and  C1_6 
REMARK    3  A    between atoms: N3_7  and  N4_9 
ROOT
HETATM    1  C1  UNL     1      36.395  25.237  31.169  1.00  0.00     0.213 C 
HETATM    2  N3  UNL     1      37.011  26.290  31.527  1.00  0.00    -0.294 N 
ATOM      3  H3  UNL     1      36.751  27.189  31.122  1.00  0.00     0.187 HD
ENDROOT
BRANCH   2   4
HETATM    4  N4  UNL     1      38.030  26.228  32.458  1.00  0.00    -0.287 N 
HETATM    5  C2  UNL     1      38.040  26.855  33.576  1.00  0.00     0.110 A 
HETATM    6  C3  UNL     1      38.564  27.266  34.838  1.00  0.00     0.198 A 
HETATM    7  N5  UNL     1      37.259  27.797  34.440  1.00  0.00    -0.370 N 
ATOM      8  H5  UNL     1      36.436  28.374  34.618  1.00  0.00     0.161 HD
ATOM      9  H4  UNL     1      38.834  25.640  32.240  1.00  0.00     0.188 HD
ENDBRANCH   2   4
BRANCH   1  10
HETATM   10  N2  UNL     1      35.352  25.360  30.204  1.00  0.00    -0.301 N 
ATOM     11  H2  UNL     1      35.538  25.074  29.243  1.00  0.00     0.187 HD
BRANCH  10  12
HETATM   12  N1  UNL     1      34.083  25.859  30.524  1.00  0.00    -0.344 N 
ATOM     13  H12 UNL     1      33.735  25.698  31.469  1.00  0.00     0.176 HD
ATOM     14  H11 UNL     1      33.507  26.367  29.853  1.00  0.00     0.176 HD
ENDBRANCH  10  12
ENDBRANCH   1  10
TORSDOF 3
ENDMDL
MODEL 2
REMARK VINA RESULT: -4.331936737      1.115      1.139
REMARK  3 active torsions:
REMARK  status: ('A' for Active; 'I' for Inactive)
REMARK    1  A    between atoms: N1_1  and  N2_4 
REMARK    2  A    between atoms: N2_4  and  C1_6 
REMARK    3  A    between atoms: N3_7  and  N4_9 
ROOT
HETATM    1  C1  UNL     1      36.422  26.674  31.541  1.00  0.00     0.213 C 
HETATM    2  N3  UNL     1      37.492  26.422  32.179  1.00  0.00    -0.294 N 
ATOM      3  H3  UNL     1      37.967  25.531  32.038  1.00  0.00     0.187 HD
ENDROOT
BRANCH   2   4
HETATM    4  N4  UNL     1      38.019  27.344  33.063  1.00  0.00    -0.287 N 
HETATM    5  C2  UNL     1      37.997  27.233  34.340  1.00  0.00     0.110 A 
HETATM    6  C3  UNL     1      38.249  27.621  35.689  1.00  0.00     0.198 A 
HETATM    7  N5  UNL     1      37.552  26.352  35.467  1.00  0.00    -0.370 N 
ATOM      8  H5  UNL     1      37.102  25.506  35.818  1.00  0.00     0.161 HD
ATOM      9  H4  UNL     1      38.459  28.176  32.670  1.00  0.00     0.188 HD
ENDBRANCH   2   4
BRANCH   1  10
HETATM   10  N2  UNL     1      35.924  25.684  30.643  1.00  0.00    -0.301 N 
ATOM     11  H2  UNL     1      36.580  25.020  30.233  1.00  0.00     0.187 HD
BRANCH  10  12
HETATM   12  N1  UNL     1      34.569  25.588  30.300  1.00  0.00    -0.344 N 
ATOM     13  H12 UNL     1      33.977  24.985  30.873  1.00  0.00     0.176 HD
ATOM     14  H11 UNL     1      34.164  26.091  29.511  1.00  0.00     0.176 HD
ENDBRANCH  10  12
ENDBRANCH   1  10
TORSDOF 3
ENDMDL
MODEL 3
REMARK VINA RESULT: -3.742120963      1.377      1.721
REMARK  3 active torsions:
REMARK  status: ('A' for Active; 'I' for Inactive)
REMARK    1  A    between atoms: N1_1  and  N2_4 
REMARK    2  A    between atoms: N2_4  and  C1_6 
REMARK    3  A    between atoms: N3_7  and  N4_9 
ROOT
HETATM    1  C1  UNL     1      36.268  26.750  32.052  1.00  0.00     0.213 C 
HETATM    2  N3  UNL     1      36.466  27.961  32.386  1.00  0.00    -0.294 N 
ATOM      3  H3  UNL     1      36.438  28.692  31.676  1.00  0.00     0.187 HD
ENDROOT
BRANCH   2   4
HETATM    4  N4  UNL     1      36.719  28.296  33.702  1.00  0.00    -0.287 N 
HETATM    5  C2  UNL     1      37.517  27.661  34.480  1.00  0.00     0.110 A 
HETATM    6  C3  UNL     1      38.208  27.384  35.697  1.00  0.00     0.198 A 
HETATM    7  N5  UNL     1      38.453  26.495  34.559  1.00  0.00    -0.370 N 
ATOM      8  H5  UNL     1      38.914  25.688  34.138  1.00  0.00     0.161 HD
ATOM      9  H4  UNL     1      36.236  29.109  34.083  1.00  0.00     0.188 HD
ENDBRANCH   2   4
BRANCH   1  10
HETATM   10  N2  UNL     1      36.011  26.463  30.678  1.00  0.00    -0.301 N 
ATOM     11  H2  UNL     1      36.415  27.071  29.967  1.00  0.00     0.187 HD
BRANCH  10  12
HETATM   12  N1  UNL     1      35.226  25.378  30.267  1.00  0.00    -0.344 N 
ATOM     13  H12 UNL     1      34.257  25.566  30.007  1.00  0.00     0.176 HD
ATOM     14  H11 UNL     1      35.586  24.425  30.221  1.00  0.00     0.176 HD
ENDBRANCH  10  12
ENDBRANCH   1  10
TORSDOF 3
ENDMDL
MODEL 4
REMARK VINA RESULT: -3.542914863      1.444      4.499
REMARK  3 active torsions:
REMARK  status: ('A' for Active; 'I' for Inactive)
REMARK    1  A    between atoms: N1_1  and  N2_4 
REMARK    2  A    between atoms: N2_4  and  C1_6 
REMARK    3  A    between atoms: N3_7  and  N4_9 
ROOT
HETATM    1  C1  UNL     1      37.408  26.952  34.138  1.00  0.00     0.213 C 
HETATM    2  N3  UNL     1      37.973  26.013  33.493  1.00  0.00    -0.294 N 
ATOM      3  H3  UNL     1      38.966  25.830  33.634  1.00  0.00     0.187 HD
ENDROOT
BRANCH   2   4
HETATM    4  N4  UNL     1      37.255  25.238  32.604  1.00  0.00    -0.287 N 
HETATM    5  C2  UNL     1      36.620  25.688  31.585  1.00  0.00     0.110 A 
HETATM    6  C3  UNL     1      35.807  25.612  30.415  1.00  0.00     0.198 A 
HETATM    7  N5  UNL     1      36.275  26.936  30.832  1.00  0.00    -0.370 N 
ATOM      8  H5  UNL     1      36.328  27.947  30.704  1.00  0.00     0.161 HD
ATOM      9  H4  UNL     1      37.229  24.231  32.769  1.00  0.00     0.188 HD
ENDBRANCH   2   4
BRANCH   1  10
HETATM   10  N2  UNL     1      38.199  27.720  35.043  1.00  0.00    -0.301 N 
ATOM     11  H2  UNL     1      38.939  28.312  34.666  1.00  0.00     0.187 HD
BRANCH  10  12
HETATM   12  N1  UNL     1      38.000  27.694  36.430  1.00  0.00    -0.344 N 
ATOM     13  H12 UNL     1      37.592  28.521  36.865  1.00  0.00     0.176 HD
ATOM     14  H11 UNL     1      38.247  26.889  37.006  1.00  0.00     0.176 HD
ENDBRANCH  10  12
ENDBRANCH   1  10
TORSDOF 3
ENDMDL
MODEL 5
REMARK VINA RESULT: -3.499723547      1.622      4.499
REMARK  3 active torsions:
REMARK  status: ('A' for Active; 'I' for Inactive)
REMARK    1  A    between atoms: N1_1  and  N2_4 
REMARK    2  A    between atoms: N2_4  and  C1_6 
REMARK    3  A    between atoms: N3_7  and  N4_9 
ROOT
HETATM    1  C1  UNL     1      38.255  27.012  33.479  1.00  0.00     0.213 C 
HETATM    2  N3  UNL     1      37.157  27.620  33.278  1.00  0.00    -0.294 N 
ATOM      3  H3  UNL     1      36.760  28.201  34.016  1.00  0.00     0.187 HD
ENDROOT
BRANCH   2   4
HETATM    4  N4  UNL     1      36.495  27.501  32.072  1.00  0.00    -0.287 N 
HETATM    5  C2  UNL     1      36.297  26.397  31.450  1.00  0.00     0.110 A 
HETATM    6  C3  UNL     1      35.821  25.558  30.398  1.00  0.00     0.198 A 
HETATM    7  N5  UNL     1      36.534  24.919  31.507  1.00  0.00    -0.370 N 
ATOM      8  H5  UNL     1      36.908  24.091  31.970  1.00  0.00     0.161 HD
ATOM      9  H4  UNL     1      36.137  28.354  31.643  1.00  0.00     0.188 HD
ENDBRANCH   2   4
BRANCH   1  10
HETATM   10  N2  UNL     1      38.894  27.171  34.744  1.00  0.00    -0.301 N 
ATOM     11  H2  UNL     1      39.860  26.862  34.848  1.00  0.00     0.187 HD
BRANCH  10  12
HETATM   12  N1  UNL     1      38.247  27.736  35.851  1.00  0.00    -0.344 N 
ATOM     13  H12 UNL     1      37.262  27.510  35.990  1.00  0.00     0.176 HD
ATOM     14  H11 UNL     1      38.721  28.355  36.508  1.00  0.00     0.176 HD
ENDBRANCH  10  12
ENDBRANCH   1  10
TORSDOF 3
ENDMDL
