MODEL 1
REMARK VINA RESULT: -7.198347653      0.000      0.000
REMARK  5 active torsions:
REMARK  status: ('A' for Active; 'I' for Inactive)
REMARK    1  A    between atoms: C2_2  and  O2_4 
REMARK    2  A    between atoms: O2_4  and  C3_5 
REMARK    3  A    between atoms: C7_9  and  O3_10 
REMARK    4  A    between atoms: C11_15  and  O4_16 
REMARK    5  A    between atoms: C14_20  and  O5_21 
ROOT
HETATM    1  C3  UNL     1       6.547 -18.265  24.781  1.00  0.00     0.139 C 
HETATM    2  C4  UNL     1       7.772 -18.276  25.711  1.00  0.00     0.033 C 
HETATM    3  C5  UNL     1       8.927 -18.196  24.705  1.00  0.00     0.006 C 
HETATM    4  C6  UNL     1       9.049 -19.566  24.109  1.00  0.00     0.039 C 
HETATM    5  C7  UNL     1       7.774 -20.232  23.753  1.00  0.00     0.070 C 
HETATM    6  C8  UNL     1       6.523 -19.498  23.936  1.00  0.00     0.050 C 
HETATM    7  C9  UNL     1       5.486 -20.439  24.576  1.00  0.00     0.018 C 
HETATM    8  C10 UNL     1       5.414 -21.648  23.694  1.00  0.00     0.032 C 
HETATM    9  C11 UNL     1       6.630 -22.481  23.948  1.00  0.00     0.068 C 
HETATM   10  C12 UNL     1       6.482 -23.579  24.918  1.00  0.00     0.042 C 
HETATM   11  C13 UNL     1       5.170 -24.249  25.018  1.00  0.00     0.048 C 
HETATM   12  C14 UNL     1       4.080 -23.240  25.041  1.00  0.00     0.131 C 
HETATM   13  C15 UNL     1       2.695 -23.779  24.979  1.00  0.00     0.274 C 
HETATM   14  F1  UNL     1       2.189 -23.825  26.265  1.00  0.00    -0.203 F 
HETATM   15  F2  UNL     1       2.595 -25.038  24.452  1.00  0.00    -0.203 F 
HETATM   16  C16 UNL     1       1.895 -22.750  24.201  1.00  0.00     0.083 C 
HETATM   17  C17 UNL     1       2.898 -21.651  23.816  1.00  0.00     0.019 C 
HETATM   18  C18 UNL     1       4.169 -22.430  23.768  1.00  0.00    -0.000 C 
HETATM   19  C19 UNL     1       4.078 -23.319  22.536  1.00  0.00     0.019 C 
HETATM   20  C20 UNL     1       7.757 -21.585  24.478  1.00  0.00     0.051 C 
HETATM   21  C21 UNL     1       9.072 -22.264  24.136  1.00  0.00     0.016 C 
ENDROOT
BRANCH   1  22
HETATM   22  O2  UNL     1       5.392 -18.044  25.516  1.00  0.00    -0.316 OA
BRANCH  22  23
HETATM   23  C2  UNL     1       4.371 -17.286  24.968  1.00  0.00     0.255 C 
HETATM   24  C1  UNL     1       4.275 -16.992  23.517  1.00  0.00     0.126 C 
HETATM   25  O1  UNL     1       3.479 -16.821  25.723  1.00  0.00    -0.266 OA
ENDBRANCH  22  23
ENDBRANCH   1  22
BRANCH   5  26
HETATM   26  O3  UNL     1       7.868 -20.581  22.380  1.00  0.00    -0.389 OA
ATOM     27  H3  UNL     1       6.985 -20.781  22.089  1.00  0.00     0.210 HD
ENDBRANCH   5  26
BRANCH   9  28
HETATM   28  O4  UNL     1       7.121 -23.015  22.746  1.00  0.00    -0.389 OA
ATOM     29  H4  UNL     1       7.448 -22.322  22.183  1.00  0.00     0.210 HD
ENDBRANCH   9  28
BRANCH  12  30
HETATM   30  O5  UNL     1       4.218 -22.429  26.129  1.00  0.00    -0.383 OA
ATOM     31  H5  UNL     1       3.371 -22.090  26.392  1.00  0.00     0.210 HD
ENDBRANCH  12  30
TORSDOF 5
ENDMDL
MODEL 2
REMARK VINA RESULT: -7.130855497      2.811      5.192
REMARK  5 active torsions:
REMARK  status: ('A' for Active; 'I' for Inactive)
REMARK    1  A    between atoms: C2_2  and  O2_4 
REMARK    2  A    between atoms: O2_4  and  C3_5 
REMARK    3  A    between atoms: C7_9  and  O3_10 
REMARK    4  A    between atoms: C11_15  and  O4_16 
REMARK    5  A    between atoms: C14_20  and  O5_21 
ROOT
HETATM    1  C3  UNL     1       2.461 -17.978  22.909  1.00  0.00     0.139 C 
HETATM    2  C4  UNL     1       1.913 -18.476  21.560  1.00  0.00     0.033 C 
HETATM    3  C5  UNL     1       0.577 -19.101  21.980  1.00  0.00     0.006 C 
HETATM    4  C6  UNL     1       0.918 -20.415  22.616  1.00  0.00     0.039 C 
HETATM    5  C7  UNL     1       2.077 -20.405  23.540  1.00  0.00     0.070 C 
HETATM    6  C8  UNL     1       2.744 -19.133  23.815  1.00  0.00     0.050 C 
HETATM    7  C9  UNL     1       4.267 -19.352  23.771  1.00  0.00     0.018 C 
HETATM    8  C10 UNL     1       4.559 -20.467  24.729  1.00  0.00     0.032 C 
HETATM    9  C11 UNL     1       4.148 -21.753  24.084  1.00  0.00     0.068 C 
HETATM   10  C12 UNL     1       5.206 -22.506  23.389  1.00  0.00     0.042 C 
HETATM   11  C13 UNL     1       6.582 -22.423  23.918  1.00  0.00     0.048 C 
HETATM   12  C14 UNL     1       6.923 -21.014  24.240  1.00  0.00     0.131 C 
HETATM   13  C15 UNL     1       8.224 -20.802  24.932  1.00  0.00     0.274 C 
HETATM   14  F1  UNL     1       9.163 -20.434  23.986  1.00  0.00    -0.203 F 
HETATM   15  F2  UNL     1       8.708 -21.903  25.586  1.00  0.00    -0.203 F 
HETATM   16  C16 UNL     1       8.004 -19.618  25.855  1.00  0.00     0.083 C 
HETATM   17  C17 UNL     1       6.533 -19.214  25.666  1.00  0.00     0.019 C 
HETATM   18  C18 UNL     1       5.929 -20.518  25.265  1.00  0.00    -0.000 C 
HETATM   19  C19 UNL     1       5.932 -21.390  26.512  1.00  0.00     0.019 C 
HETATM   20  C20 UNL     1       3.060 -21.471  23.040  1.00  0.00     0.051 C 
HETATM   21  C21 UNL     1       2.253 -22.747  22.875  1.00  0.00     0.016 C 
ENDROOT
BRANCH   1  22
HETATM   22  O2  UNL     1       3.536 -17.128  22.701  1.00  0.00    -0.316 OA
BRANCH  22  23
HETATM   23  C2  UNL     1       3.497 -15.844  23.218  1.00  0.00     0.255 C 
HETATM   24  C1  UNL     1       2.358 -15.331  24.018  1.00  0.00     0.126 C 
HETATM   25  O1  UNL     1       4.464 -15.068  23.005  1.00  0.00    -0.266 OA
ENDBRANCH  22  23
ENDBRANCH   1  22
BRANCH   5  26
HETATM   26  O3  UNL     1       1.613 -20.921  24.778  1.00  0.00    -0.389 OA
ATOM     27  H3  UNL     1       2.376 -21.015  25.337  1.00  0.00     0.210 HD
ENDBRANCH   5  26
BRANCH   9  28
HETATM   28  O4  UNL     1       3.543 -22.603  25.023  1.00  0.00    -0.389 OA
ATOM     29  H4  UNL     1       2.653 -22.322  25.201  1.00  0.00     0.210 HD
ENDBRANCH   9  28
BRANCH  12  30
HETATM   30  O5  UNL     1       6.863 -20.249  23.112  1.00  0.00    -0.383 OA
ATOM     31  H5  UNL     1       6.185 -20.577  22.533  1.00  0.00     0.210 HD
ENDBRANCH  12  30
TORSDOF 5
ENDMDL
MODEL 3
REMARK VINA RESULT: -6.785973849      2.957      5.368
REMARK  5 active torsions:
REMARK  status: ('A' for Active; 'I' for Inactive)
REMARK    1  A    between atoms: C2_2  and  O2_4 
REMARK    2  A    between atoms: O2_4  and  C3_5 
REMARK    3  A    between atoms: C7_9  and  O3_10 
REMARK    4  A    between atoms: C11_15  and  O4_16 
REMARK    5  A    between atoms: C14_20  and  O5_21 
ROOT
HETATM    1  C3  UNL     1       2.276 -18.403  23.346  1.00  0.00     0.139 C 
HETATM    2  C4  UNL     1       1.877 -18.916  21.952  1.00  0.00     0.033 C 
HETATM    3  C5  UNL     1       0.870 -20.019  22.304  1.00  0.00     0.006 C 
HETATM    4  C6  UNL     1       1.685 -21.184  22.779  1.00  0.00     0.039 C 
HETATM    5  C7  UNL     1       2.808 -20.858  23.691  1.00  0.00     0.070 C 
HETATM    6  C8  UNL     1       2.993 -19.470  24.109  1.00  0.00     0.050 C 
HETATM    7  C9  UNL     1       4.491 -19.124  24.030  1.00  0.00     0.018 C 
HETATM    8  C10 UNL     1       5.205 -20.156  24.848  1.00  0.00     0.032 C 
HETATM    9  C11 UNL     1       5.245 -21.427  24.060  1.00  0.00     0.068 C 
HETATM   10  C12 UNL     1       6.467 -21.673  23.275  1.00  0.00     0.042 C 
HETATM   11  C13 UNL     1       7.748 -21.160  23.801  1.00  0.00     0.048 C 
HETATM   12  C14 UNL     1       7.583 -19.765  24.284  1.00  0.00     0.131 C 
HETATM   13  C15 UNL     1       8.756 -19.178  24.987  1.00  0.00     0.274 C 
HETATM   14  F1  UNL     1       9.457 -18.400  24.085  1.00  0.00    -0.203 F 
HETATM   15  F2  UNL     1       9.629 -20.096  25.504  1.00  0.00    -0.203 F 
HETATM   16  C16 UNL     1       8.174 -18.257  26.044  1.00  0.00     0.083 C 
HETATM   17  C17 UNL     1       6.649 -18.388  25.913  1.00  0.00     0.019 C 
HETATM   18  C18 UNL     1       6.528 -19.771  25.366  1.00  0.00    -0.000 C 
HETATM   19  C19 UNL     1       6.900 -20.713  26.502  1.00  0.00     0.019 C 
HETATM   20  C20 UNL     1       4.080 -21.443  23.063  1.00  0.00     0.051 C 
HETATM   21  C21 UNL     1       3.770 -22.897  22.755  1.00  0.00     0.016 C 
ENDROOT
BRANCH   1  22
HETATM   22  O2  UNL     1       2.969 -17.207  23.233  1.00  0.00    -0.316 OA
BRANCH  22  23
HETATM   23  C2  UNL     1       2.471 -16.072  23.850  1.00  0.00     0.255 C 
HETATM   24  C1  UNL     1       1.459 -15.189  23.220  1.00  0.00     0.126 C 
HETATM   25  O1  UNL     1       2.889 -15.764  24.996  1.00  0.00    -0.266 OA
ENDBRANCH  22  23
ENDBRANCH   1  22
BRANCH   5  26
HETATM   26  O3  UNL     1       2.617 -21.636  24.863  1.00  0.00    -0.389 OA
ATOM     27  H3  UNL     1       3.061 -21.179  25.568  1.00  0.00     0.210 HD
ENDBRANCH   5  26
BRANCH   9  28
HETATM   28  O4  UNL     1       5.027 -22.533  24.897  1.00  0.00    -0.389 OA
ATOM     29  H4  UNL     1       5.399 -23.319  24.514  1.00  0.00     0.210 HD
ENDBRANCH   9  28
BRANCH  12  30
HETATM   30  O5  UNL     1       7.202 -18.957  23.254  1.00  0.00    -0.383 OA
ATOM     31  H5  UNL     1       6.612 -19.425  22.674  1.00  0.00     0.210 HD
ENDBRANCH  12  30
TORSDOF 5
ENDMDL
MODEL 4
REMARK VINA RESULT: -6.470005546      3.018      5.499
REMARK  5 active torsions:
REMARK  status: ('A' for Active; 'I' for Inactive)
REMARK    1  A    between atoms: C2_2  and  O2_4 
REMARK    2  A    between atoms: O2_4  and  C3_5 
REMARK    3  A    between atoms: C7_9  and  O3_10 
REMARK    4  A    between atoms: C11_15  and  O4_16 
REMARK    5  A    between atoms: C14_20  and  O5_21 
ROOT
HETATM    1  C3  UNL     1       2.825 -20.615  23.490  1.00  0.00     0.139 C 
HETATM    2  C4  UNL     1       2.493 -21.846  22.631  1.00  0.00     0.033 C 
HETATM    3  C5  UNL     1       1.902 -22.802  23.674  1.00  0.00     0.006 C 
HETATM    4  C6  UNL     1       3.068 -23.339  24.448  1.00  0.00     0.039 C 
HETATM    5  C7  UNL     1       4.106 -22.350  24.824  1.00  0.00     0.070 C 
HETATM    6  C8  UNL     1       3.890 -20.944  24.485  1.00  0.00     0.050 C 
HETATM    7  C9  UNL     1       5.201 -20.364  23.922  1.00  0.00     0.018 C 
HETATM    8  C10 UNL     1       6.258 -20.637  24.948  1.00  0.00     0.032 C 
HETATM    9  C11 UNL     1       6.621 -22.086  24.866  1.00  0.00     0.068 C 
HETATM   10  C12 UNL     1       7.795 -22.421  24.040  1.00  0.00     0.042 C 
HETATM   11  C13 UNL     1       8.896 -21.440  23.963  1.00  0.00     0.048 C 
HETATM   12  C14 UNL     1       8.351 -20.074  23.754  1.00  0.00     0.131 C 
HETATM   13  C15 UNL     1       9.340 -18.964  23.817  1.00  0.00     0.274 C 
HETATM   14  F1  UNL     1       9.697 -18.628  22.525  1.00  0.00    -0.203 F 
HETATM   15  F2  UNL     1      10.490 -19.262  24.497  1.00  0.00    -0.203 F 
HETATM   16  C16 UNL     1       8.590 -17.787  24.414  1.00  0.00     0.083 C 
HETATM   17  C17 UNL     1       7.172 -18.303  24.703  1.00  0.00     0.019 C 
HETATM   18  C18 UNL     1       7.436 -19.756  24.915  1.00  0.00    -0.000 C 
HETATM   19  C19 UNL     1       8.165 -19.867  26.246  1.00  0.00     0.019 C 
HETATM   20  C20 UNL     1       5.442 -22.873  24.281  1.00  0.00     0.051 C 
HETATM   21  C21 UNL     1       5.567 -24.304  24.773  1.00  0.00     0.016 C 
ENDROOT
BRANCH   1  22
HETATM   22  O2  UNL     1       3.109 -19.528  22.675  1.00  0.00    -0.316 OA
BRANCH  22  23
HETATM   23  C2  UNL     1       2.475 -18.320  22.908  1.00  0.00     0.255 C 
HETATM   24  C1  UNL     1       3.050 -17.261  23.773  1.00  0.00     0.126 C 
HETATM   25  O1  UNL     1       1.361 -18.098  22.367  1.00  0.00    -0.266 OA
ENDBRANCH  22  23
ENDBRANCH   1  22
BRANCH   5  26
HETATM   26  O3  UNL     1       4.254 -22.432  26.234  1.00  0.00    -0.389 OA
ATOM     27  H3  UNL     1       5.185 -22.376  26.413  1.00  0.00     0.210 HD
ENDBRANCH   5  26
BRANCH   9  28
HETATM   28  O4  UNL     1       6.817 -22.618  26.150  1.00  0.00    -0.389 OA
ATOM     29  H4  UNL     1       7.744 -22.729  26.326  1.00  0.00     0.210 HD
ENDBRANCH   9  28
BRANCH  12  30
HETATM   30  O5  UNL     1       7.662 -20.020  22.578  1.00  0.00    -0.383 OA
ATOM     31  H5  UNL     1       8.185 -19.587  21.914  1.00  0.00     0.210 HD
ENDBRANCH  12  30
TORSDOF 5
ENDMDL
MODEL 5
REMARK VINA RESULT: -6.132932091      4.468      7.190
REMARK  5 active torsions:
REMARK  status: ('A' for Active; 'I' for Inactive)
REMARK    1  A    between atoms: C2_2  and  O2_4 
REMARK    2  A    between atoms: O2_4  and  C3_5 
REMARK    3  A    between atoms: C7_9  and  O3_10 
REMARK    4  A    between atoms: C11_15  and  O4_16 
REMARK    5  A    between atoms: C14_20  and  O5_21 
ROOT
HETATM    1  C3  UNL     1       3.283 -20.040  24.233  1.00  0.00     0.139 C 
HETATM    2  C4  UNL     1       4.723 -19.974  23.694  1.00  0.00     0.033 C 
HETATM    3  C5  UNL     1       5.407 -19.092  24.746  1.00  0.00     0.006 C 
HETATM    4  C6  UNL     1       4.964 -17.689  24.460  1.00  0.00     0.039 C 
HETATM    5  C7  UNL     1       3.527 -17.517  24.142  1.00  0.00     0.070 C 
HETATM    6  C8  UNL     1       2.651 -18.686  24.198  1.00  0.00     0.050 C 
HETATM    7  C9  UNL     1       1.727 -18.673  22.967  1.00  0.00     0.018 C 
HETATM    8  C10 UNL     1       1.043 -17.339  22.968  1.00  0.00     0.032 C 
HETATM    9  C11 UNL     1       2.026 -16.314  22.498  1.00  0.00     0.068 C 
HETATM   10  C12 UNL     1       1.983 -15.972  21.066  1.00  0.00     0.042 C 
HETATM   11  C13 UNL     1       0.679 -16.028  20.375  1.00  0.00     0.048 C 
HETATM   12  C14 UNL     1      -0.044 -17.272  20.745  1.00  0.00     0.131 C 
HETATM   13  C15 UNL     1      -1.442 -17.383  20.246  1.00  0.00     0.274 C 
HETATM   14  F1  UNL     1      -1.433 -18.159  19.102  1.00  0.00    -0.203 F 
HETATM   15  F2  UNL     1      -2.031 -16.189  19.929  1.00  0.00    -0.203 F 
HETATM   16  C16 UNL     1      -2.196 -18.146  21.320  1.00  0.00     0.083 C 
HETATM   17  C17 UNL     1      -1.170 -18.416  22.432  1.00  0.00     0.019 C 
HETATM   18  C18 UNL     1      -0.237 -17.268  22.244  1.00  0.00    -0.000 C 
HETATM   19  C19 UNL     1      -0.989 -16.028  22.706  1.00  0.00     0.019 C 
HETATM   20  C20 UNL     1       3.450 -16.808  22.783  1.00  0.00     0.051 C 
HETATM   21  C21 UNL     1       4.338 -15.581  22.895  1.00  0.00     0.016 C 
ENDROOT
BRANCH   1  22
HETATM   22  O2  UNL     1       2.572 -21.029  23.571  1.00  0.00    -0.316 OA
BRANCH  22  23
HETATM   23  C2  UNL     1       2.726 -22.350  23.953  1.00  0.00     0.255 C 
HETATM   24  C1  UNL     1       2.499 -22.819  25.342  1.00  0.00     0.126 C 
HETATM   25  O1  UNL     1       3.075 -23.201  23.094  1.00  0.00    -0.266 OA
ENDBRANCH  22  23
ENDBRANCH   1  22
BRANCH   5  26
HETATM   26  O3  UNL     1       3.020 -16.558  25.057  1.00  0.00    -0.389 OA
ATOM     27  H3  UNL     1       2.944 -16.997  25.896  1.00  0.00     0.210 HD
ENDBRANCH   5  26
BRANCH   9  28
HETATM   28  O4  UNL     1       1.893 -15.130  23.240  1.00  0.00    -0.389 OA
ATOM     29  H4  UNL     1       2.190 -15.261  24.133  1.00  0.00     0.210 HD
ENDBRANCH   9  28
BRANCH  12  30
HETATM   30  O5  UNL     1       0.678 -18.364  20.362  1.00  0.00    -0.383 OA
ATOM     31  H5  UNL     1       0.110 -18.996  19.937  1.00  0.00     0.210 HD
ENDBRANCH  12  30
TORSDOF 5
ENDMDL
