MODEL 1
REMARK VINA RESULT: -4.872878130      0.000      0.000
REMARK  2 active torsions:
REMARK  status: ('A' for Active; 'I' for Inactive)
REMARK    1  A    between atoms: N1_1  and  N2_4 
REMARK       I    between atoms: N2_4  and  C1_6 
REMARK       I    between atoms: C1_6  and  N3_8 
REMARK    2  A    between atoms: N3_8  and  C2_9 
ROOT
HETATM    1  C2  UNL     1      15.457   6.870  24.885  1.00  0.00     0.279 A 
HETATM    2  N4  UNL     1      15.883   6.201  25.958  1.00  0.00    -0.320 N 
ATOM      3  H4  UNL     1      15.152   5.991  26.638  1.00  0.00     0.169 HD
HETATM    4  C3  UNL     1      17.137   5.740  26.314  1.00  0.00     0.168 A 
HETATM    5  C4  UNL     1      18.189   6.114  25.346  1.00  0.00     0.275 A 
HETATM    6  O2  UNL     1      19.408   5.827  25.550  1.00  0.00    -0.265 OA
HETATM    7  N5  UNL     1      17.825   6.806  24.176  1.00  0.00    -0.262 N 
ATOM      8  H5  UNL     1      18.531   7.044  23.479  1.00  0.00     0.190 HD
HETATM    9  N6  UNL     1      16.461   7.173  23.973  1.00  0.00    -0.256 N 
ATOM     10  H6  UNL     1      16.213   7.679  23.123  1.00  0.00     0.191 HD
ENDROOT
BRANCH   1  11
HETATM   11  N3  UNL     1      14.109   7.171  24.859  1.00  0.00    -0.313 NA
HETATM   12  C1  UNL     1      12.811   7.461  24.833  1.00  0.00     0.415 C 
HETATM   13  N2  UNL     1      12.257   8.320  25.886  1.00  0.00    -0.246 N 
HETATM   14  O1  UNL     1      11.941   7.100  24.008  1.00  0.00    -0.228 OA
ATOM     15  H2  UNL     1      12.867   8.681  26.621  1.00  0.00     0.192 HD
BRANCH  13  16
HETATM   16  N1  UNL     1      10.922   8.638  25.885  1.00  0.00    -0.340 N 
ATOM     17  H12 UNL     1      10.242   7.917  25.644  1.00  0.00     0.177 HD
ATOM     18  H11 UNL     1      10.620   9.584  26.123  1.00  0.00     0.177 HD
ENDBRANCH  13  16
ENDBRANCH   1  11
TORSDOF 2
ENDMDL
MODEL 2
REMARK VINA RESULT: -4.852429838      1.141      1.223
REMARK  2 active torsions:
REMARK  status: ('A' for Active; 'I' for Inactive)
REMARK    1  A    between atoms: N1_1  and  N2_4 
REMARK       I    between atoms: N2_4  and  C1_6 
REMARK       I    between atoms: C1_6  and  N3_8 
REMARK    2  A    between atoms: N3_8  and  C2_9 
ROOT
HETATM    1  C2  UNL     1      14.411   7.144  24.695  1.00  0.00     0.279 A 
HETATM    2  N4  UNL     1      14.865   6.885  25.922  1.00  0.00    -0.320 N 
ATOM      3  H4  UNL     1      14.142   6.874  26.642  1.00  0.00     0.169 HD
HETATM    4  C3  UNL     1      16.138   6.629  26.395  1.00  0.00     0.168 A 
HETATM    5  C4  UNL     1      17.176   6.718  25.346  1.00  0.00     0.275 A 
HETATM    6  O2  UNL     1      18.407   6.573  25.619  1.00  0.00    -0.265 OA
HETATM    7  N5  UNL     1      16.784   6.969  24.018  1.00  0.00    -0.262 N 
ATOM      8  H5  UNL     1      17.480   7.000  23.274  1.00  0.00     0.190 HD
HETATM    9  N6  UNL     1      15.404   7.181  23.722  1.00  0.00    -0.256 N 
ATOM     10  H6  UNL     1      15.135   7.367  22.756  1.00  0.00     0.191 HD
ENDROOT
BRANCH   1  11
HETATM   11  N3  UNL     1      13.050   7.353  24.587  1.00  0.00    -0.313 NA
HETATM   12  C1  UNL     1      11.739   7.553  24.483  1.00  0.00     0.415 C 
HETATM   13  N2  UNL     1      11.168   8.791  25.026  1.00  0.00    -0.246 N 
HETATM   14  O1  UNL     1      10.870   6.816  23.964  1.00  0.00    -0.228 OA
ATOM     15  H2  UNL     1      11.775   9.477  25.475  1.00  0.00     0.192 HD
BRANCH  13  16
HETATM   16  N1  UNL     1       9.819   9.027  24.931  1.00  0.00    -0.340 N 
ATOM     17  H12 UNL     1       9.170   8.256  25.089  1.00  0.00     0.177 HD
ATOM     18  H11 UNL     1       9.477   9.962  24.706  1.00  0.00     0.177 HD
ENDBRANCH  13  16
ENDBRANCH   1  11
TORSDOF 2
ENDMDL
MODEL 3
REMARK VINA RESULT: -4.705174197      1.795      2.484
REMARK  2 active torsions:
REMARK  status: ('A' for Active; 'I' for Inactive)
REMARK    1  A    between atoms: N1_1  and  N2_4 
REMARK       I    between atoms: N2_4  and  C1_6 
REMARK       I    between atoms: C1_6  and  N3_8 
REMARK    2  A    between atoms: N3_8  and  C2_9 
ROOT
HETATM    1  C2  UNL     1      13.228   7.577  24.525  1.00  0.00     0.279 A 
HETATM    2  N4  UNL     1      13.575   7.440  25.806  1.00  0.00    -0.320 N 
ATOM      3  H4  UNL     1      12.829   7.655  26.468  1.00  0.00     0.169 HD
HETATM    4  C3  UNL     1      14.764   7.058  26.398  1.00  0.00     0.168 A 
HETATM    5  C4  UNL     1      15.848   6.817  25.423  1.00  0.00     0.275 A 
HETATM    6  O2  UNL     1      17.023   6.520  25.799  1.00  0.00    -0.265 OA
HETATM    7  N5  UNL     1      15.565   6.923  24.048  1.00  0.00    -0.262 N 
ATOM      8  H5  UNL     1      16.289   6.727  23.358  1.00  0.00     0.190 HD
HETATM    9  N6  UNL     1      14.256   7.305  23.629  1.00  0.00    -0.256 N 
ATOM     10  H6  UNL     1      14.066   7.383  22.630  1.00  0.00     0.191 HD
ENDROOT
BRANCH   1  11
HETATM   11  N3  UNL     1      11.928   7.983  24.294  1.00  0.00    -0.313 NA
HETATM   12  C1  UNL     1      10.676   8.373  24.070  1.00  0.00     0.415 C 
HETATM   13  N2  UNL     1      10.137   9.496  24.845  1.00  0.00    -0.246 N 
HETATM   14  O1  UNL     1       9.842   7.911  23.258  1.00  0.00    -0.228 OA
ATOM     15  H2  UNL     1      10.720   9.961  25.541  1.00  0.00     0.192 HD
BRANCH  13  16
HETATM   16  N1  UNL     1       8.848   9.923  24.635  1.00  0.00    -0.340 N 
ATOM     17  H12 UNL     1       8.183   9.883  25.407  1.00  0.00     0.177 HD
ATOM     18  H11 UNL     1       8.568  10.275  23.719  1.00  0.00     0.177 HD
ENDBRANCH  13  16
ENDBRANCH   1  11
TORSDOF 2
ENDMDL
MODEL 4
REMARK VINA RESULT: -4.538057729      1.957      5.909
REMARK  2 active torsions:
REMARK  status: ('A' for Active; 'I' for Inactive)
REMARK    1  A    between atoms: N1_1  and  N2_4 
REMARK       I    between atoms: N2_4  and  C1_6 
REMARK       I    between atoms: C1_6  and  N3_8 
REMARK    2  A    between atoms: N3_8  and  C2_9 
ROOT
HETATM    1  C2  UNL     1      13.028   7.461  25.158  1.00  0.00     0.279 A 
HETATM    2  N4  UNL     1      12.493   7.599  26.372  1.00  0.00    -0.320 N 
ATOM      3  H4  UNL     1      13.122   7.355  27.137  1.00  0.00     0.169 HD
HETATM    4  C3  UNL     1      11.239   8.015  26.781  1.00  0.00     0.168 A 
HETATM    5  C4  UNL     1      10.325   8.298  25.654  1.00  0.00     0.275 A 
HETATM    6  O2  UNL     1       9.116   8.629  25.850  1.00  0.00    -0.265 OA
HETATM    7  N5  UNL     1      10.812   8.194  24.338  1.00  0.00    -0.262 N 
ATOM      8  H5  UNL     1      10.208   8.418  23.547  1.00  0.00     0.190 HD
HETATM    9  N6  UNL     1      12.158   7.773  24.119  1.00  0.00    -0.256 N 
ATOM     10  H6  UNL     1      12.496   7.697  23.160  1.00  0.00     0.191 HD
ENDROOT
BRANCH   1  11
HETATM   11  N3  UNL     1      14.335   7.015  25.122  1.00  0.00    -0.313 NA
HETATM   12  C1  UNL     1      15.593   6.586  25.088  1.00  0.00     0.415 C 
HETATM   13  N2  UNL     1      16.529   7.212  24.147  1.00  0.00    -0.246 N 
HETATM   14  O1  UNL     1      16.136   5.686  25.770  1.00  0.00    -0.228 OA
ATOM     15  H2  UNL     1      16.208   7.961  23.533  1.00  0.00     0.192 HD
BRANCH  13  16
HETATM   16  N1  UNL     1      17.835   6.791  24.090  1.00  0.00    -0.340 N 
ATOM     17  H12 UNL     1      18.099   6.095  23.394  1.00  0.00     0.177 HD
ATOM     18  H11 UNL     1      18.525   7.173  24.737  1.00  0.00     0.177 HD
ENDBRANCH  13  16
ENDBRANCH   1  11
TORSDOF 2
ENDMDL
MODEL 5
REMARK VINA RESULT: -4.483287415      1.823      6.029
REMARK  2 active torsions:
REMARK  status: ('A' for Active; 'I' for Inactive)
REMARK    1  A    between atoms: N1_1  and  N2_4 
REMARK       I    between atoms: N2_4  and  C1_6 
REMARK       I    between atoms: C1_6  and  N3_8 
REMARK    2  A    between atoms: N3_8  and  C2_9 
ROOT
HETATM    1  C2  UNL     1      13.084   7.368  25.519  1.00  0.00     0.279 A 
HETATM    2  N4  UNL     1      12.442   7.707  24.400  1.00  0.00    -0.320 N 
ATOM      3  H4  UNL     1      13.002   7.614  23.552  1.00  0.00     0.169 HD
HETATM    4  C3  UNL     1      11.155   8.161  24.182  1.00  0.00     0.168 A 
HETATM    5  C4  UNL     1      10.387   8.352  25.430  1.00  0.00     0.275 A 
HETATM    6  O2  UNL     1       9.209   8.823  25.417  1.00  0.00    -0.265 OA
HETATM    7  N5  UNL     1      10.982   8.002  26.657  1.00  0.00    -0.262 N 
ATOM      8  H5  UNL     1      10.457   8.093  27.527  1.00  0.00     0.190 HD
HETATM    9  N6  UNL     1      12.324   7.519  26.673  1.00  0.00    -0.256 N 
ATOM     10  H6  UNL     1      12.744   7.274  27.570  1.00  0.00     0.191 HD
ENDROOT
BRANCH   1  11
HETATM   11  N3  UNL     1      14.390   6.947  25.361  1.00  0.00    -0.313 NA
HETATM   12  C1  UNL     1      15.648   6.542  25.209  1.00  0.00     0.415 C 
HETATM   13  N2  UNL     1      16.493   7.215  24.216  1.00  0.00    -0.246 N 
HETATM   14  O1  UNL     1      16.258   5.630  25.813  1.00  0.00    -0.228 OA
ATOM     15  H2  UNL     1      16.111   7.979  23.657  1.00  0.00     0.192 HD
BRANCH  13  16
HETATM   16  N1  UNL     1      17.796   6.820  24.038  1.00  0.00    -0.340 N 
ATOM     17  H12 UNL     1      18.114   5.956  24.476  1.00  0.00     0.177 HD
ATOM     18  H11 UNL     1      18.431   7.388  23.476  1.00  0.00     0.177 HD
ENDBRANCH  13  16
ENDBRANCH   1  11
TORSDOF 2
ENDMDL
