MODEL 1
REMARK VINA RESULT: -6.685212234      0.000      0.000
REMARK  12 active torsions:
REMARK  status: ('A' for Active; 'I' for Inactive)
REMARK    1  A    between atoms: N1_1  and  C1_5 
REMARK    2  A    between atoms: C1_5  and  C2_6 
REMARK    3  A    between atoms: C1_5  and  C3_9 
REMARK    4  A    between atoms: C1_5  and  C14_25 
REMARK    5  A    between atoms: C2_6  and  O1_7 
REMARK    6  A    between atoms: C3_9  and  N2_10 
REMARK    7  A    between atoms: N2_10  and  C4_12 
REMARK    8  A    between atoms: C4_12  and  C5_13 
REMARK    9  A    between atoms: C5_13  and  N3_14 
REMARK   10  A    between atoms: N3_14  and  C6_17 
REMARK   11  A    between atoms: C6_17  and  C7_18 
REMARK   12  A    between atoms: C7_18  and  C8_19 
ROOT
HETATM    1  N2  UNL     1     114.624  41.964  47.948  1.00  0.00    -0.378 N 
ATOM      2  H2  UNL     1     114.520  42.978  47.948  1.00  0.00     0.164 HD
ENDROOT
BRANCH   1   3
HETATM    3  C3  UNL     1     115.024  41.367  46.774  1.00  0.00     0.101 C 
BRANCH   3   4
HETATM    4  C1  UNL     1     116.458  41.681  46.283  1.00  0.00     0.179 C 
BRANCH   4   5
HETATM    5  N1  UNL     1     117.364  40.601  46.579  1.00  0.00    -0.063 N 
ATOM      6  H13 UNL     1     118.297  40.919  46.842  1.00  0.00     0.275 HD
ATOM      7  H12 UNL     1     117.144  40.116  47.449  1.00  0.00     0.275 HD
ATOM      8  H11 UNL     1     117.362  39.987  45.765  1.00  0.00     0.275 HD
ENDBRANCH   4   5
BRANCH   4   9
HETATM    9  C2  UNL     1     116.900  42.859  47.121  1.00  0.00     0.208 C 
BRANCH   9  10
HETATM   10  O1  UNL     1     116.434  44.070  46.705  1.00  0.00    -0.398 OA
ATOM     11  H1  UNL     1     116.198  44.670  47.402  1.00  0.00     0.209 HD
ENDBRANCH   9  10
ENDBRANCH   4   9
BRANCH   4  12
HETATM   12  C14 UNL     1     116.447  41.915  44.815  1.00  0.00     0.029 C 
HETATM   13  C15 UNL     1     115.203  41.742  44.028  1.00  0.00     0.007 C 
HETATM   14  C16 UNL     1     116.105  41.273  42.862  1.00  0.00     0.001 C 
HETATM   15  C17 UNL     1     117.051  40.791  43.976  1.00  0.00     0.007 C 
ENDBRANCH   4  12
ENDBRANCH   3   4
ENDBRANCH   1   3
BRANCH   1  16
HETATM   16  C4  UNL     1     114.348  41.292  49.138  1.00  0.00     0.087 C 
BRANCH  16  17
HETATM   17  C5  UNL     1     113.583  42.037  50.191  1.00  0.00     0.276 C 
BRANCH  17  18
HETATM   18  N3  UNL     1     113.311  43.383  49.851  1.00  0.00    -0.070 N 
ATOM     19  H32 UNL     1     113.528  43.551  48.868  1.00  0.00     0.277 HD
ATOM     20  H31 UNL     1     112.305  43.549  49.841  1.00  0.00     0.277 HD
BRANCH  18  21
HETATM   21  C6  UNL     1     113.968  44.356  50.680  1.00  0.00     0.237 C 
BRANCH  21  22
HETATM   22  C7  UNL     1     113.386  44.556  52.035  1.00  0.00     0.066 C 
BRANCH  22  23
HETATM   23  C8  UNL     1     114.516  44.935  52.958  1.00  0.00    -0.057 A 
HETATM   24  C9  UNL     1     115.286  46.063  52.731  1.00  0.00     0.007 A 
HETATM   25  C10 UNL     1     116.325  46.421  53.564  1.00  0.00     0.001 A 
HETATM   26  C11 UNL     1     116.609  45.637  54.651  1.00  0.00     0.000 A 
HETATM   27  C12 UNL     1     115.874  44.522  54.905  1.00  0.00     0.001 A 
HETATM   28  C13 UNL     1     114.836  44.178  54.061  1.00  0.00     0.007 A 
ENDBRANCH  22  23
ENDBRANCH  21  22
ENDBRANCH  18  21
ENDBRANCH  17  18
ENDBRANCH  16  17
ENDBRANCH   1  16
TORSDOF 12
ENDMDL
MODEL 2
REMARK VINA RESULT: -6.675038181      1.168      1.454
REMARK  12 active torsions:
REMARK  status: ('A' for Active; 'I' for Inactive)
REMARK    1  A    between atoms: N1_1  and  C1_5 
REMARK    2  A    between atoms: C1_5  and  C2_6 
REMARK    3  A    between atoms: C1_5  and  C3_9 
REMARK    4  A    between atoms: C1_5  and  C14_25 
REMARK    5  A    between atoms: C2_6  and  O1_7 
REMARK    6  A    between atoms: C3_9  and  N2_10 
REMARK    7  A    between atoms: N2_10  and  C4_12 
REMARK    8  A    between atoms: C4_12  and  C5_13 
REMARK    9  A    between atoms: C5_13  and  N3_14 
REMARK   10  A    between atoms: N3_14  and  C6_17 
REMARK   11  A    between atoms: C6_17  and  C7_18 
REMARK   12  A    between atoms: C7_18  and  C8_19 
ROOT
HETATM    1  N2  UNL     1     114.696  41.686  47.835  1.00  0.00    -0.378 N 
ATOM      2  H2  UNL     1     113.772  41.824  47.427  1.00  0.00     0.164 HD
ENDROOT
BRANCH   1   3
HETATM    3  C3  UNL     1     115.727  41.372  46.979  1.00  0.00     0.101 C 
BRANCH   3   4
HETATM    4  C1  UNL     1     115.940  42.312  45.768  1.00  0.00     0.179 C 
BRANCH   4   5
HETATM    5  N1  UNL     1     116.254  43.654  46.190  1.00  0.00    -0.063 N 
ATOM      6  H13 UNL     1     115.627  44.357  45.799  1.00  0.00     0.275 HD
ATOM      7  H12 UNL     1     116.043  43.827  47.173  1.00  0.00     0.275 HD
ATOM      8  H11 UNL     1     117.234  43.812  45.956  1.00  0.00     0.275 HD
ENDBRANCH   4   5
BRANCH   4   9
HETATM    9  C2  UNL     1     114.591  42.377  45.090  1.00  0.00     0.208 C 
BRANCH   9  10
HETATM   10  O1  UNL     1     114.314  43.556  44.467  1.00  0.00    -0.398 OA
ATOM     11  H1  UNL     1     113.556  43.540  43.896  1.00  0.00     0.209 HD
ENDBRANCH   9  10
ENDBRANCH   4   9
BRANCH   4  12
HETATM   12  C14 UNL     1     117.051  41.799  44.922  1.00  0.00     0.029 C 
HETATM   13  C15 UNL     1     116.771  41.090  43.651  1.00  0.00     0.007 C 
HETATM   14  C16 UNL     1     118.036  40.248  43.939  1.00  0.00     0.001 C 
HETATM   15  C17 UNL     1     117.698  40.508  45.418  1.00  0.00     0.007 C 
ENDBRANCH   4  12
ENDBRANCH   3   4
ENDBRANCH   1   3
BRANCH   1  16
HETATM   16  C4  UNL     1     114.814  41.830  49.217  1.00  0.00     0.087 C 
BRANCH  16  17
HETATM   17  C5  UNL     1     113.561  42.115  49.991  1.00  0.00     0.276 C 
BRANCH  17  18
HETATM   18  N3  UNL     1     113.174  43.476  49.965  1.00  0.00    -0.070 N 
ATOM     19  H32 UNL     1     113.145  43.817  49.004  1.00  0.00     0.277 HD
ATOM     20  H31 UNL     1     112.189  43.568  50.215  1.00  0.00     0.277 HD
BRANCH  18  21
HETATM   21  C6  UNL     1     113.978  44.345  50.779  1.00  0.00     0.237 C 
BRANCH  21  22
HETATM   22  C7  UNL     1     113.412  44.699  52.109  1.00  0.00     0.066 C 
BRANCH  22  23
HETATM   23  C8  UNL     1     114.569  45.031  53.016  1.00  0.00    -0.057 A 
HETATM   24  C9  UNL     1     115.389  46.121  52.772  1.00  0.00     0.007 A 
HETATM   25  C10 UNL     1     116.453  46.434  53.591  1.00  0.00     0.001 A 
HETATM   26  C11 UNL     1     116.713  45.645  54.680  1.00  0.00     0.000 A 
HETATM   27  C12 UNL     1     115.929  44.567  54.950  1.00  0.00     0.001 A 
HETATM   28  C13 UNL     1     114.866  44.267  54.120  1.00  0.00     0.007 A 
ENDBRANCH  22  23
ENDBRANCH  21  22
ENDBRANCH  18  21
ENDBRANCH  17  18
ENDBRANCH  16  17
ENDBRANCH   1  16
TORSDOF 12
ENDMDL
MODEL 3
REMARK VINA RESULT: -6.639412207      1.928      8.052
REMARK  12 active torsions:
REMARK  status: ('A' for Active; 'I' for Inactive)
REMARK    1  A    between atoms: N1_1  and  C1_5 
REMARK    2  A    between atoms: C1_5  and  C2_6 
REMARK    3  A    between atoms: C1_5  and  C3_9 
REMARK    4  A    between atoms: C1_5  and  C14_25 
REMARK    5  A    between atoms: C2_6  and  O1_7 
REMARK    6  A    between atoms: C3_9  and  N2_10 
REMARK    7  A    between atoms: N2_10  and  C4_12 
REMARK    8  A    between atoms: C4_12  and  C5_13 
REMARK    9  A    between atoms: C5_13  and  N3_14 
REMARK   10  A    between atoms: N3_14  and  C6_17 
REMARK   11  A    between atoms: C6_17  and  C7_18 
REMARK   12  A    between atoms: C7_18  and  C8_19 
ROOT
HETATM    1  N2  UNL     1     113.494  43.759  50.253  1.00  0.00    -0.378 N 
ATOM      2  H2  UNL     1     113.859  44.561  49.739  1.00  0.00     0.164 HD
ENDROOT
BRANCH   1   3
HETATM    3  C3  UNL     1     113.481  43.841  51.627  1.00  0.00     0.101 C 
BRANCH   3   4
HETATM    4  C1  UNL     1     114.833  43.638  52.352  1.00  0.00     0.179 C 
BRANCH   4   5
HETATM    5  N1  UNL     1     115.927  43.565  51.417  1.00  0.00    -0.063 N 
ATOM      6  H13 UNL     1     116.813  43.887  51.807  1.00  0.00     0.275 HD
ATOM      7  H12 UNL     1     116.218  42.609  51.212  1.00  0.00     0.275 HD
ATOM      8  H11 UNL     1     115.638  44.084  50.588  1.00  0.00     0.275 HD
ENDBRANCH   4   5
BRANCH   4   9
HETATM    9  C2  UNL     1     114.722  42.276  52.997  1.00  0.00     0.208 C 
BRANCH   9  10
HETATM   10  O1  UNL     1     113.602  41.573  52.671  1.00  0.00    -0.398 OA
ATOM     11  H1  UNL     1     113.669  40.633  52.789  1.00  0.00     0.209 HD
ENDBRANCH   9  10
ENDBRANCH   4   9
BRANCH   4  12
HETATM   12  C14 UNL     1     115.074  44.766  53.290  1.00  0.00     0.029 C 
HETATM   13  C15 UNL     1     115.476  46.101  52.785  1.00  0.00     0.007 C 
HETATM   14  C16 UNL     1     116.297  46.254  54.087  1.00  0.00     0.001 C 
HETATM   15  C17 UNL     1     116.411  44.721  54.027  1.00  0.00     0.007 C 
ENDBRANCH   4  12
ENDBRANCH   3   4
ENDBRANCH   1   3
BRANCH   1  16
HETATM   16  C4  UNL     1     113.048  42.669  49.508  1.00  0.00     0.087 C 
BRANCH  16  17
HETATM   17  C5  UNL     1     114.065  41.639  49.115  1.00  0.00     0.276 C 
BRANCH  17  18
HETATM   18  N3  UNL     1     114.745  41.940  47.912  1.00  0.00    -0.070 N 
ATOM     19  H32 UNL     1     114.532  41.240  47.200  1.00  0.00     0.277 HD
ATOM     20  H31 UNL     1     114.339  42.766  47.473  1.00  0.00     0.277 HD
BRANCH  18  21
HETATM   21  C6  UNL     1     116.167  42.095  48.048  1.00  0.00     0.237 C 
BRANCH  21  22
HETATM   22  C7  UNL     1     116.825  42.970  47.040  1.00  0.00     0.066 C 
BRANCH  22  23
HETATM   23  C8  UNL     1     116.817  42.227  45.728  1.00  0.00    -0.057 A 
HETATM   24  C9  UNL     1     115.944  42.572  44.708  1.00  0.00     0.007 A 
HETATM   25  C10 UNL     1     115.922  41.900  43.505  1.00  0.00     0.001 A 
HETATM   26  C11 UNL     1     116.787  40.856  43.306  1.00  0.00     0.000 A 
HETATM   27  C12 UNL     1     117.657  40.490  44.286  1.00  0.00     0.001 A 
HETATM   28  C13 UNL     1     117.667  41.174  45.485  1.00  0.00     0.007 A 
ENDBRANCH  22  23
ENDBRANCH  21  22
ENDBRANCH  18  21
ENDBRANCH  17  18
ENDBRANCH  16  17
ENDBRANCH   1  16
TORSDOF 12
ENDMDL
MODEL 4
REMARK VINA RESULT: -6.538089312      1.958      7.994
REMARK  12 active torsions:
REMARK  status: ('A' for Active; 'I' for Inactive)
REMARK    1  A    between atoms: N1_1  and  C1_5 
REMARK    2  A    between atoms: C1_5  and  C2_6 
REMARK    3  A    between atoms: C1_5  and  C3_9 
REMARK    4  A    between atoms: C1_5  and  C14_25 
REMARK    5  A    between atoms: C2_6  and  O1_7 
REMARK    6  A    between atoms: C3_9  and  N2_10 
REMARK    7  A    between atoms: N2_10  and  C4_12 
REMARK    8  A    between atoms: C4_12  and  C5_13 
REMARK    9  A    between atoms: C5_13  and  N3_14 
REMARK   10  A    between atoms: N3_14  and  C6_17 
REMARK   11  A    between atoms: C6_17  and  C7_18 
REMARK   12  A    between atoms: C7_18  and  C8_19 
ROOT
HETATM    1  N2  UNL     1     114.918  43.490  49.655  1.00  0.00    -0.378 N 
ATOM      2  H2  UNL     1     115.778  43.294  49.144  1.00  0.00     0.164 HD
ENDROOT
BRANCH   1   3
HETATM    3  C3  UNL     1     114.856  44.669  50.363  1.00  0.00     0.101 C 
BRANCH   3   4
HETATM    4  C1  UNL     1     115.366  44.634  51.824  1.00  0.00     0.179 C 
BRANCH   4   5
HETATM    5  N1  UNL     1     116.056  43.402  52.112  1.00  0.00    -0.063 N 
ATOM      6  H13 UNL     1     116.749  43.493  52.856  1.00  0.00     0.275 HD
ATOM      7  H12 UNL     1     115.467  42.708  52.570  1.00  0.00     0.275 HD
ATOM      8  H11 UNL     1     116.452  43.076  51.231  1.00  0.00     0.275 HD
ENDBRANCH   4   5
BRANCH   4   9
HETATM    9  C2  UNL     1     114.113  44.636  52.669  1.00  0.00     0.208 C 
BRANCH   9  10
HETATM   10  O1  UNL     1     112.963  44.911  51.993  1.00  0.00    -0.398 OA
ATOM     11  H1  UNL     1     112.856  45.819  51.735  1.00  0.00     0.209 HD
ENDBRANCH   9  10
ENDBRANCH   4   9
BRANCH   4  12
HETATM   12  C14 UNL     1     116.292  45.773  52.060  1.00  0.00     0.029 C 
HETATM   13  C15 UNL     1     117.645  45.547  52.623  1.00  0.00     0.007 C 
HETATM   14  C16 UNL     1     117.497  46.923  53.314  1.00  0.00     0.001 C 
HETATM   15  C17 UNL     1     115.991  46.605  53.305  1.00  0.00     0.007 C 
ENDBRANCH   4  12
ENDBRANCH   3   4
ENDBRANCH   1   3
BRANCH   1  16
HETATM   16  C4  UNL     1     113.898  42.543  49.580  1.00  0.00     0.087 C 
BRANCH  16  17
HETATM   17  C5  UNL     1     114.250  41.191  49.033  1.00  0.00     0.276 C 
BRANCH  17  18
HETATM   18  N3  UNL     1     115.601  40.827  49.241  1.00  0.00    -0.070 N 
ATOM     19  H32 UNL     1     116.089  41.560  49.758  1.00  0.00     0.277 HD
ATOM     20  H31 UNL     1     115.662  40.065  49.916  1.00  0.00     0.277 HD
BRANCH  18  21
HETATM   21  C6  UNL     1     116.324  40.494  48.045  1.00  0.00     0.237 C 
BRANCH  21  22
HETATM   22  C7  UNL     1     116.989  41.629  47.349  1.00  0.00     0.066 C 
BRANCH  22  23
HETATM   23  C8  UNL     1     116.575  41.573  45.901  1.00  0.00    -0.057 A 
HETATM   24  C9  UNL     1     117.399  41.017  44.936  1.00  0.00     0.007 A 
HETATM   25  C10 UNL     1     117.036  40.961  43.607  1.00  0.00     0.001 A 
HETATM   26  C11 UNL     1     115.824  41.473  43.223  1.00  0.00     0.000 A 
HETATM   27  C12 UNL     1     114.990  42.027  44.144  1.00  0.00     0.001 A 
HETATM   28  C13 UNL     1     115.369  42.074  45.472  1.00  0.00     0.007 A 
ENDBRANCH  22  23
ENDBRANCH  21  22
ENDBRANCH  18  21
ENDBRANCH  17  18
ENDBRANCH  16  17
ENDBRANCH   1  16
TORSDOF 12
ENDMDL
MODEL 5
REMARK VINA RESULT: -6.527815501      1.938      8.082
REMARK  12 active torsions:
REMARK  status: ('A' for Active; 'I' for Inactive)
REMARK    1  A    between atoms: N1_1  and  C1_5 
REMARK    2  A    between atoms: C1_5  and  C2_6 
REMARK    3  A    between atoms: C1_5  and  C3_9 
REMARK    4  A    between atoms: C1_5  and  C14_25 
REMARK    5  A    between atoms: C2_6  and  O1_7 
REMARK    6  A    between atoms: C3_9  and  N2_10 
REMARK    7  A    between atoms: N2_10  and  C4_12 
REMARK    8  A    between atoms: C4_12  and  C5_13 
REMARK    9  A    between atoms: C5_13  and  N3_14 
REMARK   10  A    between atoms: N3_14  and  C6_17 
REMARK   11  A    between atoms: C6_17  and  C7_18 
REMARK   12  A    between atoms: C7_18  and  C8_19 
ROOT
HETATM    1  N2  UNL     1     113.846  43.977  50.048  1.00  0.00    -0.378 N 
ATOM      2  H2  UNL     1     113.372  44.815  49.712  1.00  0.00     0.164 HD
ENDROOT
BRANCH   1   3
HETATM    3  C3  UNL     1     115.049  44.146  50.696  1.00  0.00     0.101 C 
BRANCH   3   4
HETATM    4  C1  UNL     1     114.990  44.637  52.162  1.00  0.00     0.179 C 
BRANCH   4   5
HETATM    5  N1  UNL     1     113.672  45.105  52.509  1.00  0.00    -0.063 N 
ATOM      6  H13 UNL     1     113.417  45.974  52.041  1.00  0.00     0.275 HD
ATOM      7  H12 UNL     1     112.925  44.527  52.123  1.00  0.00     0.275 HD
ATOM      8  H11 UNL     1     113.644  45.171  53.526  1.00  0.00     0.275 HD
ENDBRANCH   4   5
BRANCH   4   9
HETATM    9  C2  UNL     1     115.901  45.842  52.200  1.00  0.00     0.208 C 
BRANCH   9  10
HETATM   10  O1  UNL     1     115.309  47.000  52.605  1.00  0.00    -0.398 OA
ATOM     11  H1  UNL     1     115.735  47.795  52.306  1.00  0.00     0.209 HD
ENDBRANCH   9  10
ENDBRANCH   4   9
BRANCH   4  12
HETATM   12  C14 UNL     1     115.366  43.529  53.080  1.00  0.00     0.029 C 
HETATM   13  C15 UNL     1     114.521  42.317  53.191  1.00  0.00     0.007 C 
HETATM   14  C16 UNL     1     114.952  42.254  54.675  1.00  0.00     0.001 C 
HETATM   15  C17 UNL     1     115.073  43.783  54.557  1.00  0.00     0.007 C 
ENDBRANCH   4  12
ENDBRANCH   3   4
ENDBRANCH   1   3
BRANCH   1  16
HETATM   16  C4  UNL     1     113.224  42.751  49.814  1.00  0.00     0.087 C 
BRANCH  16  17
HETATM   17  C5  UNL     1     114.096  41.602  49.402  1.00  0.00     0.276 C 
BRANCH  17  18
HETATM   18  N3  UNL     1     114.659  41.748  48.113  1.00  0.00    -0.070 N 
ATOM     19  H32 UNL     1     114.264  41.057  47.474  1.00  0.00     0.277 HD
ATOM     20  H31 UNL     1     114.322  42.606  47.675  1.00  0.00     0.277 HD
BRANCH  18  21
HETATM   21  C6  UNL     1     116.095  41.700  48.075  1.00  0.00     0.237 C 
BRANCH  21  22
HETATM   22  C7  UNL     1     116.754  42.671  47.159  1.00  0.00     0.066 C 
BRANCH  22  23
HETATM   23  C8  UNL     1     116.748  42.063  45.780  1.00  0.00    -0.057 A 
HETATM   24  C9  UNL     1     117.628  41.050  45.433  1.00  0.00     0.007 A 
HETATM   25  C10 UNL     1     117.637  40.487  44.175  1.00  0.00     0.001 A 
HETATM   26  C11 UNL     1     116.750  40.940  43.234  1.00  0.00     0.000 A 
HETATM   27  C12 UNL     1     115.872  41.932  43.539  1.00  0.00     0.001 A 
HETATM   28  C13 UNL     1     115.875  42.486  44.804  1.00  0.00     0.007 A 
ENDBRANCH  22  23
ENDBRANCH  21  22
ENDBRANCH  18  21
ENDBRANCH  17  18
ENDBRANCH  16  17
ENDBRANCH   1  16
TORSDOF 12
ENDMDL
