MODEL 1
REMARK VINA RESULT: -8.758190952      0.000      0.000
REMARK  5 active torsions:
REMARK  status: ('A' for Active; 'I' for Inactive)
REMARK    1  A    between atoms: C2_2  and  N1_3 
REMARK    2  A    between atoms: C2_2  and  C10_19 
REMARK       I    between atoms: N1_3  and  C3_5 
REMARK    3  A    between atoms: C3_5  and  C4_7 
REMARK    4  A    between atoms: C10_19  and  N6_20 
REMARK    5  A    between atoms: C10_19  and  C11_24 
ROOT
HETATM    1  C4  UNL     1      26.362  45.191  44.523  1.00  0.00     0.124 A 
HETATM    2  C5  UNL     1      26.365  43.958  45.189  1.00  0.00     0.137 A 
HETATM    3  N2  UNL     1      26.191  42.793  44.404  1.00  0.00    -0.081 NA
HETATM    4  N3  UNL     1      26.526  43.842  46.517  1.00  0.00    -0.331 N 
ATOM      5  H3  UNL     1      26.521  42.917  46.946  1.00  0.00     0.168 HD
HETATM    6  C6  UNL     1      26.693  44.930  47.287  1.00  0.00     0.142 A 
HETATM    7  N4  UNL     1      26.862  44.800  48.692  1.00  0.00    -0.081 NA
HETATM    8  C7  UNL     1      26.703  46.170  46.728  1.00  0.00     0.136 A 
HETATM    9  C8  UNL     1      26.882  47.343  47.540  1.00  0.00     0.107 C 
HETATM   10  N5  UNL     1      27.010  48.298  48.200  1.00  0.00    -0.191 NA
HETATM   11  C9  UNL     1      26.536  46.277  45.345  1.00  0.00     0.215 A 
HETATM   12  O2  UNL     1      26.549  47.422  44.865  1.00  0.00    -0.285 OA
ENDROOT
BRANCH   1  13
HETATM   13  C3  UNL     1      26.185  45.234  43.102  1.00  0.00     0.259 C 
HETATM   14  N1  UNL     1      27.068  44.856  42.080  1.00  0.00    -0.350 N 
ATOM     15  H1  UNL     1      27.985  44.489  42.334  1.00  0.00     0.163 HD
HETATM   16  O1  UNL     1      25.053  45.684  42.675  1.00  0.00    -0.267 OA
BRANCH  14  17
HETATM   17  C2  UNL     1      26.717  44.968  40.658  1.00  0.00     0.117 C 
HETATM   18  C1  UNL     1      27.890  45.545  39.940  1.00  0.00     0.034 C 
BRANCH  17  19
HETATM   19  C10 UNL     1      26.321  43.620  40.125  1.00  0.00     0.257 C 
BRANCH  19  20
HETATM   20  N6  UNL     1      26.689  42.557  41.036  1.00  0.00    -0.068 N 
ATOM     21  H63 UNL     1      27.684  42.586  41.260  1.00  0.00     0.275 HD
ATOM     22  H62 UNL     1      26.311  42.719  41.970  1.00  0.00     0.275 HD
ATOM     23  H61 UNL     1      26.415  41.642  40.677  1.00  0.00     0.275 HD
ENDBRANCH  19  20
BRANCH  19  24
HETATM   24  C11 UNL     1      24.845  43.547  39.964  1.00  0.00     0.065 A 
HETATM   25  C12 UNL     1      24.245  42.325  39.765  1.00  0.00     0.035 A 
HETATM   26  C13 UNL     1      22.877  42.261  39.617  1.00  0.00     0.086 A 
HETATM   27  C14 UNL     1      22.135  43.414  39.670  1.00  0.00     0.304 A 
HETATM   28  O3  UNL     1      20.880  43.389  39.538  1.00  0.00    -0.258 OA
HETATM   29  O4  UNL     1      22.787  44.529  39.862  1.00  0.00    -0.195 OA
HETATM   30  N7  UNL     1      24.062  44.628  40.004  1.00  0.00    -0.259 N 
ATOM     31  H7  UNL     1      24.481  45.547  40.150  1.00  0.00     0.194 HD
ENDBRANCH  19  24
ENDBRANCH  17  19
ENDBRANCH  14  17
ENDBRANCH   1  13
TORSDOF 5
ENDMDL
MODEL 2
REMARK VINA RESULT: -7.972007898      1.190      1.241
REMARK  5 active torsions:
REMARK  status: ('A' for Active; 'I' for Inactive)
REMARK    1  A    between atoms: C2_2  and  N1_3 
REMARK    2  A    between atoms: C2_2  and  C10_19 
REMARK       I    between atoms: N1_3  and  C3_5 
REMARK    3  A    between atoms: C3_5  and  C4_7 
REMARK    4  A    between atoms: C10_19  and  N6_20 
REMARK    5  A    between atoms: C10_19  and  C11_24 
ROOT
HETATM    1  C4  UNL     1      26.173  44.993  44.516  1.00  0.00     0.124 A 
HETATM    2  C5  UNL     1      26.114  43.799  45.248  1.00  0.00     0.137 A 
HETATM    3  N2  UNL     1      25.860  42.606  44.530  1.00  0.00    -0.081 NA
HETATM    4  N3  UNL     1      26.289  43.745  46.579  1.00  0.00    -0.331 N 
ATOM      5  H3  UNL     1      26.236  42.846  47.058  1.00  0.00     0.168 HD
HETATM    6  C6  UNL     1      26.531  44.861  47.287  1.00  0.00     0.142 A 
HETATM    7  N4  UNL     1      26.714  44.796  48.694  1.00  0.00    -0.081 NA
HETATM    8  C7  UNL     1      26.605  46.065  46.662  1.00  0.00     0.136 A 
HETATM    9  C8  UNL     1      26.864  47.268  47.406  1.00  0.00     0.107 C 
HETATM   10  N5  UNL     1      27.059  48.247  48.011  1.00  0.00    -0.191 NA
HETATM   11  C9  UNL     1      26.423  46.108  45.276  1.00  0.00     0.215 A 
HETATM   12  O2  UNL     1      26.496  47.224  44.735  1.00  0.00    -0.285 OA
ENDROOT
BRANCH   1  13
HETATM   13  C3  UNL     1      25.977  44.970  43.098  1.00  0.00     0.259 C 
HETATM   14  N1  UNL     1      26.819  44.484  42.087  1.00  0.00    -0.350 N 
ATOM     15  H1  UNL     1      27.716  44.075  42.349  1.00  0.00     0.163 HD
HETATM   16  O1  UNL     1      24.868  45.465  42.661  1.00  0.00    -0.267 OA
BRANCH  14  17
HETATM   17  C2  UNL     1      26.454  44.541  40.666  1.00  0.00     0.117 C 
HETATM   18  C1  UNL     1      27.488  45.348  39.958  1.00  0.00     0.034 C 
BRANCH  17  19
HETATM   19  C10 UNL     1      26.335  43.148  40.116  1.00  0.00     0.257 C 
BRANCH  19  20
HETATM   20  N6  UNL     1      27.257  42.238  40.762  1.00  0.00    -0.068 N 
ATOM     21  H63 UNL     1      26.762  41.501  41.265  1.00  0.00     0.275 HD
ATOM     22  H62 UNL     1      27.751  41.662  40.080  1.00  0.00     0.275 HD
ATOM     23  H61 UNL     1      27.908  42.732  41.373  1.00  0.00     0.275 HD
ENDBRANCH  19  20
BRANCH  19  24
HETATM   24  C11 UNL     1      24.970  42.613  40.365  1.00  0.00     0.065 A 
HETATM   25  C12 UNL     1      23.982  42.815  39.429  1.00  0.00     0.035 A 
HETATM   26  C13 UNL     1      22.720  42.318  39.663  1.00  0.00     0.086 A 
HETATM   27  C14 UNL     1      22.466  41.632  40.824  1.00  0.00     0.304 A 
HETATM   28  O3  UNL     1      21.318  41.164  41.069  1.00  0.00    -0.258 OA
HETATM   29  O4  UNL     1      23.461  41.488  41.657  1.00  0.00    -0.195 OA
HETATM   30  N7  UNL     1      24.653  41.937  41.473  1.00  0.00    -0.259 N 
ATOM     31  H7  UNL     1      25.367  41.775  42.183  1.00  0.00     0.194 HD
ENDBRANCH  19  24
ENDBRANCH  17  19
ENDBRANCH  14  17
ENDBRANCH   1  13
TORSDOF 5
ENDMDL
MODEL 3
REMARK VINA RESULT: -7.831178626      2.171      2.860
REMARK  5 active torsions:
REMARK  status: ('A' for Active; 'I' for Inactive)
REMARK    1  A    between atoms: C2_2  and  N1_3 
REMARK    2  A    between atoms: C2_2  and  C10_19 
REMARK       I    between atoms: N1_3  and  C3_5 
REMARK    3  A    between atoms: C3_5  and  C4_7 
REMARK    4  A    between atoms: C10_19  and  N6_20 
REMARK    5  A    between atoms: C10_19  and  C11_24 
ROOT
HETATM    1  C4  UNL     1      25.844  45.321  45.340  1.00  0.00     0.124 A 
HETATM    2  C5  UNL     1      25.031  46.459  45.260  1.00  0.00     0.137 A 
HETATM    3  N2  UNL     1      24.265  46.631  44.082  1.00  0.00    -0.081 NA
HETATM    4  N3  UNL     1      24.951  47.374  46.240  1.00  0.00    -0.331 N 
ATOM      5  H3  UNL     1      24.340  48.183  46.126  1.00  0.00     0.168 HD
HETATM    6  C6  UNL     1      25.666  47.237  47.369  1.00  0.00     0.142 A 
HETATM    7  N4  UNL     1      25.578  48.210  48.401  1.00  0.00    -0.081 NA
HETATM    8  C7  UNL     1      26.484  46.164  47.536  1.00  0.00     0.136 A 
HETATM    9  C8  UNL     1      27.255  46.004  48.739  1.00  0.00     0.107 C 
HETATM   10  N5  UNL     1      27.894  45.881  49.708  1.00  0.00    -0.191 NA
HETATM   11  C9  UNL     1      26.557  45.218  46.509  1.00  0.00     0.215 A 
HETATM   12  O2  UNL     1      27.313  44.249  46.691  1.00  0.00    -0.285 OA
ENDROOT
BRANCH   1  13
HETATM   13  C3  UNL     1      25.875  44.389  44.254  1.00  0.00     0.259 C 
HETATM   14  N1  UNL     1      25.688  42.999  44.262  1.00  0.00    -0.350 N 
ATOM     15  H1  UNL     1      25.498  42.534  45.150  1.00  0.00     0.163 HD
HETATM   16  O1  UNL     1      26.109  44.877  43.081  1.00  0.00    -0.267 OA
BRANCH  14  17
HETATM   17  C2  UNL     1      25.755  42.190  43.039  1.00  0.00     0.117 C 
HETATM   18  C1  UNL     1      26.932  41.282  43.151  1.00  0.00     0.034 C 
BRANCH  17  19
HETATM   19  C10 UNL     1      24.465  41.440  42.855  1.00  0.00     0.257 C 
BRANCH  19  20
HETATM   20  N6  UNL     1      23.640  41.497  44.044  1.00  0.00    -0.068 N 
ATOM     21  H63 UNL     1      24.144  41.915  44.826  1.00  0.00     0.275 HD
ATOM     22  H62 UNL     1      22.895  42.187  43.947  1.00  0.00     0.275 HD
ATOM     23  H61 UNL     1      23.268  40.579  44.289  1.00  0.00     0.275 HD
ENDBRANCH  19  20
BRANCH  19  24
HETATM   24  C11 UNL     1      23.669  42.051  41.759  1.00  0.00     0.065 A 
HETATM   25  C12 UNL     1      22.603  41.361  41.229  1.00  0.00     0.035 A 
HETATM   26  C13 UNL     1      21.867  41.930  40.214  1.00  0.00     0.086 A 
HETATM   27  C14 UNL     1      22.207  43.174  39.747  1.00  0.00     0.304 A 
HETATM   28  O3  UNL     1      21.553  43.725  38.817  1.00  0.00    -0.258 OA
HETATM   29  O4  UNL     1      23.233  43.757  40.307  1.00  0.00    -0.195 OA
HETATM   30  N7  UNL     1      23.944  43.258  41.256  1.00  0.00    -0.259 N 
ATOM     31  H7  UNL     1      24.729  43.790  41.630  1.00  0.00     0.194 HD
ENDBRANCH  19  24
ENDBRANCH  17  19
ENDBRANCH  14  17
ENDBRANCH   1  13
TORSDOF 5
ENDMDL
MODEL 4
REMARK VINA RESULT: -7.781418835      2.635      6.965
REMARK  5 active torsions:
REMARK  status: ('A' for Active; 'I' for Inactive)
REMARK    1  A    between atoms: C2_2  and  N1_3 
REMARK    2  A    between atoms: C2_2  and  C10_19 
REMARK       I    between atoms: N1_3  and  C3_5 
REMARK    3  A    between atoms: C3_5  and  C4_7 
REMARK    4  A    between atoms: C10_19  and  N6_20 
REMARK    5  A    between atoms: C10_19  and  C11_24 
ROOT
HETATM    1  C4  UNL     1      26.834  45.291  42.049  1.00  0.00     0.124 A 
HETATM    2  C5  UNL     1      26.796  44.367  40.996  1.00  0.00     0.137 A 
HETATM    3  N2  UNL     1      25.872  43.300  41.098  1.00  0.00    -0.081 NA
HETATM    4  N3  UNL     1      27.586  44.456  39.913  1.00  0.00    -0.331 N 
ATOM      5  H3  UNL     1      27.513  43.754  39.177  1.00  0.00     0.168 HD
HETATM    6  C6  UNL     1      28.473  45.458  39.789  1.00  0.00     0.142 A 
HETATM    7  N4  UNL     1      29.306  45.546  38.642  1.00  0.00    -0.081 NA
HETATM    8  C7  UNL     1      28.580  46.402  40.762  1.00  0.00     0.136 A 
HETATM    9  C8  UNL     1      29.524  47.480  40.643  1.00  0.00     0.107 C 
HETATM   10  N5  UNL     1      30.301  48.347  40.555  1.00  0.00    -0.191 NA
HETATM   11  C9  UNL     1      27.751  46.299  41.883  1.00  0.00     0.215 A 
HETATM   12  O2  UNL     1      27.874  47.175  42.754  1.00  0.00    -0.285 OA
ENDROOT
BRANCH   1  13
HETATM   13  C3  UNL     1      25.958  45.130  43.170  1.00  0.00     0.259 C 
HETATM   14  N1  UNL     1      25.936  44.126  44.150  1.00  0.00    -0.350 N 
ATOM     15  H1  UNL     1      26.625  43.376  44.101  1.00  0.00     0.163 HD
HETATM   16  O1  UNL     1      25.046  46.030  43.324  1.00  0.00    -0.267 OA
BRANCH  14  17
HETATM   17  C2  UNL     1      24.955  44.118  45.243  1.00  0.00     0.117 C 
HETATM   18  C1  UNL     1      24.049  42.952  45.039  1.00  0.00     0.034 C 
BRANCH  17  19
HETATM   19  C10 UNL     1      25.670  44.068  46.565  1.00  0.00     0.257 C 
BRANCH  19  20
HETATM   20  N6  UNL     1      27.000  43.511  46.432  1.00  0.00    -0.068 N 
ATOM     21  H63 UNL     1      27.628  44.158  45.954  1.00  0.00     0.275 HD
ATOM     22  H62 UNL     1      27.475  43.464  47.333  1.00  0.00     0.275 HD
ATOM     23  H61 UNL     1      26.982  42.601  45.972  1.00  0.00     0.275 HD
ENDBRANCH  19  20
BRANCH  19  24
HETATM   24  C11 UNL     1      25.839  45.441  47.108  1.00  0.00     0.065 A 
HETATM   25  C12 UNL     1      26.709  45.654  48.152  1.00  0.00     0.035 A 
HETATM   26  C13 UNL     1      26.863  46.928  48.652  1.00  0.00     0.086 A 
HETATM   27  C14 UNL     1      26.149  47.963  48.103  1.00  0.00     0.304 A 
HETATM   28  O3  UNL     1      26.268  49.142  48.539  1.00  0.00    -0.258 OA
HETATM   29  O4  UNL     1      25.346  47.670  47.116  1.00  0.00    -0.195 OA
HETATM   30  N7  UNL     1      25.176  46.494  46.622  1.00  0.00    -0.259 N 
ATOM     31  H7  UNL     1      24.524  46.363  45.848  1.00  0.00     0.194 HD
ENDBRANCH  19  24
ENDBRANCH  17  19
ENDBRANCH  14  17
ENDBRANCH   1  13
TORSDOF 5
ENDMDL
MODEL 5
REMARK VINA RESULT: -7.773255896      2.665      3.918
REMARK  5 active torsions:
REMARK  status: ('A' for Active; 'I' for Inactive)
REMARK    1  A    between atoms: C2_2  and  N1_3 
REMARK    2  A    between atoms: C2_2  and  C10_19 
REMARK       I    between atoms: N1_3  and  C3_5 
REMARK    3  A    between atoms: C3_5  and  C4_7 
REMARK    4  A    between atoms: C10_19  and  N6_20 
REMARK    5  A    between atoms: C10_19  and  C11_24 
ROOT
HETATM    1  C4  UNL     1      25.840  45.310  45.169  1.00  0.00     0.124 A 
HETATM    2  C5  UNL     1      25.047  46.462  45.079  1.00  0.00     0.137 A 
HETATM    3  N2  UNL     1      24.348  46.679  43.868  1.00  0.00    -0.081 NA
HETATM    4  N3  UNL     1      24.926  47.349  46.080  1.00  0.00    -0.331 N 
ATOM      5  H3  UNL     1      24.333  48.170  45.957  1.00  0.00     0.168 HD
HETATM    6  C6  UNL     1      25.578  47.170  47.241  1.00  0.00     0.142 A 
HETATM    7  N4  UNL     1      25.446  48.113  48.296  1.00  0.00    -0.081 NA
HETATM    8  C7  UNL     1      26.371  46.080  47.419  1.00  0.00     0.136 A 
HETATM    9  C8  UNL     1      27.075  45.875  48.657  1.00  0.00     0.107 C 
HETATM   10  N5  UNL     1      27.659  45.715  49.654  1.00  0.00    -0.191 NA
HETATM   11  C9  UNL     1      26.488  45.163  46.370  1.00  0.00     0.215 A 
HETATM   12  O2  UNL     1      27.221  44.179  46.563  1.00  0.00    -0.285 OA
ENDROOT
BRANCH   1  13
HETATM   13  C3  UNL     1      25.918  44.410  44.058  1.00  0.00     0.259 C 
HETATM   14  N1  UNL     1      24.892  43.886  43.259  1.00  0.00    -0.350 N 
ATOM     15  H1  UNL     1      23.929  44.155  43.457  1.00  0.00     0.163 HD
HETATM   16  O1  UNL     1      27.098  44.007  43.724  1.00  0.00    -0.267 OA
BRANCH  14  17
HETATM   17  C2  UNL     1      25.156  42.963  42.147  1.00  0.00     0.117 C 
HETATM   18  C1  UNL     1      24.161  41.856  42.222  1.00  0.00     0.034 C 
BRANCH  17  19
HETATM   19  C10 UNL     1      25.091  43.709  40.843  1.00  0.00     0.257 C 
BRANCH  19  20
HETATM   20  N6  UNL     1      24.434  44.990  40.993  1.00  0.00    -0.068 N 
ATOM     21  H63 UNL     1      24.984  45.625  41.573  1.00  0.00     0.275 HD
ATOM     22  H62 UNL     1      24.448  45.520  40.121  1.00  0.00     0.275 HD
ATOM     23  H61 UNL     1      23.485  44.887  41.351  1.00  0.00     0.275 HD
ENDBRANCH  19  20
BRANCH  19  24
HETATM   24  C11 UNL     1      26.464  43.993  40.347  1.00  0.00     0.065 A 
HETATM   25  C12 UNL     1      27.427  43.014  40.422  1.00  0.00     0.035 A 
HETATM   26  C13 UNL     1      28.697  43.280  39.961  1.00  0.00     0.086 A 
HETATM   27  C14 UNL     1      28.982  44.515  39.435  1.00  0.00     0.304 A 
HETATM   28  O3  UNL     1      30.136  44.791  39.004  1.00  0.00    -0.258 OA
HETATM   29  O4  UNL     1      28.007  45.384  39.403  1.00  0.00    -0.195 OA
HETATM   30  N7  UNL     1      26.810  45.172  39.824  1.00  0.00    -0.259 N 
ATOM     31  H7  UNL     1      26.115  45.915  39.757  1.00  0.00     0.194 HD
ENDBRANCH  19  24
ENDBRANCH  17  19
ENDBRANCH  14  17
ENDBRANCH   1  13
TORSDOF 5
ENDMDL
