MODEL 1
REMARK VINA RESULT: -10.110020841      0.000      0.000
REMARK  5 active torsions:
REMARK  status: ('A' for Active; 'I' for Inactive)
REMARK    1  A    between atoms: N1_8  and  O1_9 
REMARK    2  A    between atoms: C8_11  and  N2_12 
REMARK    3  A    between atoms: N2_12  and  C9_14 
REMARK    4  A    between atoms: C11_21  and  N6_22 
REMARK    5  A    between atoms: N6_22  and  C12_24 
ROOT
HETATM    1  C9  UNL     1      49.511 -14.850   8.938  1.00  0.00     0.701 A 
HETATM    2  N3  UNL     1      50.064 -16.064   9.118  1.00  0.00    -0.162 N 
ATOM      3  H3  UNL     1      49.545 -16.810   9.579  1.00  0.00     0.187 HD
HETATM    4  C10 UNL     1      51.318 -16.271   8.677  1.00  0.00     0.221 A 
HETATM    5  N4  UNL     1      51.976 -17.521   8.827  1.00  0.00    -0.062 NA
HETATM    6  N5  UNL     1      51.994 -15.277   8.070  1.00  0.00    -0.162 N 
ATOM      7  H5  UNL     1      52.944 -15.447   7.742  1.00  0.00     0.187 HD
HETATM    8  C11 UNL     1      51.439 -14.057   7.887  1.00  0.00     0.699 A 
HETATM    9  N7  UNL     1      50.186 -13.848   8.328  1.00  0.00    -0.022 N 
ATOM     10  H7  UNL     1      49.745 -12.936   8.203  1.00  0.00     0.203 HD
ENDROOT
BRANCH   1  11
HETATM   11  N2  UNL     1      48.319 -14.672   9.364  1.00  0.00    -0.173 N 
ATOM     12  H2  UNL     1      47.656 -15.437   9.238  1.00  0.00     0.186 HD
BRANCH  11  13
HETATM   13  C8  UNL     1      47.847 -13.499   9.994  1.00  0.00     0.158 A 
HETATM   14  N1  UNL     1      47.599 -12.376   9.268  1.00  0.00    -0.218 N 
HETATM   15  C7  UNL     1      47.150 -11.267   9.884  1.00  0.00     0.126 A 
HETATM   16  C6  UNL     1      46.946 -11.285  11.246  1.00  0.00     0.032 A 
HETATM   17  C5  UNL     1      47.191 -12.418  12.009  1.00  0.00    -0.021 A 
HETATM   18  C4  UNL     1      46.994 -12.457  13.371  1.00  0.00     0.013 A 
HETATM   19  C18 UNL     1      47.651 -13.547  11.364  1.00  0.00     0.021 A 
HETATM   20  C3  UNL     1      47.251 -13.615  14.107  1.00  0.00     0.007 A 
HETATM   21  C2  UNL     1      47.711 -14.749  13.474  1.00  0.00    -0.061 A 
HETATM   22  C1  UNL     1      48.000 -16.013  14.231  1.00  0.00     0.048 C 
HETATM   23  C19 UNL     1      47.903 -14.691  12.109  1.00  0.00     0.023 A 
BRANCH  14  24
HETATM   24  O1  UNL     1      47.801 -12.350   7.899  1.00  0.00    -0.282 OA
ATOM     25  H1  UNL     1      48.306 -11.640   7.519  1.00  0.00     0.245 HD
ENDBRANCH  14  24
ENDBRANCH  11  13
ENDBRANCH   1  11
BRANCH   8  26
HETATM   26  N6  UNL     1      52.072 -13.086   7.306  1.00  0.00    -0.191 N 
ATOM     27  H6  UNL     1      53.063 -13.165   7.076  1.00  0.00     0.184 HD
BRANCH  26  28
HETATM   28  C12 UNL     1      51.336 -11.904   6.998  1.00  0.00     0.049 A 
HETATM   29  C13 UNL     1      50.888 -11.669   5.714  1.00  0.00     0.030 A 
HETATM   30  C14 UNL     1      50.171 -10.533   5.381  1.00  0.00     0.002 A 
HETATM   31  C15 UNL     1      49.884  -9.586   6.353  1.00  0.00     0.000 A 
HETATM   32  C16 UNL     1      50.322  -9.802   7.639  1.00  0.00     0.002 A 
HETATM   33  C17 UNL     1      51.044 -10.954   7.955  1.00  0.00     0.030 A 
ENDBRANCH  26  28
ENDBRANCH   8  26
TORSDOF 5
ENDMDL
MODEL 2
REMARK VINA RESULT: -10.105799471      1.575      3.048
REMARK  5 active torsions:
REMARK  status: ('A' for Active; 'I' for Inactive)
REMARK    1  A    between atoms: N1_8  and  O1_9 
REMARK    2  A    between atoms: C8_11  and  N2_12 
REMARK    3  A    between atoms: N2_12  and  C9_14 
REMARK    4  A    between atoms: C11_21  and  N6_22 
REMARK    5  A    between atoms: N6_22  and  C12_24 
ROOT
HETATM    1  C9  UNL     1      50.266 -15.286   8.709  1.00  0.00     0.701 A 
HETATM    2  N3  UNL     1      50.959 -16.421   8.918  1.00  0.00    -0.162 N 
ATOM      3  H3  UNL     1      50.507 -17.240   9.324  1.00  0.00     0.187 HD
HETATM    4  C10 UNL     1      52.260 -16.451   8.579  1.00  0.00     0.221 A 
HETATM    5  N4  UNL     1      53.063 -17.609   8.768  1.00  0.00    -0.062 NA
HETATM    6  N5  UNL     1      52.845 -15.364   8.044  1.00  0.00    -0.162 N 
ATOM      7  H5  UNL     1      53.833 -15.401   7.793  1.00  0.00     0.187 HD
HETATM    8  C11 UNL     1      52.151 -14.223   7.831  1.00  0.00     0.699 A 
HETATM    9  N7  UNL     1      50.849 -14.190   8.170  1.00  0.00    -0.022 N 
ATOM     10  H7  UNL     1      50.303 -13.341   8.020  1.00  0.00     0.203 HD
ENDROOT
BRANCH   1  11
HETATM   11  N2  UNL     1      49.030 -15.276   9.036  1.00  0.00    -0.173 N 
ATOM     12  H2  UNL     1      48.358 -15.596   8.340  1.00  0.00     0.186 HD
BRANCH  11  13
HETATM   13  C8  UNL     1      48.524 -14.854  10.286  1.00  0.00     0.158 A 
HETATM   14  N1  UNL     1      48.618 -15.660  11.378  1.00  0.00    -0.218 N 
HETATM   15  C7  UNL     1      48.129 -15.243  12.560  1.00  0.00     0.126 A 
HETATM   16  C6  UNL     1      47.540 -14.002  12.649  1.00  0.00     0.032 A 
HETATM   17  C5  UNL     1      47.431 -13.161  11.551  1.00  0.00    -0.021 A 
HETATM   18  C4  UNL     1      46.845 -11.918  11.618  1.00  0.00     0.013 A 
HETATM   19  C18 UNL     1      47.936 -13.601  10.346  1.00  0.00     0.021 A 
HETATM   20  C3  UNL     1      46.753 -11.097  10.492  1.00  0.00     0.007 A 
HETATM   21  C2  UNL     1      47.254 -11.527   9.282  1.00  0.00    -0.061 A 
HETATM   22  C1  UNL     1      47.174 -10.675   8.048  1.00  0.00     0.048 C 
HETATM   23  C19 UNL     1      47.837 -12.776   9.234  1.00  0.00     0.023 A 
BRANCH  14  24
HETATM   24  O1  UNL     1      49.210 -16.909  11.296  1.00  0.00    -0.282 OA
ATOM     25  H1  UNL     1      49.777 -17.104  10.560  1.00  0.00     0.245 HD
ENDBRANCH  14  24
ENDBRANCH  11  13
ENDBRANCH   1  11
BRANCH   8  26
HETATM   26  N6  UNL     1      52.695 -13.164   7.317  1.00  0.00    -0.191 N 
ATOM     27  H6  UNL     1      53.708 -13.069   7.255  1.00  0.00     0.184 HD
BRANCH  26  28
HETATM   28  C12 UNL     1      51.827 -12.137   6.840  1.00  0.00     0.049 A 
HETATM   29  C13 UNL     1      51.433 -11.108   7.670  1.00  0.00     0.030 A 
HETATM   30  C14 UNL     1      50.592 -10.096   7.240  1.00  0.00     0.002 A 
HETATM   31  C15 UNL     1      50.117 -10.098   5.936  1.00  0.00     0.000 A 
HETATM   32  C16 UNL     1      50.499 -11.116   5.093  1.00  0.00     0.002 A 
HETATM   33  C17 UNL     1      51.347 -12.128   5.546  1.00  0.00     0.030 A 
ENDBRANCH  26  28
ENDBRANCH   8  26
TORSDOF 5
ENDMDL
MODEL 3
REMARK VINA RESULT: -9.661737194      1.637      2.958
REMARK  5 active torsions:
REMARK  status: ('A' for Active; 'I' for Inactive)
REMARK    1  A    between atoms: N1_8  and  O1_9 
REMARK    2  A    between atoms: C8_11  and  N2_12 
REMARK    3  A    between atoms: N2_12  and  C9_14 
REMARK    4  A    between atoms: C11_21  and  N6_22 
REMARK    5  A    between atoms: N6_22  and  C12_24 
ROOT
HETATM    1  C9  UNL     1      49.896 -15.395   9.182  1.00  0.00     0.701 A 
HETATM    2  N3  UNL     1      50.732 -16.446   9.276  1.00  0.00    -0.162 N 
ATOM      3  H3  UNL     1      50.439 -17.305   9.740  1.00  0.00     0.187 HD
HETATM    4  C10 UNL     1      51.962 -16.338   8.743  1.00  0.00     0.221 A 
HETATM    5  N4  UNL     1      52.906 -17.400   8.798  1.00  0.00    -0.062 NA
HETATM    6  N5  UNL     1      52.337 -15.199   8.132  1.00  0.00    -0.162 N 
ATOM      7  H5  UNL     1      53.274 -15.130   7.733  1.00  0.00     0.187 HD
HETATM    8  C11 UNL     1      51.499 -14.142   8.036  1.00  0.00     0.699 A 
HETATM    9  N7  UNL     1      50.268 -14.247   8.569  1.00  0.00    -0.022 N 
ATOM     10  H7  UNL     1      49.617 -13.464   8.510  1.00  0.00     0.203 HD
ENDROOT
BRANCH   1  11
HETATM   11  N2  UNL     1      48.731 -15.515   9.694  1.00  0.00    -0.173 N 
ATOM     12  H2  UNL     1      47.944 -15.608   9.053  1.00  0.00     0.186 HD
BRANCH  11  13
HETATM   13  C8  UNL     1      48.448 -15.529  11.078  1.00  0.00     0.158 A 
HETATM   14  N1  UNL     1      48.607 -16.668  11.805  1.00  0.00    -0.218 N 
HETATM   15  C7  UNL     1      48.332 -16.664  13.123  1.00  0.00     0.126 A 
HETATM   16  C6  UNL     1      47.893 -15.502  13.719  1.00  0.00     0.032 A 
HETATM   17  C5  UNL     1      47.723 -14.327  12.999  1.00  0.00    -0.021 A 
HETATM   18  C4  UNL     1      47.286 -13.157  13.576  1.00  0.00     0.013 A 
HETATM   19  C18 UNL     1      48.009 -14.346  11.651  1.00  0.00     0.021 A 
HETATM   20  C3  UNL     1      47.126 -11.993  12.821  1.00  0.00     0.007 A 
HETATM   21  C2  UNL     1      47.408 -12.000  11.472  1.00  0.00    -0.061 A 
HETATM   22  C1  UNL     1      47.249 -10.769  10.627  1.00  0.00     0.048 C 
HETATM   23  C19 UNL     1      47.845 -13.183  10.913  1.00  0.00     0.023 A 
BRANCH  14  24
HETATM   24  O1  UNL     1      49.047 -17.839  11.213  1.00  0.00    -0.282 OA
ATOM     25  H1  UNL     1      49.608 -18.425  11.709  1.00  0.00     0.245 HD
ENDBRANCH  14  24
ENDBRANCH  11  13
ENDBRANCH   1  11
BRANCH   8  26
HETATM   26  N6  UNL     1      51.840 -13.035   7.452  1.00  0.00    -0.191 N 
ATOM     27  H6  UNL     1      52.791 -12.889   7.112  1.00  0.00     0.184 HD
BRANCH  26  28
HETATM   28  C12 UNL     1      50.841 -12.028   7.302  1.00  0.00     0.049 A 
HETATM   29  C13 UNL     1      50.996 -10.791   7.893  1.00  0.00     0.030 A 
HETATM   30  C14 UNL     1      50.045  -9.792   7.768  1.00  0.00     0.002 A 
HETATM   31  C15 UNL     1      48.893 -10.021   7.031  1.00  0.00     0.000 A 
HETATM   32  C16 UNL     1      48.721 -11.248   6.435  1.00  0.00     0.002 A 
HETATM   33  C17 UNL     1      49.689 -12.243   6.572  1.00  0.00     0.030 A 
ENDBRANCH  26  28
ENDBRANCH   8  26
TORSDOF 5
ENDMDL
MODEL 4
REMARK VINA RESULT: -9.650950020      0.823      1.025
REMARK  5 active torsions:
REMARK  status: ('A' for Active; 'I' for Inactive)
REMARK    1  A    between atoms: N1_8  and  O1_9 
REMARK    2  A    between atoms: C8_11  and  N2_12 
REMARK    3  A    between atoms: N2_12  and  C9_14 
REMARK    4  A    between atoms: C11_21  and  N6_22 
REMARK    5  A    between atoms: N6_22  and  C12_24 
ROOT
HETATM    1  C9  UNL     1      49.916 -15.243   8.892  1.00  0.00     0.701 A 
HETATM    2  N3  UNL     1      50.427 -16.477   9.059  1.00  0.00    -0.162 N 
ATOM      3  H3  UNL     1      49.868 -17.220   9.479  1.00  0.00     0.187 HD
HETATM    4  C10 UNL     1      51.690 -16.710   8.659  1.00  0.00     0.221 A 
HETATM    5  N4  UNL     1      52.305 -17.984   8.799  1.00  0.00    -0.062 NA
HETATM    6  N5  UNL     1      52.417 -15.722   8.106  1.00  0.00    -0.162 N 
ATOM      7  H5  UNL     1      53.374 -15.912   7.808  1.00  0.00     0.187 HD
HETATM    8  C11 UNL     1      51.906 -14.481   7.936  1.00  0.00     0.699 A 
HETATM    9  N7  UNL     1      50.643 -14.246   8.335  1.00  0.00    -0.022 N 
ATOM     10  H7  UNL     1      50.234 -13.318   8.219  1.00  0.00     0.203 HD
ENDROOT
BRANCH   1  11
HETATM   11  N2  UNL     1      48.715 -15.040   9.277  1.00  0.00    -0.173 N 
ATOM     12  H2  UNL     1      48.150 -15.858   9.505  1.00  0.00     0.186 HD
BRANCH  11  13
HETATM   13  C8  UNL     1      48.107 -13.772   9.413  1.00  0.00     0.158 A 
HETATM   14  N1  UNL     1      47.898 -12.985   8.323  1.00  0.00    -0.218 N 
HETATM   15  C7  UNL     1      47.318 -11.780   8.470  1.00  0.00     0.126 A 
HETATM   16  C6  UNL     1      46.942 -11.358   9.726  1.00  0.00     0.032 A 
HETATM   17  C5  UNL     1      47.145 -12.142  10.854  1.00  0.00    -0.021 A 
HETATM   18  C4  UNL     1      46.778 -11.738  12.117  1.00  0.00     0.013 A 
HETATM   19  C18 UNL     1      47.740 -13.374  10.688  1.00  0.00     0.021 A 
HETATM   20  C3  UNL     1      46.997 -12.553  13.230  1.00  0.00     0.007 A 
HETATM   21  C2  UNL     1      47.591 -13.787  13.077  1.00  0.00    -0.061 A 
HETATM   22  C1  UNL     1      47.844 -14.692  14.248  1.00  0.00     0.048 C 
HETATM   23  C19 UNL     1      47.952 -14.174  11.802  1.00  0.00     0.023 A 
BRANCH  14  24
HETATM   24  O1  UNL     1      48.272 -13.402   7.057  1.00  0.00    -0.282 OA
ATOM     25  H1  UNL     1      49.067 -13.053   6.671  1.00  0.00     0.245 HD
ENDBRANCH  14  24
ENDBRANCH  11  13
ENDBRANCH   1  11
BRANCH   8  26
HETATM   26  N6  UNL     1      52.589 -13.515   7.406  1.00  0.00    -0.191 N 
ATOM     27  H6  UNL     1      53.608 -13.503   7.449  1.00  0.00     0.184 HD
BRANCH  26  28
HETATM   28  C12 UNL     1      51.867 -12.468   6.760  1.00  0.00     0.049 A 
HETATM   29  C13 UNL     1      51.621 -12.517   5.403  1.00  0.00     0.030 A 
HETATM   30  C14 UNL     1      50.924 -11.519   4.744  1.00  0.00     0.002 A 
HETATM   31  C15 UNL     1      50.449 -10.425   5.452  1.00  0.00     0.000 A 
HETATM   32  C16 UNL     1      50.683 -10.358   6.805  1.00  0.00     0.002 A 
HETATM   33  C17 UNL     1      51.389 -11.374   7.451  1.00  0.00     0.030 A 
ENDBRANCH  26  28
ENDBRANCH   8  26
TORSDOF 5
ENDMDL
MODEL 5
REMARK VINA RESULT: -9.337245525      2.188      5.796
REMARK  5 active torsions:
REMARK  status: ('A' for Active; 'I' for Inactive)
REMARK    1  A    between atoms: N1_8  and  O1_9 
REMARK    2  A    between atoms: C8_11  and  N2_12 
REMARK    3  A    between atoms: N2_12  and  C9_14 
REMARK    4  A    between atoms: C11_21  and  N6_22 
REMARK    5  A    between atoms: N6_22  and  C12_24 
ROOT
HETATM    1  C9  UNL     1      51.574 -14.931   8.254  1.00  0.00     0.701 A 
HETATM    2  N3  UNL     1      52.022 -16.193   8.386  1.00  0.00    -0.162 N 
ATOM      3  H3  UNL     1      52.881 -16.492   7.925  1.00  0.00     0.187 HD
HETATM    4  C10 UNL     1      51.313 -17.052   9.141  1.00  0.00     0.221 A 
HETATM    5  N4  UNL     1      51.716 -18.402   9.332  1.00  0.00    -0.062 NA
HETATM    6  N5  UNL     1      50.181 -16.645   9.745  1.00  0.00    -0.162 N 
ATOM      7  H5  UNL     1      49.653 -17.307  10.314  1.00  0.00     0.187 HD
HETATM    8  C11 UNL     1      49.729 -15.377   9.615  1.00  0.00     0.699 A 
HETATM    9  N7  UNL     1      50.436 -14.517   8.860  1.00  0.00    -0.022 N 
ATOM     10  H7  UNL     1      50.116 -13.555   8.745  1.00  0.00     0.203 HD
ENDROOT
BRANCH   1  11
HETATM   11  N2  UNL     1      52.260 -14.130   7.533  1.00  0.00    -0.173 N 
ATOM     12  H2  UNL     1      53.170 -13.839   7.890  1.00  0.00     0.186 HD
BRANCH  11  13
HETATM   13  C8  UNL     1      51.858 -13.614   6.280  1.00  0.00     0.158 A 
HETATM   14  N1  UNL     1      52.057 -14.331   5.141  1.00  0.00    -0.218 N 
HETATM   15  C7  UNL     1      51.668 -13.825   3.957  1.00  0.00     0.126 A 
HETATM   16  C6  UNL     1      51.071 -12.584   3.914  1.00  0.00     0.032 A 
HETATM   17  C5  UNL     1      50.857 -11.833   5.061  1.00  0.00    -0.021 A 
HETATM   18  C4  UNL     1      50.264 -10.592   5.040  1.00  0.00     0.013 A 
HETATM   19  C18 UNL     1      51.261 -12.364   6.268  1.00  0.00     0.021 A 
HETATM   20  C3  UNL     1      50.063  -9.864   6.215  1.00  0.00     0.007 A 
HETATM   21  C2  UNL     1      50.463 -10.384   7.427  1.00  0.00    -0.061 A 
HETATM   22  C1  UNL     1      50.266  -9.633   8.711  1.00  0.00     0.048 C 
HETATM   23  C19 UNL     1      51.056 -11.630   7.428  1.00  0.00     0.023 A 
BRANCH  14  24
HETATM   24  O1  UNL     1      52.655 -15.578   5.177  1.00  0.00    -0.282 OA
ATOM     25  H1  UNL     1      53.558 -15.666   4.894  1.00  0.00     0.245 HD
ENDBRANCH  14  24
ENDBRANCH  11  13
ENDBRANCH   1  11
BRANCH   8  26
HETATM   26  N6  UNL     1      48.641 -14.965  10.188  1.00  0.00    -0.191 N 
ATOM     27  H6  UNL     1      48.177 -15.525  10.903  1.00  0.00     0.184 HD
BRANCH  26  28
HETATM   28  C12 UNL     1      48.116 -13.702   9.784  1.00  0.00     0.049 A 
HETATM   29  C13 UNL     1      47.998 -12.667  10.690  1.00  0.00     0.030 A 
HETATM   30  C14 UNL     1      47.493 -11.429  10.332  1.00  0.00     0.002 A 
HETATM   31  C15 UNL     1      47.085 -11.200   9.026  1.00  0.00     0.000 A 
HETATM   32  C16 UNL     1      47.195 -12.218   8.108  1.00  0.00     0.002 A 
HETATM   33  C17 UNL     1      47.707 -13.460   8.488  1.00  0.00     0.030 A 
ENDBRANCH  26  28
ENDBRANCH   8  26
TORSDOF 5
ENDMDL
