MODEL 1
REMARK VINA RESULT: -9.648485479      0.000      0.000
REMARK  4 active torsions:
REMARK  status: ('A' for Active; 'I' for Inactive)
REMARK    1  A    between atoms: C6_6  and  C7_7 
REMARK       I    between atoms: C7_7  and  N1_9 
REMARK    2  A    between atoms: N1_9  and  C8_11 
REMARK    3  A    between atoms: C11_14  and  N2_15 
REMARK    4  A    between atoms: C12_20  and  C13_21 
ROOT
HETATM    1  C1  UNL     1      48.257 -16.854  14.805  1.00  0.00     0.103 C 
HETATM    2  C2  UNL     1      47.927 -15.884  14.138  1.00  0.00    -0.147 C 
HETATM    3  C3  UNL     1      47.560 -14.746  13.343  1.00  0.00     0.020 A 
HETATM    4  C4  UNL     1      47.498 -13.473  13.919  1.00  0.00     0.023 A 
HETATM    5  C5  UNL     1      47.147 -12.423  13.132  1.00  0.00     0.037 A 
HETATM    6  C6  UNL     1      46.853 -12.584  11.798  1.00  0.00     0.101 A 
HETATM    7  N7  UNL     1      46.923 -13.809  11.291  1.00  0.00    -0.360 N 
ATOM      8  H7  UNL     1      46.705 -13.931  10.302  1.00  0.00     0.165 HD
HETATM    9  C20 UNL     1      47.264 -14.898  12.003  1.00  0.00     0.108 A 
ENDROOT
BRANCH   6  10
HETATM   10  C7  UNL     1      46.485 -11.403  11.031  1.00  0.00     0.273 C 
HETATM   11  O1  UNL     1      45.289 -11.149  10.740  1.00  0.00    -0.266 OA
HETATM   12  N1  UNL     1      47.497 -10.535  10.612  1.00  0.00    -0.308 N 
ATOM     13  H1  UNL     1      47.621  -9.666  11.132  1.00  0.00     0.170 HD
BRANCH  12  14
HETATM   14  C8  UNL     1      48.286 -10.753   9.614  1.00  0.00     0.108 A 
HETATM   15  C9  UNL     1      48.062 -11.764   8.700  1.00  0.00     0.066 A 
HETATM   16  C10 UNL     1      48.914 -11.995   7.626  1.00  0.00     0.039 A 
HETATM   17  C11 UNL     1      48.679 -13.008   6.722  1.00  0.00     0.113 A 
HETATM   18  C18 UNL     1      50.025 -11.179   7.473  1.00  0.00     0.063 A 
HETATM   19  N3  UNL     1      49.561 -13.179   5.687  1.00  0.00    -0.328 N 
HETATM   20  C12 UNL     1      50.626 -12.398   5.538  1.00  0.00     0.117 A 
ATOM     21  H3  UNL     1      49.394 -13.926   5.012  1.00  0.00     0.169 HD
HETATM   22  N5  UNL     1      50.846 -11.401   6.439  1.00  0.00    -0.340 N 
ATOM     23  H5  UNL     1      51.664 -10.803   6.323  1.00  0.00     0.167 HD
HETATM   24  C19 UNL     1      50.228 -10.186   8.387  1.00  0.00     0.120 A 
HETATM   25  N6  UNL     1      49.372  -9.986   9.430  1.00  0.00    -0.350 N 
ATOM     26  H6  UNL     1      49.562  -9.231  10.088  1.00  0.00     0.166 HD
BRANCH  17  27
HETATM   27  N2  UNL     1      47.683 -13.760   6.838  1.00  0.00    -0.385 N 
ATOM     28  H22 UNL     1      47.166 -13.800   7.716  1.00  0.00     0.157 HD
ATOM     29  H21 UNL     1      47.371 -14.343   6.061  1.00  0.00     0.157 HD
ENDBRANCH  17  27
BRANCH  20  30
HETATM   30  C13 UNL     1      51.584 -12.544   4.457  1.00  0.00     0.011 A 
HETATM   31  C14 UNL     1      51.183 -12.809   3.172  1.00  0.00     0.032 A 
HETATM   32  C15 UNL     1      52.113 -12.948   2.138  1.00  0.00     0.088 A 
HETATM   33  N4  UNL     1      53.428 -12.819   2.413  1.00  0.00    -0.375 N 
HETATM   34  C16 UNL     1      53.865 -12.560   3.655  1.00  0.00     0.088 A 
ATOM     35  H4  UNL     1      54.106 -12.922   1.658  1.00  0.00     0.164 HD
HETATM   36  C17 UNL     1      52.949 -12.425   4.664  1.00  0.00     0.032 A 
ENDBRANCH  20  30
ENDBRANCH  12  14
ENDBRANCH   6  10
TORSDOF 4
ENDMDL
MODEL 2
REMARK VINA RESULT: -9.445842834      2.302      8.409
REMARK  4 active torsions:
REMARK  status: ('A' for Active; 'I' for Inactive)
REMARK    1  A    between atoms: C6_6  and  C7_7 
REMARK       I    between atoms: C7_7  and  N1_9 
REMARK    2  A    between atoms: N1_9  and  C8_11 
REMARK    3  A    between atoms: C11_14  and  N2_15 
REMARK    4  A    between atoms: C12_20  and  C13_21 
ROOT
HETATM    1  C1  UNL     1      50.930 -13.017   3.661  1.00  0.00     0.103 C 
HETATM    2  C2  UNL     1      50.561 -12.473   4.692  1.00  0.00    -0.147 C 
HETATM    3  C3  UNL     1      50.132 -11.853   5.914  1.00  0.00     0.020 A 
HETATM    4  C4  UNL     1      48.785 -11.526   6.104  1.00  0.00     0.023 A 
HETATM    5  C5  UNL     1      48.420 -10.941   7.275  1.00  0.00     0.037 A 
HETATM    6  C6  UNL     1      49.336 -10.666   8.264  1.00  0.00     0.101 A 
HETATM    7  N7  UNL     1      50.604 -10.992   8.042  1.00  0.00    -0.360 N 
ATOM      8  H7  UNL     1      51.285 -10.789   8.773  1.00  0.00     0.165 HD
HETATM    9  C20 UNL     1      51.044 -11.574   6.912  1.00  0.00     0.108 A 
ENDROOT
BRANCH   6  10
HETATM   10  C7  UNL     1      48.857 -10.037   9.485  1.00  0.00     0.273 C 
HETATM   11  O1  UNL     1      49.436  -9.041   9.987  1.00  0.00    -0.266 OA
HETATM   12  N1  UNL     1      47.721 -10.562  10.108  1.00  0.00    -0.308 N 
ATOM     13  H1  UNL     1      46.839 -10.065   9.981  1.00  0.00     0.170 HD
BRANCH  12  14
HETATM   14  C8  UNL     1      47.708 -11.631  10.831  1.00  0.00     0.108 A 
HETATM   15  C9  UNL     1      48.254 -12.824  10.401  1.00  0.00     0.066 A 
HETATM   16  C10 UNL     1      48.239 -13.972  11.185  1.00  0.00     0.039 A 
HETATM   17  C11 UNL     1      48.787 -15.156  10.743  1.00  0.00     0.113 A 
HETATM   18  C18 UNL     1      47.652 -13.911  12.440  1.00  0.00     0.063 A 
HETATM   19  N3  UNL     1      48.736 -16.250  11.568  1.00  0.00    -0.328 N 
HETATM   20  C12 UNL     1      48.174 -16.193  12.771  1.00  0.00     0.117 A 
ATOM     21  H3  UNL     1      49.140 -17.130  11.249  1.00  0.00     0.169 HD
HETATM   22  N5  UNL     1      47.636 -15.016  13.195  1.00  0.00    -0.340 N 
ATOM     23  H5  UNL     1      47.205 -14.975  14.118  1.00  0.00     0.167 HD
HETATM   24  C19 UNL     1      47.117 -12.722  12.846  1.00  0.00     0.120 A 
HETATM   25  N6  UNL     1      47.149 -11.614  12.052  1.00  0.00    -0.350 N 
ATOM     26  H6  UNL     1      46.738 -10.746  12.396  1.00  0.00     0.166 HD
BRANCH  17  27
HETATM   27  N2  UNL     1      49.323 -15.238   9.613  1.00  0.00    -0.385 N 
ATOM     28  H22 UNL     1      50.229 -15.693   9.504  1.00  0.00     0.157 HD
ATOM     29  H21 UNL     1      48.868 -14.854   8.784  1.00  0.00     0.157 HD
ENDBRANCH  17  27
BRANCH  20  30
HETATM   30  C13 UNL     1      48.099 -17.326  13.676  1.00  0.00     0.011 A 
HETATM   31  C14 UNL     1      47.613 -18.541  13.266  1.00  0.00     0.032 A 
HETATM   32  C15 UNL     1      47.544 -19.627  14.145  1.00  0.00     0.088 A 
HETATM   33  N4  UNL     1      47.963 -19.470  15.418  1.00  0.00    -0.375 N 
HETATM   34  C16 UNL     1      48.445 -18.299  15.862  1.00  0.00     0.088 A 
ATOM     35  H4  UNL     1      47.911 -20.262  16.059  1.00  0.00     0.164 HD
HETATM   36  C17 UNL     1      48.510 -17.240  14.997  1.00  0.00     0.032 A 
ENDBRANCH  20  30
ENDBRANCH  12  14
ENDBRANCH   6  10
TORSDOF 4
ENDMDL
MODEL 3
REMARK VINA RESULT: -9.305756996      0.982      1.048
REMARK  4 active torsions:
REMARK  status: ('A' for Active; 'I' for Inactive)
REMARK    1  A    between atoms: C6_6  and  C7_7 
REMARK       I    between atoms: C7_7  and  N1_9 
REMARK    2  A    between atoms: N1_9  and  C8_11 
REMARK    3  A    between atoms: C11_14  and  N2_15 
REMARK    4  A    between atoms: C12_20  and  C13_21 
ROOT
HETATM    1  C1  UNL     1      48.220 -17.014  14.993  1.00  0.00     0.103 C 
HETATM    2  C2  UNL     1      47.953 -16.023  14.328  1.00  0.00    -0.147 C 
HETATM    3  C3  UNL     1      47.660 -14.860  13.540  1.00  0.00     0.020 A 
HETATM    4  C4  UNL     1      47.477 -13.617  14.155  1.00  0.00     0.023 A 
HETATM    5  C5  UNL     1      47.202 -12.541  13.372  1.00  0.00     0.037 A 
HETATM    6  C6  UNL     1      47.100 -12.648  12.004  1.00  0.00     0.101 A 
HETATM    7  N7  UNL     1      47.279 -13.845  11.461  1.00  0.00    -0.360 N 
ATOM      8  H7  UNL     1      47.203 -13.928  10.447  1.00  0.00     0.165 HD
HETATM    9  C20 UNL     1      47.555 -14.957  12.166  1.00  0.00     0.108 A 
ENDROOT
BRANCH   6  10
HETATM   10  C7  UNL     1      46.801 -11.443  11.245  1.00  0.00     0.273 C 
HETATM   11  O1  UNL     1      45.623 -11.034  11.090  1.00  0.00    -0.266 OA
HETATM   12  N1  UNL     1      47.860 -10.730  10.676  1.00  0.00    -0.308 N 
ATOM     13  H1  UNL     1      48.163  -9.876  11.146  1.00  0.00     0.170 HD
BRANCH  12  14
HETATM   14  C8  UNL     1      48.483 -11.074   9.600  1.00  0.00     0.108 A 
HETATM   15  C9  UNL     1      48.428 -12.356   9.089  1.00  0.00     0.066 A 
HETATM   16  C10 UNL     1      49.100 -12.721   7.928  1.00  0.00     0.039 A 
HETATM   17  C11 UNL     1      49.037 -14.004   7.430  1.00  0.00     0.113 A 
HETATM   18  C18 UNL     1      49.851 -11.761   7.266  1.00  0.00     0.063 A 
HETATM   19  N3  UNL     1      49.725 -14.295   6.281  1.00  0.00    -0.328 N 
HETATM   20  C12 UNL     1      50.445 -13.376   5.644  1.00  0.00     0.117 A 
ATOM     21  H3  UNL     1      49.684 -15.242   5.904  1.00  0.00     0.169 HD
HETATM   22  N5  UNL     1      50.499 -12.112   6.149  1.00  0.00    -0.340 N 
ATOM     23  H5  UNL     1      51.052 -11.409   5.659  1.00  0.00     0.167 HD
HETATM   24  C19 UNL     1      49.893 -10.500   7.788  1.00  0.00     0.120 A 
HETATM   25  N6  UNL     1      49.221 -10.175   8.929  1.00  0.00    -0.350 N 
ATOM     26  H6  UNL     1      49.280  -9.220   9.283  1.00  0.00     0.166 HD
BRANCH  17  27
HETATM   27  N2  UNL     1      48.366 -14.890   8.009  1.00  0.00    -0.385 N 
ATOM     28  H22 UNL     1      47.411 -15.090   7.713  1.00  0.00     0.157 HD
ATOM     29  H21 UNL     1      48.759 -15.426   8.784  1.00  0.00     0.157 HD
ENDBRANCH  17  27
BRANCH  20  30
HETATM   30  C13 UNL     1      51.189 -13.641   4.426  1.00  0.00     0.011 A 
HETATM   31  C14 UNL     1      51.168 -12.768   3.368  1.00  0.00     0.032 A 
HETATM   32  C15 UNL     1      51.887 -13.031   2.198  1.00  0.00     0.088 A 
HETATM   33  N4  UNL     1      52.612 -14.166   2.113  1.00  0.00    -0.375 N 
HETATM   34  C16 UNL     1      52.661 -15.048   3.123  1.00  0.00     0.088 A 
ATOM     35  H4  UNL     1      53.135 -14.358   1.259  1.00  0.00     0.164 HD
HETATM   36  C17 UNL     1      51.955 -14.785   4.266  1.00  0.00     0.032 A 
ENDBRANCH  20  30
ENDBRANCH  12  14
ENDBRANCH   6  10
TORSDOF 4
ENDMDL
MODEL 4
REMARK VINA RESULT: -9.058568429      2.295      8.820
REMARK  4 active torsions:
REMARK  status: ('A' for Active; 'I' for Inactive)
REMARK    1  A    between atoms: C6_6  and  C7_7 
REMARK       I    between atoms: C7_7  and  N1_9 
REMARK    2  A    between atoms: N1_9  and  C8_11 
REMARK    3  A    between atoms: C11_14  and  N2_15 
REMARK    4  A    between atoms: C12_20  and  C13_21 
ROOT
HETATM    1  C1  UNL     1      52.734 -12.687   3.123  1.00  0.00     0.103 C 
HETATM    2  C2  UNL     1      52.158 -12.244   4.106  1.00  0.00    -0.147 C 
HETATM    3  C3  UNL     1      51.478 -11.746   5.268  1.00  0.00     0.020 A 
HETATM    4  C4  UNL     1      50.236 -11.113   5.142  1.00  0.00     0.023 A 
HETATM    5  C5  UNL     1      49.626 -10.657   6.266  1.00  0.00     0.037 A 
HETATM    6  C6  UNL     1      50.195 -10.801   7.510  1.00  0.00     0.101 A 
HETATM    7  N7  UNL     1      51.374 -11.406   7.585  1.00  0.00    -0.360 N 
ATOM      8  H7  UNL     1      51.800 -11.514   8.505  1.00  0.00     0.165 HD
HETATM    9  C20 UNL     1      52.042 -11.886   6.520  1.00  0.00     0.108 A 
ENDROOT
BRANCH   6  10
HETATM   10  C7  UNL     1      49.471 -10.280   8.659  1.00  0.00     0.273 C 
HETATM   11  O1  UNL     1      49.850  -9.248   9.269  1.00  0.00    -0.266 OA
HETATM   12  N1  UNL     1      48.323 -10.953   9.088  1.00  0.00    -0.308 N 
ATOM     13  H1  UNL     1      47.418 -10.552   8.841  1.00  0.00     0.170 HD
BRANCH  12  14
HETATM   14  C8  UNL     1      48.326 -12.046   9.774  1.00  0.00     0.108 A 
HETATM   15  C9  UNL     1      47.851 -12.111  11.069  1.00  0.00     0.066 A 
HETATM   16  C10 UNL     1      47.855 -13.291  11.803  1.00  0.00     0.039 A 
HETATM   17  C11 UNL     1      47.379 -13.340  13.094  1.00  0.00     0.113 A 
HETATM   18  C18 UNL     1      48.356 -14.440  11.209  1.00  0.00     0.063 A 
HETATM   19  N3  UNL     1      47.414 -14.538  13.760  1.00  0.00    -0.328 N 
HETATM   20  C12 UNL     1      47.893 -15.640  13.193  1.00  0.00     0.117 A 
ATOM     21  H3  UNL     1      47.062 -14.584  14.716  1.00  0.00     0.169 HD
HETATM   22  N5  UNL     1      48.361 -15.576  11.916  1.00  0.00    -0.340 N 
ATOM     23  H5  UNL     1      48.729 -16.424  11.482  1.00  0.00     0.167 HD
HETATM   24  C19 UNL     1      48.821 -14.355   9.929  1.00  0.00     0.120 A 
HETATM   25  N6  UNL     1      48.802 -13.181   9.235  1.00  0.00    -0.350 N 
ATOM     26  H6  UNL     1      49.160 -13.164   8.280  1.00  0.00     0.166 HD
BRANCH  17  27
HETATM   27  N2  UNL     1      46.921 -12.316  13.654  1.00  0.00    -0.385 N 
ATOM     28  H22 UNL     1      46.513 -11.564  13.100  1.00  0.00     0.157 HD
ATOM     29  H21 UNL     1      46.947 -12.215  14.669  1.00  0.00     0.157 HD
ENDBRANCH  17  27
BRANCH  20  30
HETATM   30  C13 UNL     1      47.949 -16.928  13.861  1.00  0.00     0.011 A 
HETATM   31  C14 UNL     1      48.476 -17.061  15.120  1.00  0.00     0.032 A 
HETATM   32  C15 UNL     1      48.525 -18.306  15.756  1.00  0.00     0.088 A 
HETATM   33  N4  UNL     1      48.046 -19.392  15.114  1.00  0.00    -0.375 N 
HETATM   34  C16 UNL     1      47.522 -19.308  13.882  1.00  0.00     0.088 A 
ATOM     35  H4  UNL     1      48.083 -20.300  15.578  1.00  0.00     0.164 HD
HETATM   36  C17 UNL     1      47.476 -18.086  13.264  1.00  0.00     0.032 A 
ENDBRANCH  20  30
ENDBRANCH  12  14
ENDBRANCH   6  10
TORSDOF 4
ENDMDL
MODEL 5
REMARK VINA RESULT: -9.056180148      3.394      6.058
REMARK  4 active torsions:
REMARK  status: ('A' for Active; 'I' for Inactive)
REMARK    1  A    between atoms: C6_6  and  C7_7 
REMARK       I    between atoms: C7_7  and  N1_9 
REMARK    2  A    between atoms: N1_9  and  C8_11 
REMARK    3  A    between atoms: C11_14  and  N2_15 
REMARK    4  A    between atoms: C12_20  and  C13_21 
ROOT
HETATM    1  C1  UNL     1      53.170 -16.042  18.842  1.00  0.00     0.103 C 
HETATM    2  C2  UNL     1      52.335 -16.428  18.035  1.00  0.00    -0.147 C 
HETATM    3  C3  UNL     1      51.368 -16.871  17.072  1.00  0.00     0.020 A 
HETATM    4  C4  UNL     1      50.105 -16.272  17.012  1.00  0.00     0.023 A 
HETATM    5  C5  UNL     1      49.219 -16.722  16.085  1.00  0.00     0.037 A 
HETATM    6  C6  UNL     1      49.533 -17.742  15.218  1.00  0.00     0.101 A 
HETATM    7  N7  UNL     1      50.741 -18.284  15.309  1.00  0.00    -0.360 N 
ATOM      8  H7  UNL     1      50.977 -19.041  14.668  1.00  0.00     0.165 HD
HETATM    9  C20 UNL     1      51.674 -17.894  16.197  1.00  0.00     0.108 A 
ENDROOT
BRANCH   6  10
HETATM   10  C7  UNL     1      48.522 -18.160  14.259  1.00  0.00     0.273 C 
HETATM   11  O1  UNL     1      48.391 -19.363  13.917  1.00  0.00    -0.266 OA
HETATM   12  N1  UNL     1      47.679 -17.190  13.708  1.00  0.00    -0.308 N 
ATOM     13  H1  UNL     1      46.729 -17.125  14.075  1.00  0.00     0.170 HD
BRANCH  12  14
HETATM   14  C8  UNL     1      48.016 -16.371  12.770  1.00  0.00     0.108 A 
HETATM   15  C9  UNL     1      47.611 -15.051  12.756  1.00  0.00     0.066 A 
HETATM   16  C10 UNL     1      47.977 -14.173  11.743  1.00  0.00     0.039 A 
HETATM   17  C11 UNL     1      47.565 -12.859  11.742  1.00  0.00     0.113 A 
HETATM   18  C18 UNL     1      48.777 -14.645  10.713  1.00  0.00     0.063 A 
HETATM   19  N3  UNL     1      47.964 -12.048  10.711  1.00  0.00    -0.328 N 
HETATM   20  C12 UNL     1      48.730 -12.498   9.722  1.00  0.00     0.117 A 
ATOM     21  H3  UNL     1      47.664 -11.073  10.702  1.00  0.00     0.169 HD
HETATM   22  N5  UNL     1      49.130 -13.800   9.737  1.00  0.00    -0.340 N 
ATOM     23  H5  UNL     1      49.718 -14.144   8.977  1.00  0.00     0.167 HD
HETATM   24  C19 UNL     1      49.167 -15.953  10.745  1.00  0.00     0.120 A 
HETATM   25  N6  UNL     1      48.789 -16.789  11.755  1.00  0.00    -0.350 N 
ATOM     26  H6  UNL     1      49.104 -17.758  11.738  1.00  0.00     0.166 HD
BRANCH  17  27
HETATM   27  N2  UNL     1      46.842 -12.407  12.661  1.00  0.00    -0.385 N 
ATOM     28  H22 UNL     1      45.832 -12.341  12.537  1.00  0.00     0.157 HD
ATOM     29  H21 UNL     1      47.246 -12.097  13.544  1.00  0.00     0.157 HD
ENDBRANCH  17  27
BRANCH  20  30
HETATM   30  C13 UNL     1      49.175 -11.675   8.612  1.00  0.00     0.011 A 
HETATM   31  C14 UNL     1      48.341 -10.766   8.013  1.00  0.00     0.032 A 
HETATM   32  C15 UNL     1      48.779  -9.978   6.944  1.00  0.00     0.088 A 
HETATM   33  N4  UNL     1      50.044 -10.118   6.498  1.00  0.00    -0.375 N 
HETATM   34  C16 UNL     1      50.894 -10.995   7.053  1.00  0.00     0.088 A 
ATOM     35  H4  UNL     1      50.362  -9.544   5.717  1.00  0.00     0.164 HD
HETATM   36  C17 UNL     1      50.460 -11.765   8.100  1.00  0.00     0.032 A 
ENDBRANCH  20  30
ENDBRANCH  12  14
ENDBRANCH   6  10
TORSDOF 4
ENDMDL
