MODEL 1
REMARK VINA RESULT: -10.521132969      0.000      0.000
REMARK  2 active torsions:
REMARK  status: ('A' for Active; 'I' for Inactive)
REMARK    1  A    between atoms: C5_12  and  C6_13 
REMARK    2  A    between atoms: C10_17  and  C11_18 
ROOT
HETATM    1  C6  UNL     1      47.968 -11.750   9.872  1.00  0.00    -0.034 A 
HETATM    2  C7  UNL     1      46.711 -11.205   9.827  1.00  0.00     0.011 A 
HETATM    3  C8  UNL     1      45.715 -11.631  10.714  1.00  0.00     0.002 A 
HETATM    4  C9  UNL     1      46.005 -12.611  11.640  1.00  0.00     0.012 A 
HETATM    5  C10 UNL     1      47.268 -13.189  11.716  1.00  0.00    -0.025 A 
HETATM    6  C18 UNL     1      48.222 -12.745  10.830  1.00  0.00     0.023 A 
ENDROOT
BRANCH   1   7
HETATM    7  C5  UNL     1      49.033 -11.336   8.997  1.00  0.00     0.034 C 
HETATM    8  C4  UNL     1      49.386 -11.720   7.810  1.00  0.00     0.101 A 
HETATM    9  C1  UNL     1      50.574 -11.059   7.206  1.00  0.00     0.263 A 
HETATM   10  C3  UNL     1      48.666 -12.716   7.040  1.00  0.00     0.263 A 
HETATM   11  O1  UNL     1      51.242 -10.185   7.818  1.00  0.00    -0.267 OA
HETATM   12  N1  UNL     1      50.941 -11.445   5.894  1.00  0.00    -0.299 N 
HETATM   13  C2  UNL     1      50.211 -12.429   5.167  1.00  0.00     0.181 A 
ATOM     14  H1  UNL     1      51.752 -11.007   5.457  1.00  0.00     0.171 HD
HETATM   15  S1  UNL     1      50.709 -12.817   3.648  1.00  0.00    -0.040 SA
HETATM   16  N2  UNL     1      49.079 -13.072   5.718  1.00  0.00    -0.299 N 
ATOM     17  H2  UNL     1      48.568 -13.775   5.184  1.00  0.00     0.171 HD
HETATM   18  O2  UNL     1      47.632 -13.322   7.492  1.00  0.00    -0.267 OA
ENDBRANCH   1   7
BRANCH   5  19
HETATM   19  C11 UNL     1      47.530 -14.223  12.711  1.00  0.00    -0.025 A 
HETATM   20  C12 UNL     1      47.539 -13.928  14.055  1.00  0.00     0.014 A 
HETATM   21  C13 UNL     1      47.796 -14.940  14.992  1.00  0.00     0.033 A 
HETATM   22  C14 UNL     1      48.039 -16.229  14.586  1.00  0.00     0.071 A 
HETATM   23  N3  UNL     1      48.306 -17.357  15.259  1.00  0.00    -0.257 N 
HETATM   24  C16 UNL     1      48.035 -16.551  13.240  1.00  0.00     0.070 A 
HETATM   25  O3  UNL     1      48.462 -18.331  14.399  1.00  0.00    -0.194 OA
ATOM     26  H3  UNL     1      48.375 -17.441  16.272  1.00  0.00     0.195 HD
HETATM   27  C15 UNL     1      48.310 -17.898  13.186  1.00  0.00     0.317 A 
HETATM   28  O4  UNL     1      48.395 -18.577  12.144  1.00  0.00    -0.257 OA
HETATM   29  C17 UNL     1      47.782 -15.544  12.337  1.00  0.00     0.032 A 
ENDBRANCH   5  19
TORSDOF 2
ENDMDL
MODEL 2
REMARK VINA RESULT: -10.411685632      2.147      2.897
REMARK  2 active torsions:
REMARK  status: ('A' for Active; 'I' for Inactive)
REMARK    1  A    between atoms: C5_12  and  C6_13 
REMARK    2  A    between atoms: C10_17  and  C11_18 
ROOT
HETATM    1  C6  UNL     1      49.306 -11.932   7.510  1.00  0.00    -0.034 A 
HETATM    2  C7  UNL     1      48.331 -11.125   6.981  1.00  0.00     0.011 A 
HETATM    3  C8  UNL     1      47.182 -10.814   7.718  1.00  0.00     0.002 A 
HETATM    4  C9  UNL     1      47.032 -11.327   8.990  1.00  0.00     0.012 A 
HETATM    5  C10 UNL     1      47.998 -12.149   9.561  1.00  0.00    -0.025 A 
HETATM    6  C18 UNL     1      49.113 -12.433   8.809  1.00  0.00     0.023 A 
ENDROOT
BRANCH   1   7
HETATM    7  C5  UNL     1      50.513 -12.269   6.804  1.00  0.00     0.034 C 
HETATM    8  C4  UNL     1      50.862 -13.314   6.123  1.00  0.00     0.101 A 
HETATM    9  C1  UNL     1      52.227 -13.316   5.529  1.00  0.00     0.263 A 
HETATM   10  C3  UNL     1      49.987 -14.445   5.880  1.00  0.00     0.263 A 
HETATM   11  O1  UNL     1      53.036 -12.366   5.699  1.00  0.00    -0.267 OA
HETATM   12  N1  UNL     1      52.600 -14.438   4.751  1.00  0.00    -0.299 N 
HETATM   13  C2  UNL     1      51.714 -15.532   4.534  1.00  0.00     0.181 A 
ATOM     14  H1  UNL     1      53.530 -14.464   4.333  1.00  0.00     0.171 HD
HETATM   15  S1  UNL     1      52.231 -16.796   3.615  1.00  0.00    -0.040 SA
HETATM   16  N2  UNL     1      50.413 -15.556   5.086  1.00  0.00    -0.299 N 
ATOM     17  H2  UNL     1      49.791 -16.348   4.922  1.00  0.00     0.171 HD
HETATM   18  O2  UNL     1      48.798 -14.511   6.353  1.00  0.00    -0.267 OA
ENDBRANCH   1   7
BRANCH   5  19
HETATM   19  C11 UNL     1      47.797 -12.669  10.909  1.00  0.00    -0.025 A 
HETATM   20  C12 UNL     1      47.320 -11.863  11.917  1.00  0.00     0.014 A 
HETATM   21  C13 UNL     1      47.138 -12.386  13.205  1.00  0.00     0.033 A 
HETATM   22  C14 UNL     1      47.429 -13.700  13.478  1.00  0.00     0.071 A 
HETATM   23  N3  UNL     1      47.346 -14.434  14.596  1.00  0.00    -0.257 N 
HETATM   24  C16 UNL     1      47.908 -14.531  12.481  1.00  0.00     0.070 A 
HETATM   25  O3  UNL     1      47.747 -15.650  14.330  1.00  0.00    -0.194 OA
ATOM     26  H3  UNL     1      47.024 -14.100  15.504  1.00  0.00     0.195 HD
HETATM   27  C15 UNL     1      48.092 -15.755  13.083  1.00  0.00     0.317 A 
HETATM   28  O4  UNL     1      48.517 -16.782  12.519  1.00  0.00    -0.257 OA
HETATM   29  C17 UNL     1      48.081 -13.998  11.224  1.00  0.00     0.032 A 
ENDBRANCH   5  19
TORSDOF 2
ENDMDL
MODEL 3
REMARK VINA RESULT: -10.385557938      2.624      4.073
REMARK  2 active torsions:
REMARK  status: ('A' for Active; 'I' for Inactive)
REMARK    1  A    between atoms: C5_12  and  C6_13 
REMARK    2  A    between atoms: C10_17  and  C11_18 
ROOT
HETATM    1  C6  UNL     1      50.656 -11.404   6.655  1.00  0.00    -0.034 A 
HETATM    2  C7  UNL     1      49.959 -10.386   6.057  1.00  0.00     0.011 A 
HETATM    3  C8  UNL     1      48.787  -9.885   6.637  1.00  0.00     0.002 A 
HETATM    4  C9  UNL     1      48.332 -10.425   7.822  1.00  0.00     0.012 A 
HETATM    5  C10 UNL     1      49.010 -11.459   8.458  1.00  0.00    -0.025 A 
HETATM    6  C18 UNL     1      50.157 -11.925   7.861  1.00  0.00     0.023 A 
ENDROOT
BRANCH   1   7
HETATM    7  C5  UNL     1      51.874 -11.944   6.112  1.00  0.00     0.034 C 
HETATM    8  C4  UNL     1      52.115 -12.975   5.364  1.00  0.00     0.101 A 
HETATM    9  C1  UNL     1      53.534 -13.236   5.001  1.00  0.00     0.263 A 
HETATM   10  C3  UNL     1      51.082 -13.847   4.840  1.00  0.00     0.263 A 
HETATM   11  O1  UNL     1      54.480 -12.518   5.419  1.00  0.00    -0.267 OA
HETATM   12  N1  UNL     1      53.800 -14.337   4.152  1.00  0.00    -0.299 N 
HETATM   13  C2  UNL     1      52.758 -15.174   3.656  1.00  0.00     0.181 A 
ATOM     14  H1  UNL     1      54.764 -14.538   3.888  1.00  0.00     0.171 HD
HETATM   15  S1  UNL     1      53.158 -16.433   2.675  1.00  0.00    -0.040 SA
HETATM   16  N2  UNL     1      51.402 -14.948   3.986  1.00  0.00    -0.299 N 
ATOM     17  H2  UNL     1      50.669 -15.557   3.623  1.00  0.00     0.171 HD
HETATM   18  O2  UNL     1      49.839 -13.680   5.105  1.00  0.00    -0.267 OA
ENDBRANCH   1   7
BRANCH   5  19
HETATM   19  C11 UNL     1      48.491 -12.000   9.709  1.00  0.00    -0.025 A 
HETATM   20  C12 UNL     1      47.733 -11.225  10.557  1.00  0.00     0.014 A 
HETATM   21  C13 UNL     1      47.248 -11.768  11.756  1.00  0.00     0.033 A 
HETATM   22  C14 UNL     1      47.519 -13.070  12.098  1.00  0.00     0.071 A 
HETATM   23  N3  UNL     1      47.183 -13.817  13.159  1.00  0.00    -0.257 N 
HETATM   24  C16 UNL     1      48.277 -13.870  11.262  1.00  0.00     0.070 A 
HETATM   25  O3  UNL     1      47.695 -15.012  13.009  1.00  0.00    -0.194 OA
ATOM     26  H3  UNL     1      46.623 -13.506  13.951  1.00  0.00     0.195 HD
HETATM   27  C15 UNL     1      48.355 -15.089  11.894  1.00  0.00     0.317 A 
HETATM   28  O4  UNL     1      48.957 -16.091  11.462  1.00  0.00    -0.257 OA
HETATM   29  C17 UNL     1      48.744 -13.318  10.091  1.00  0.00     0.032 A 
ENDBRANCH   5  19
TORSDOF 2
ENDMDL
MODEL 4
REMARK VINA RESULT: -10.300074386      2.187      3.139
REMARK  2 active torsions:
REMARK  status: ('A' for Active; 'I' for Inactive)
REMARK    1  A    between atoms: C5_12  and  C6_13 
REMARK    2  A    between atoms: C10_17  and  C11_18 
ROOT
HETATM    1  C6  UNL     1      48.839 -12.414   7.438  1.00  0.00    -0.034 A 
HETATM    2  C7  UNL     1      48.064 -11.338   7.090  1.00  0.00     0.011 A 
HETATM    3  C8  UNL     1      47.179 -10.765   8.012  1.00  0.00     0.002 A 
HETATM    4  C9  UNL     1      47.088 -11.293   9.283  1.00  0.00     0.012 A 
HETATM    5  C10 UNL     1      47.856 -12.385   9.674  1.00  0.00    -0.025 A 
HETATM    6  C18 UNL     1      48.714 -12.921   8.743  1.00  0.00     0.023 A 
ENDROOT
BRANCH   1   7
HETATM    7  C5  UNL     1      49.776 -13.030   6.537  1.00  0.00     0.034 C 
HETATM    8  C4  UNL     1      51.051 -12.877   6.366  1.00  0.00     0.101 A 
HETATM    9  C1  UNL     1      51.700 -13.696   5.307  1.00  0.00     0.263 A 
HETATM   10  C3  UNL     1      51.870 -11.991   7.172  1.00  0.00     0.263 A 
HETATM   11  O1  UNL     1      51.049 -14.486   4.574  1.00  0.00    -0.267 OA
HETATM   12  N1  UNL     1      53.099 -13.563   5.142  1.00  0.00    -0.299 N 
HETATM   13  C2  UNL     1      53.872 -12.681   5.952  1.00  0.00     0.181 A 
ATOM     14  H1  UNL     1      53.568 -14.113   4.423  1.00  0.00     0.171 HD
HETATM   15  S1  UNL     1      55.494 -12.590   5.690  1.00  0.00    -0.040 SA
HETATM   16  N2  UNL     1      53.281 -11.892   6.965  1.00  0.00    -0.299 N 
ATOM     17  H2  UNL     1      53.849 -11.266   7.535  1.00  0.00     0.171 HD
HETATM   18  O2  UNL     1      51.383 -11.261   8.106  1.00  0.00    -0.267 OA
ENDBRANCH   1   7
BRANCH   5  19
HETATM   19  C11 UNL     1      47.726 -12.910  11.028  1.00  0.00    -0.025 A 
HETATM   20  C12 UNL     1      47.293 -12.111  12.061  1.00  0.00     0.014 A 
HETATM   21  C13 UNL     1      47.179 -12.640  13.355  1.00  0.00     0.033 A 
HETATM   22  C14 UNL     1      47.493 -13.952  13.609  1.00  0.00     0.071 A 
HETATM   23  N3  UNL     1      47.472 -14.690  14.727  1.00  0.00    -0.257 N 
HETATM   24  C16 UNL     1      47.929 -14.777  12.587  1.00  0.00     0.070 A 
HETATM   25  O3  UNL     1      47.868 -15.903  14.437  1.00  0.00    -0.194 OA
ATOM     26  H3  UNL     1      47.193 -14.361  15.651  1.00  0.00     0.195 HD
HETATM   27  C15 UNL     1      48.152 -16.001  13.175  1.00  0.00     0.317 A 
HETATM   28  O4  UNL     1      48.555 -17.023  12.587  1.00  0.00    -0.257 OA
HETATM   29  C17 UNL     1      48.035 -14.238  11.325  1.00  0.00     0.032 A 
ENDBRANCH   5  19
TORSDOF 2
ENDMDL
MODEL 5
REMARK VINA RESULT: -10.171021296      3.018      4.566
REMARK  2 active torsions:
REMARK  status: ('A' for Active; 'I' for Inactive)
REMARK    1  A    between atoms: C5_12  and  C6_13 
REMARK    2  A    between atoms: C10_17  and  C11_18 
ROOT
HETATM    1  C6  UNL     1      50.910 -11.468   6.303  1.00  0.00    -0.034 A 
HETATM    2  C7  UNL     1      50.148 -10.341   6.128  1.00  0.00     0.011 A 
HETATM    3  C8  UNL     1      49.066 -10.071   6.974  1.00  0.00     0.002 A 
HETATM    4  C9  UNL     1      48.764 -10.951   7.992  1.00  0.00     0.012 A 
HETATM    5  C10 UNL     1      49.511 -12.105   8.201  1.00  0.00    -0.025 A 
HETATM    6  C18 UNL     1      50.567 -12.338   7.352  1.00  0.00     0.023 A 
ENDROOT
BRANCH   1   7
HETATM    7  C5  UNL     1      52.043 -11.785   5.475  1.00  0.00     0.034 C 
HETATM    8  C4  UNL     1      52.140 -12.262   4.274  1.00  0.00     0.101 A 
HETATM    9  C1  UNL     1      53.510 -12.474   3.734  1.00  0.00     0.263 A 
HETATM   10  C3  UNL     1      50.997 -12.556   3.431  1.00  0.00     0.263 A 
HETATM   11  O1  UNL     1      54.545 -12.238   4.411  1.00  0.00    -0.267 OA
HETATM   12  N1  UNL     1      53.623 -12.958   2.409  1.00  0.00    -0.299 N 
HETATM   13  C2  UNL     1      52.477 -13.237   1.609  1.00  0.00     0.181 A 
ATOM     14  H1  UNL     1      54.551 -13.112   2.015  1.00  0.00     0.171 HD
HETATM   15  S1  UNL     1      52.702 -13.798   0.078  1.00  0.00    -0.040 SA
HETATM   16  N2  UNL     1      51.165 -13.045   2.098  1.00  0.00    -0.299 N 
ATOM     17  H2  UNL     1      50.355 -13.251   1.512  1.00  0.00     0.171 HD
HETATM   18  O2  UNL     1      49.789 -12.393   3.826  1.00  0.00    -0.267 OA
ENDBRANCH   1   7
BRANCH   5  19
HETATM   19  C11 UNL     1      49.155 -13.008   9.289  1.00  0.00    -0.025 A 
HETATM   20  C12 UNL     1      49.538 -14.329   9.270  1.00  0.00     0.014 A 
HETATM   21  C13 UNL     1      49.181 -15.177  10.329  1.00  0.00     0.033 A 
HETATM   22  C14 UNL     1      48.451 -14.706  11.391  1.00  0.00     0.071 A 
HETATM   23  N3  UNL     1      47.989 -15.291  12.505  1.00  0.00    -0.257 N 
HETATM   24  C16 UNL     1      48.054 -13.382  11.435  1.00  0.00     0.070 A 
HETATM   25  O3  UNL     1      47.341 -14.400  13.210  1.00  0.00    -0.194 OA
ATOM     26  H3  UNL     1      48.121 -16.269  12.761  1.00  0.00     0.195 HD
HETATM   27  C15 UNL     1      47.353 -13.248  12.612  1.00  0.00     0.317 A 
HETATM   28  O4  UNL     1      46.825 -12.197  13.024  1.00  0.00    -0.257 OA
HETATM   29  C17 UNL     1      48.414 -12.566  10.386  1.00  0.00     0.032 A 
ENDBRANCH   5  19
TORSDOF 2
ENDMDL
