MODEL 1
REMARK VINA RESULT: -9.713425238      0.000      0.000
REMARK  3 active torsions:
REMARK  status: ('A' for Active; 'I' for Inactive)
REMARK    1  A    between atoms: C2_3  and  C3_4 
REMARK    2  A    between atoms: C4_5  and  N1_6 
REMARK    3  A    between atoms: N1_6  and  C5_7 
ROOT
HETATM    1  C3  UNL     1      50.211 -11.870   6.543  1.00  0.00     0.123 A 
HETATM    2  C4  UNL     1      49.426 -11.688   7.708  1.00  0.00     0.214 A 
HETATM    3  N4  UNL     1      48.938 -10.433   7.595  1.00  0.00    -0.270 N 
ATOM      4  H4  UNL     1      48.327  -9.982   8.276  1.00  0.00     0.189 HD
HETATM    5  N5  UNL     1      49.361  -9.878   6.488  1.00  0.00    -0.263 N 
ATOM      6  H5  UNL     1      49.125  -8.934   6.185  1.00  0.00     0.190 HD
HETATM    7  C13 UNL     1      50.150 -10.726   5.805  1.00  0.00     0.277 A 
HETATM    8  O2  UNL     1      50.683 -10.436   4.709  1.00  0.00    -0.266 OA
ENDROOT
BRANCH   2   9
HETATM    9  N1  UNL     1      49.195 -12.534   8.694  1.00  0.00    -0.366 NA
BRANCH   9  10
HETATM   10  C5  UNL     1      49.023 -13.323   9.549  1.00  0.00     0.195 A 
HETATM   11  N2  UNL     1      49.555 -14.584   9.508  1.00  0.00    -0.327 N 
HETATM   12  C6  UNL     1      49.353 -15.483  10.488  1.00  0.00     0.183 A 
ATOM     13  H2  UNL     1      50.125 -14.850   8.706  1.00  0.00     0.169 HD
HETATM   14  N3  UNL     1      48.624 -15.201  11.556  1.00  0.00    -0.351 N 
HETATM   15  C7  UNL     1      48.063 -14.007  11.692  1.00  0.00     0.048 A 
ATOM     16  H3  UNL     1      48.492 -15.907  12.279  1.00  0.00     0.166 HD
HETATM   17  C8  UNL     1      47.312 -13.748  12.818  1.00  0.00     0.030 A 
HETATM   18  C12 UNL     1      48.258 -13.072  10.699  1.00  0.00     0.049 A 
HETATM   19  C9  UNL     1      46.741 -12.507  12.947  1.00  0.00     0.002 A 
HETATM   20  C10 UNL     1      46.922 -11.554  11.966  1.00  0.00     0.001 A 
HETATM   21  C11 UNL     1      47.675 -11.825  10.844  1.00  0.00     0.018 A 
ENDBRANCH   9  10
ENDBRANCH   2   9
BRANCH   1  22
HETATM   22  C2  UNL     1      50.950 -13.087   6.229  1.00  0.00     0.105 A 
HETATM   23  C1  UNL     1      51.912 -13.823   7.026  1.00  0.00     0.212 A 
HETATM   24  O1  UNL     1      52.341 -13.600   8.162  1.00  0.00    -0.285 OA
HETATM   25  C19 UNL     1      52.353 -14.986   6.225  1.00  0.00     0.043 A 
HETATM   26  C14 UNL     1      51.651 -14.868   5.048  1.00  0.00     0.047 A 
HETATM   27  C18 UNL     1      53.217 -16.038   6.391  1.00  0.00     0.018 A 
HETATM   28  N6  UNL     1      50.827 -13.713   5.107  1.00  0.00    -0.351 N 
HETATM   29  C15 UNL     1      51.795 -15.787   4.028  1.00  0.00     0.030 A 
ATOM     30  H6  UNL     1      50.210 -13.413   4.353  1.00  0.00     0.166 HD
HETATM   31  C16 UNL     1      52.672 -16.828   4.235  1.00  0.00     0.002 A 
HETATM   32  C17 UNL     1      53.395 -16.989   5.389  1.00  0.00     0.001 A 
ENDBRANCH   1  22
TORSDOF 3
ENDMDL
MODEL 2
REMARK VINA RESULT: -9.594041942      1.136      1.247
REMARK  3 active torsions:
REMARK  status: ('A' for Active; 'I' for Inactive)
REMARK    1  A    between atoms: C2_3  and  C3_4 
REMARK    2  A    between atoms: C4_5  and  N1_6 
REMARK    3  A    between atoms: N1_6  and  C5_7 
ROOT
HETATM    1  C3  UNL     1      50.083 -11.695   6.410  1.00  0.00     0.123 A 
HETATM    2  C4  UNL     1      49.441 -11.581   7.669  1.00  0.00     0.214 A 
HETATM    3  N4  UNL     1      49.068 -10.285   7.742  1.00  0.00    -0.270 N 
ATOM      4  H4  UNL     1      48.576  -9.865   8.530  1.00  0.00     0.189 HD
HETATM    5  N5  UNL     1      49.428  -9.645   6.658  1.00  0.00    -0.263 N 
ATOM      6  H5  UNL     1      49.254  -8.656   6.484  1.00  0.00     0.190 HD
HETATM    7  C13 UNL     1      50.058 -10.474   5.807  1.00  0.00     0.277 A 
HETATM    8  O2  UNL     1      50.501 -10.107   4.695  1.00  0.00    -0.266 OA
ENDROOT
BRANCH   2   9
HETATM    9  N1  UNL     1      49.232 -12.512   8.580  1.00  0.00    -0.366 NA
BRANCH   9  10
HETATM   10  C5  UNL     1      49.080 -13.319   9.422  1.00  0.00     0.195 A 
HETATM   11  N2  UNL     1      49.630 -14.571   9.351  1.00  0.00    -0.327 N 
HETATM   12  C6  UNL     1      49.453 -15.492  10.316  1.00  0.00     0.183 A 
ATOM     13  H2  UNL     1      50.193 -14.815   8.537  1.00  0.00     0.169 HD
HETATM   14  N3  UNL     1      48.732 -15.240  11.398  1.00  0.00    -0.351 N 
HETATM   15  C7  UNL     1      48.157 -14.056  11.563  1.00  0.00     0.048 A 
ATOM     16  H3  UNL     1      48.619 -15.962  12.109  1.00  0.00     0.166 HD
HETATM   17  C8  UNL     1      47.417 -13.830  12.703  1.00  0.00     0.030 A 
HETATM   18  C12 UNL     1      48.326 -13.100  10.586  1.00  0.00     0.049 A 
HETATM   19  C9  UNL     1      46.829 -12.599  12.862  1.00  0.00     0.002 A 
HETATM   20  C10 UNL     1      46.986 -11.626  11.897  1.00  0.00     0.001 A 
HETATM   21  C11 UNL     1      47.728 -11.864  10.762  1.00  0.00     0.018 A 
ENDBRANCH   9  10
ENDBRANCH   2   9
BRANCH   1  22
HETATM   22  C2  UNL     1      50.665 -12.927   5.890  1.00  0.00     0.105 A 
HETATM   23  C1  UNL     1      50.083 -14.248   5.762  1.00  0.00     0.212 A 
HETATM   24  O1  UNL     1      48.958 -14.655   6.064  1.00  0.00    -0.285 OA
HETATM   25  C19 UNL     1      51.113 -15.129   5.167  1.00  0.00     0.043 A 
HETATM   26  C14 UNL     1      52.198 -14.303   4.988  1.00  0.00     0.047 A 
HETATM   27  C18 UNL     1      51.203 -16.446   4.799  1.00  0.00     0.018 A 
HETATM   28  N6  UNL     1      51.871 -12.995   5.438  1.00  0.00    -0.351 N 
HETATM   29  C15 UNL     1      53.377 -14.770   4.443  1.00  0.00     0.030 A 
ATOM     30  H6  UNL     1      52.515 -12.205   5.408  1.00  0.00     0.166 HD
HETATM   31  C16 UNL     1      53.425 -16.099   4.086  1.00  0.00     0.002 A 
HETATM   32  C17 UNL     1      52.372 -16.962   4.246  1.00  0.00     0.001 A 
ENDBRANCH   1  22
TORSDOF 3
ENDMDL
MODEL 3
REMARK VINA RESULT: -9.525812238      2.239      4.692
REMARK  3 active torsions:
REMARK  status: ('A' for Active; 'I' for Inactive)
REMARK    1  A    between atoms: C2_3  and  C3_4 
REMARK    2  A    between atoms: C4_5  and  N1_6 
REMARK    3  A    between atoms: N1_6  and  C5_7 
ROOT
HETATM    1  C3  UNL     1      50.753 -15.431   8.023  1.00  0.00     0.123 A 
HETATM    2  C4  UNL     1      50.376 -16.140   9.191  1.00  0.00     0.214 A 
HETATM    3  N4  UNL     1      50.971 -17.346   9.061  1.00  0.00    -0.270 N 
ATOM      4  H4  UNL     1      50.902 -18.105   9.739  1.00  0.00     0.189 HD
HETATM    5  N5  UNL     1      51.649 -17.402   7.942  1.00  0.00    -0.263 N 
ATOM      6  H5  UNL     1      52.182 -18.211   7.627  1.00  0.00     0.190 HD
HETATM    7  C13 UNL     1      51.544 -16.244   7.268  1.00  0.00     0.277 A 
HETATM    8  O2  UNL     1      52.101 -16.039   6.165  1.00  0.00    -0.266 OA
ENDROOT
BRANCH   2   9
HETATM    9  N1  UNL     1      49.625 -15.739  10.198  1.00  0.00    -0.366 NA
BRANCH   9  10
HETATM   10  C5  UNL     1      48.961 -15.428  11.119  1.00  0.00     0.195 A 
HETATM   11  N2  UNL     1      48.673 -16.288  12.144  1.00  0.00    -0.327 N 
HETATM   12  C6  UNL     1      47.913 -15.929  13.194  1.00  0.00     0.183 A 
ATOM     13  H2  UNL     1      49.048 -17.236  12.110  1.00  0.00     0.169 HD
HETATM   14  N3  UNL     1      47.395 -14.715  13.298  1.00  0.00    -0.351 N 
HETATM   15  C7  UNL     1      47.614 -13.806  12.358  1.00  0.00     0.048 A 
ATOM     16  H3  UNL     1      46.823 -14.477  14.108  1.00  0.00     0.166 HD
HETATM   17  C8  UNL     1      47.061 -12.552  12.501  1.00  0.00     0.030 A 
HETATM   18  C12 UNL     1      48.391 -14.155  11.274  1.00  0.00     0.049 A 
HETATM   19  C9  UNL     1      47.299 -11.621  11.521  1.00  0.00     0.002 A 
HETATM   20  C10 UNL     1      48.074 -11.947  10.428  1.00  0.00     0.001 A 
HETATM   21  C11 UNL     1      48.621 -13.204  10.295  1.00  0.00     0.018 A 
ENDBRANCH   9  10
ENDBRANCH   2   9
BRANCH   1  22
HETATM   22  C2  UNL     1      50.336 -14.068   7.716  1.00  0.00     0.105 A 
HETATM   23  C1  UNL     1      49.114 -13.586   7.103  1.00  0.00     0.212 A 
HETATM   24  O1  UNL     1      48.131 -14.208   6.690  1.00  0.00    -0.285 OA
HETATM   25  C19 UNL     1      49.208 -12.111   7.029  1.00  0.00     0.043 A 
HETATM   26  C14 UNL     1      50.434 -11.826   7.583  1.00  0.00     0.047 A 
HETATM   27  C18 UNL     1      48.419 -11.085   6.577  1.00  0.00     0.018 A 
HETATM   28  N6  UNL     1      51.065 -13.036   7.976  1.00  0.00    -0.351 N 
HETATM   29  C15 UNL     1      50.889 -10.527   7.695  1.00  0.00     0.030 A 
ATOM     30  H6  UNL     1      51.985 -13.084   8.413  1.00  0.00     0.166 HD
HETATM   31  C16 UNL     1      50.066  -9.527   7.229  1.00  0.00     0.002 A 
HETATM   32  C17 UNL     1      48.836  -9.760   6.669  1.00  0.00     0.001 A 
ENDBRANCH   1  22
TORSDOF 3
ENDMDL
MODEL 4
REMARK VINA RESULT: -9.365405169      1.084      1.470
REMARK  3 active torsions:
REMARK  status: ('A' for Active; 'I' for Inactive)
REMARK    1  A    between atoms: C2_3  and  C3_4 
REMARK    2  A    between atoms: C4_5  and  N1_6 
REMARK    3  A    between atoms: N1_6  and  C5_7 
ROOT
HETATM    1  C3  UNL     1      50.147 -11.674   6.455  1.00  0.00     0.123 A 
HETATM    2  C4  UNL     1      49.445 -11.554   7.681  1.00  0.00     0.214 A 
HETATM    3  N4  UNL     1      49.036 -10.268   7.712  1.00  0.00    -0.270 N 
ATOM      4  H4  UNL     1      48.497  -9.846   8.468  1.00  0.00     0.189 HD
HETATM    5  N5  UNL     1      49.429  -9.638   6.634  1.00  0.00    -0.263 N 
ATOM      6  H5  UNL     1      49.239  -8.657   6.432  1.00  0.00     0.190 HD
HETATM    7  C13 UNL     1      50.119 -10.465   5.828  1.00  0.00     0.277 A 
HETATM    8  O2  UNL     1      50.604 -10.107   4.730  1.00  0.00    -0.266 OA
ENDROOT
BRANCH   2   9
HETATM    9  N1  UNL     1      49.218 -12.474   8.599  1.00  0.00    -0.366 NA
BRANCH   9  10
HETATM   10  C5  UNL     1      49.054 -13.274   9.445  1.00  0.00     0.195 A 
HETATM   11  N2  UNL     1      49.596 -14.531   9.386  1.00  0.00    -0.327 N 
HETATM   12  C6  UNL     1      49.405 -15.444  10.356  1.00  0.00     0.183 A 
ATOM     13  H2  UNL     1      50.164 -14.783   8.578  1.00  0.00     0.169 HD
HETATM   14  N3  UNL     1      48.678 -15.180  11.430  1.00  0.00    -0.351 N 
HETATM   15  C7  UNL     1      48.109 -13.992  11.584  1.00  0.00     0.048 A 
ATOM     16  H3  UNL     1      48.554 -15.897  12.145  1.00  0.00     0.166 HD
HETATM   17  C8  UNL     1      47.361 -13.753  12.716  1.00  0.00     0.030 A 
HETATM   18  C12 UNL     1      48.293 -13.043  10.601  1.00  0.00     0.049 A 
HETATM   19  C9  UNL     1      46.781 -12.518  12.863  1.00  0.00     0.002 A 
HETATM   20  C10 UNL     1      46.951 -11.552  11.892  1.00  0.00     0.001 A 
HETATM   21  C11 UNL     1      47.701 -11.802  10.765  1.00  0.00     0.018 A 
ENDBRANCH   9  10
ENDBRANCH   2   9
BRANCH   1  22
HETATM   22  C2  UNL     1      50.784 -12.899   5.986  1.00  0.00     0.105 A 
HETATM   23  C1  UNL     1      50.871 -13.447   4.647  1.00  0.00     0.212 A 
HETATM   24  O1  UNL     1      50.427 -13.015   3.579  1.00  0.00    -0.285 OA
HETATM   25  C19 UNL     1      51.634 -14.712   4.735  1.00  0.00     0.043 A 
HETATM   26  C14 UNL     1      51.937 -14.827   6.072  1.00  0.00     0.047 A 
HETATM   27  C18 UNL     1      52.054 -15.683   3.864  1.00  0.00     0.018 A 
HETATM   28  N6  UNL     1      51.404 -13.713   6.772  1.00  0.00    -0.351 N 
HETATM   29  C15 UNL     1      52.658 -15.900   6.557  1.00  0.00     0.030 A 
ATOM     30  H6  UNL     1      51.499 -13.573   7.778  1.00  0.00     0.166 HD
HETATM   31  C16 UNL     1      53.062 -16.853   5.648  1.00  0.00     0.002 A 
HETATM   32  C17 UNL     1      52.783 -16.784   4.307  1.00  0.00     0.001 A 
ENDBRANCH   1  22
TORSDOF 3
ENDMDL
MODEL 5
REMARK VINA RESULT: -9.296432694      2.034      4.537
REMARK  3 active torsions:
REMARK  status: ('A' for Active; 'I' for Inactive)
REMARK    1  A    between atoms: C2_3  and  C3_4 
REMARK    2  A    between atoms: C4_5  and  N1_6 
REMARK    3  A    between atoms: N1_6  and  C5_7 
ROOT
HETATM    1  C3  UNL     1      50.857 -15.421   7.973  1.00  0.00     0.123 A 
HETATM    2  C4  UNL     1      50.468 -16.164   9.115  1.00  0.00     0.214 A 
HETATM    3  N4  UNL     1      51.082 -17.358   8.966  1.00  0.00    -0.270 N 
ATOM      4  H4  UNL     1      51.010 -18.135   9.623  1.00  0.00     0.189 HD
HETATM    5  N5  UNL     1      51.780 -17.377   7.859  1.00  0.00    -0.263 N 
ATOM      6  H5  UNL     1      52.330 -18.172   7.533  1.00  0.00     0.190 HD
HETATM    7  C13 UNL     1      51.672 -16.204   7.211  1.00  0.00     0.277 A 
HETATM    8  O2  UNL     1      52.247 -15.964   6.125  1.00  0.00    -0.266 OA
ENDROOT
BRANCH   2   9
HETATM    9  N1  UNL     1      49.694 -15.798  10.118  1.00  0.00    -0.366 NA
BRANCH   9  10
HETATM   10  C5  UNL     1      49.010 -15.519  11.034  1.00  0.00     0.195 A 
HETATM   11  N2  UNL     1      48.690 -16.417  12.016  1.00  0.00    -0.327 N 
HETATM   12  C6  UNL     1      47.906 -16.094  13.061  1.00  0.00     0.183 A 
ATOM     13  H2  UNL     1      49.059 -17.366  11.953  1.00  0.00     0.169 HD
HETATM   14  N3  UNL     1      47.395 -14.881  13.201  1.00  0.00    -0.351 N 
HETATM   15  C7  UNL     1      47.644 -13.937  12.304  1.00  0.00     0.048 A 
ATOM     16  H3  UNL     1      46.805 -14.672  14.006  1.00  0.00     0.166 HD
HETATM   17  C8  UNL     1      47.097 -12.685  12.485  1.00  0.00     0.030 A 
HETATM   18  C12 UNL     1      48.445 -14.249  11.227  1.00  0.00     0.049 A 
HETATM   19  C9  UNL     1      47.366 -11.717  11.549  1.00  0.00     0.002 A 
HETATM   20  C10 UNL     1      48.166 -12.006  10.463  1.00  0.00     0.001 A 
HETATM   21  C11 UNL     1      48.707 -13.261  10.292  1.00  0.00     0.018 A 
ENDBRANCH   9  10
ENDBRANCH   2   9
BRANCH   1  22
HETATM   22  C2  UNL     1      50.427 -14.056   7.691  1.00  0.00     0.105 A 
HETATM   23  C1  UNL     1      51.191 -12.824   7.689  1.00  0.00     0.212 A 
HETATM   24  O1  UNL     1      52.386 -12.627   7.925  1.00  0.00    -0.285 OA
HETATM   25  C19 UNL     1      50.262 -11.728   7.332  1.00  0.00     0.043 A 
HETATM   26  C14 UNL     1      49.053 -12.360   7.154  1.00  0.00     0.047 A 
HETATM   27  C18 UNL     1      50.343 -10.371   7.162  1.00  0.00     0.018 A 
HETATM   28  N6  UNL     1      49.212 -13.753   7.381  1.00  0.00    -0.351 N 
HETATM   29  C15 UNL     1      47.917 -11.656   6.805  1.00  0.00     0.030 A 
ATOM     30  H6  UNL     1      48.456 -14.433   7.309  1.00  0.00     0.166 HD
HETATM   31  C16 UNL     1      48.042 -10.295   6.642  1.00  0.00     0.002 A 
HETATM   32  C17 UNL     1      49.224  -9.620   6.810  1.00  0.00     0.001 A 
ENDBRANCH   1  22
TORSDOF 3
ENDMDL
