MODEL 1
REMARK VINA RESULT: -7.441641078      0.000      0.000
REMARK  2 active torsions:
REMARK  status: ('A' for Active; 'I' for Inactive)
REMARK    1  A    between atoms: C4_5  and  N2_6 
REMARK    2  A    between atoms: N2_6  and  C5_8 
ROOT
HETATM    1  C1  UNL     1      42.547  73.293  63.614  1.00  0.00     0.005 A 
HETATM    2  C2  UNL     1      41.212  73.077  63.417  1.00  0.00     0.018 A 
HETATM    3  C3  UNL     1      40.665  73.102  62.167  1.00  0.00     0.100 A 
HETATM    4  N1  UNL     1      41.436  73.340  61.091  1.00  0.00    -0.293 N 
HETATM    5  C4  UNL     1      41.147  73.415  59.773  1.00  0.00     0.125 A 
HETATM    6  C11 UNL     1      42.347  73.684  59.162  1.00  0.00     0.138 A 
HETATM    7  N3  UNL     1      43.333  73.770  60.081  1.00  0.00    -0.348 N 
ATOM      8  H3  UNL     1      44.320  73.961  59.906  1.00  0.00     0.167 HD
HETATM    9  C12 UNL     1      42.744  73.550  61.292  1.00  0.00     0.113 A 
HETATM   10  C13 UNL     1      43.354  73.539  62.527  1.00  0.00     0.049 A 
ENDROOT
BRANCH   5  11
HETATM   11  N2  UNL     1      39.905  73.260  59.152  1.00  0.00    -0.370 N 
ATOM     12  H2  UNL     1      39.274  74.061  59.168  1.00  0.00     0.161 HD
BRANCH  11  13
HETATM   13  C5  UNL     1      39.432  72.061  58.487  1.00  0.00     0.083 C 
HETATM   14  C6  UNL     1      38.073  71.682  59.014  1.00  0.00     0.025 C 
HETATM   15  C7  UNL     1      38.133  71.064  60.387  1.00  0.00     0.002 C 
HETATM   16  C8  UNL     1      39.374  70.199  60.541  1.00  0.00     0.000 C 
HETATM   17  C9  UNL     1      39.855  69.740  59.168  1.00  0.00     0.002 C 
HETATM   18  C10 UNL     1      40.430  70.962  58.488  1.00  0.00     0.025 C 
ENDBRANCH  11  13
ENDBRANCH   5  11
TORSDOF 2
ENDMDL
MODEL 2
REMARK VINA RESULT: -7.284198832      1.450      2.449
REMARK  2 active torsions:
REMARK  status: ('A' for Active; 'I' for Inactive)
REMARK    1  A    between atoms: C4_5  and  N2_6 
REMARK    2  A    between atoms: N2_6  and  C5_8 
ROOT
HETATM    1  C1  UNL     1      42.190  73.270  63.652  1.00  0.00     0.005 A 
HETATM    2  C2  UNL     1      40.873  73.179  63.297  1.00  0.00     0.018 A 
HETATM    3  C3  UNL     1      40.482  73.270  61.993  1.00  0.00     0.100 A 
HETATM    4  N1  UNL     1      41.391  73.452  61.020  1.00  0.00    -0.293 N 
HETATM    5  C4  UNL     1      41.266  73.572  59.680  1.00  0.00     0.125 A 
HETATM    6  C11 UNL     1      42.548  73.740  59.218  1.00  0.00     0.138 A 
HETATM    7  N3  UNL     1      43.423  73.724  60.246  1.00  0.00    -0.348 N 
ATOM      8  H3  UNL     1      44.437  73.827  60.191  1.00  0.00     0.167 HD
HETATM    9  C12 UNL     1      42.680  73.541  61.375  1.00  0.00     0.113 A 
HETATM   10  C13 UNL     1      43.138  73.457  62.672  1.00  0.00     0.049 A 
ENDROOT
BRANCH   5  11
HETATM   11  N2  UNL     1      40.096  73.538  58.916  1.00  0.00    -0.370 N 
ATOM     12  H2  UNL     1      40.193  73.684  57.911  1.00  0.00     0.161 HD
BRANCH  11  13
HETATM   13  C5  UNL     1      38.756  73.315  59.424  1.00  0.00     0.083 C 
HETATM   14  C6  UNL     1      38.139  72.124  58.739  1.00  0.00     0.025 C 
HETATM   15  C7  UNL     1      37.704  72.426  57.328  1.00  0.00     0.002 C 
HETATM   16  C8  UNL     1      37.165  73.843  57.215  1.00  0.00     0.000 C 
HETATM   17  C9  UNL     1      36.681  74.320  58.581  1.00  0.00     0.002 C 
HETATM   18  C10 UNL     1      37.920  74.541  59.418  1.00  0.00     0.025 C 
ENDBRANCH  11  13
ENDBRANCH   5  11
TORSDOF 2
ENDMDL
MODEL 3
REMARK VINA RESULT: -7.273100991      1.740      3.229
REMARK  2 active torsions:
REMARK  status: ('A' for Active; 'I' for Inactive)
REMARK    1  A    between atoms: C4_5  and  N2_6 
REMARK    2  A    between atoms: N2_6  and  C5_8 
ROOT
HETATM    1  C1  UNL     1      44.398  73.599  61.764  1.00  0.00     0.005 A 
HETATM    2  C2  UNL     1      43.957  73.934  60.515  1.00  0.00     0.018 A 
HETATM    3  C3  UNL     1      42.626  73.969  60.218  1.00  0.00     0.100 A 
HETATM    4  N1  UNL     1      41.710  73.672  61.156  1.00  0.00    -0.293 N 
HETATM    5  C4  UNL     1      40.360  73.634  61.119  1.00  0.00     0.125 A 
HETATM    6  C11 UNL     1      39.981  73.264  62.386  1.00  0.00     0.138 A 
HETATM    7  N3  UNL     1      41.068  73.083  63.167  1.00  0.00    -0.348 N 
ATOM      8  H3  UNL     1      41.078  72.806  64.149  1.00  0.00     0.167 HD
HETATM    9  C12 UNL     1      42.150  73.344  62.379  1.00  0.00     0.113 A 
HETATM   10  C13 UNL     1      43.478  73.291  62.740  1.00  0.00     0.049 A 
ENDROOT
BRANCH   5  11
HETATM   11  N2  UNL     1      39.519  73.905  60.037  1.00  0.00    -0.370 N 
ATOM     12  H2  UNL     1      39.936  74.362  59.227  1.00  0.00     0.161 HD
BRANCH  11  13
HETATM   13  C5  UNL     1      38.104  73.595  59.963  1.00  0.00     0.083 C 
HETATM   14  C6  UNL     1      37.904  72.262  59.290  1.00  0.00     0.025 C 
HETATM   15  C7  UNL     1      38.110  72.328  57.798  1.00  0.00     0.002 C 
HETATM   16  C8  UNL     1      37.605  73.647  57.235  1.00  0.00     0.000 C 
HETATM   17  C9  UNL     1      36.553  74.236  58.170  1.00  0.00     0.002 C 
HETATM   18  C10 UNL     1      37.293  74.704  59.402  1.00  0.00     0.025 C 
ENDBRANCH  11  13
ENDBRANCH   5  11
TORSDOF 2
ENDMDL
MODEL 4
REMARK VINA RESULT: -7.207132625      0.973      2.049
REMARK  2 active torsions:
REMARK  status: ('A' for Active; 'I' for Inactive)
REMARK    1  A    between atoms: C4_5  and  N2_6 
REMARK    2  A    between atoms: N2_6  and  C5_8 
ROOT
HETATM    1  C1  UNL     1      44.270  73.694  62.625  1.00  0.00     0.005 A 
HETATM    2  C2  UNL     1      44.141  73.813  61.270  1.00  0.00     0.018 A 
HETATM    3  C3  UNL     1      42.926  73.702  60.660  1.00  0.00     0.100 A 
HETATM    4  N1  UNL     1      41.818  73.472  61.385  1.00  0.00    -0.293 N 
HETATM    5  C4  UNL     1      40.522  73.325  61.031  1.00  0.00     0.125 A 
HETATM    6  C11 UNL     1      39.854  73.111  62.212  1.00  0.00     0.138 A 
HETATM    7  N3  UNL     1      40.718  73.128  63.250  1.00  0.00    -0.348 N 
ATOM      8  H3  UNL     1      40.494  72.995  64.236  1.00  0.00     0.167 HD
HETATM    9  C12 UNL     1      41.951  73.357  62.713  1.00  0.00     0.113 A 
HETATM   10  C13 UNL     1      43.148  73.458  63.388  1.00  0.00     0.049 A 
ENDROOT
BRANCH   5  11
HETATM   11  N2  UNL     1      39.967  73.373  59.750  1.00  0.00    -0.370 N 
ATOM     12  H2  UNL     1      39.539  74.252  59.461  1.00  0.00     0.161 HD
BRANCH  11  13
HETATM   13  C5  UNL     1      39.946  72.284  58.792  1.00  0.00     0.083 C 
HETATM   14  C6  UNL     1      38.526  71.849  58.539  1.00  0.00     0.025 C 
HETATM   15  C7  UNL     1      37.953  71.044  59.678  1.00  0.00     0.002 C 
HETATM   16  C8  UNL     1      39.014  70.154  60.304  1.00  0.00     0.000 C 
HETATM   17  C9  UNL     1      40.124  69.886  59.292  1.00  0.00     0.002 C 
HETATM   18  C10 UNL     1      40.882  71.185  59.139  1.00  0.00     0.025 C 
ENDBRANCH  11  13
ENDBRANCH   5  11
TORSDOF 2
ENDMDL
MODEL 5
REMARK VINA RESULT: -7.153444359      1.138      2.484
REMARK  2 active torsions:
REMARK  status: ('A' for Active; 'I' for Inactive)
REMARK    1  A    between atoms: C4_5  and  N2_6 
REMARK    2  A    between atoms: N2_6  and  C5_8 
ROOT
HETATM    1  C1  UNL     1      43.847  73.727  62.693  1.00  0.00     0.005 A 
HETATM    2  C2  UNL     1      43.750  73.583  61.337  1.00  0.00     0.018 A 
HETATM    3  C3  UNL     1      42.557  73.303  60.737  1.00  0.00     0.100 A 
HETATM    4  N1  UNL     1      41.441  73.161  61.473  1.00  0.00    -0.293 N 
HETATM    5  C4  UNL     1      40.162  72.888  61.129  1.00  0.00     0.125 A 
HETATM    6  C11 UNL     1      39.473  72.868  62.316  1.00  0.00     0.138 A 
HETATM    7  N3  UNL     1      40.307  73.120  63.348  1.00  0.00    -0.348 N 
ATOM      8  H3  UNL     1      40.063  73.164  64.337  1.00  0.00     0.167 HD
HETATM    9  C12 UNL     1      41.543  73.302  62.801  1.00  0.00     0.113 A 
HETATM   10  C13 UNL     1      42.717  73.585  63.466  1.00  0.00     0.049 A 
ENDROOT
BRANCH   5  11
HETATM   11  N2  UNL     1      39.640  72.669  59.852  1.00  0.00    -0.370 N 
ATOM     12  H2  UNL     1      39.936  73.307  59.113  1.00  0.00     0.161 HD
BRANCH  11  13
HETATM   13  C5  UNL     1      38.715  71.615  59.481  1.00  0.00     0.083 C 
HETATM   14  C6  UNL     1      39.174  70.302  60.059  1.00  0.00     0.025 C 
HETATM   15  C7  UNL     1      40.351  69.720  59.318  1.00  0.00     0.002 C 
HETATM   16  C8  UNL     1      40.250  70.003  57.827  1.00  0.00     0.000 C 
HETATM   17  C9  UNL     1      38.792  70.243  57.447  1.00  0.00     0.002 C 
HETATM   18  C10 UNL     1      38.417  71.587  58.028  1.00  0.00     0.025 C 
ENDBRANCH  11  13
ENDBRANCH   5  11
TORSDOF 2
ENDMDL
