MODEL 1
REMARK VINA RESULT: -7.199715966      0.000      0.000
REMARK  3 active torsions:
REMARK  status: ('A' for Active; 'I' for Inactive)
REMARK    1  A    between atoms: C2_7  and  S2_8 
REMARK    2  A    between atoms: S2_8  and  C3_9 
REMARK    3  A    between atoms: C3_9  and  C4_10 
ROOT
HETATM    1  S1  UNL     1      41.817  69.584  57.651  1.00  0.00    -0.031 SA
HETATM    2  C1  UNL     1      40.780  70.585  58.413  1.00  0.00     0.236 A 
HETATM    3  N1  UNL     1      39.656  71.136  57.900  1.00  0.00    -0.268 N 
ATOM      4  H1  UNL     1      39.293  71.004  56.957  1.00  0.00     0.190 HD
HETATM    5  N2  UNL     1      39.113  71.882  58.856  1.00  0.00    -0.271 N 
ATOM      6  H2  UNL     1      38.254  72.425  58.767  1.00  0.00     0.189 HD
HETATM    7  C2  UNL     1      39.869  71.809  59.950  1.00  0.00     0.204 A 
HETATM    8  O1  UNL     1      40.867  71.017  59.646  1.00  0.00    -0.258 OA
ENDROOT
BRANCH   7   9
HETATM    9  S2  UNL     1      39.655  72.585  61.538  1.00  0.00    -0.084 SA
BRANCH   9  10
HETATM   10  C3  UNL     1      41.136  73.459  62.041  1.00  0.00     0.087 C 
BRANCH  10  11
HETATM   11  C4  UNL     1      41.950  72.610  62.983  1.00  0.00    -0.005 C 
HETATM   12  C5  UNL     1      41.204  71.351  63.389  1.00  0.00     0.005 C 
HETATM   13  C6  UNL     1      41.963  70.550  64.371  1.00  0.00     0.000 C 
HETATM   14  C7  UNL     1      43.435  70.545  64.259  1.00  0.00     0.000 C 
HETATM   15  C8  UNL     1      44.072  71.633  63.500  1.00  0.00     0.000 C 
HETATM   16  C9  UNL     1      43.221  72.099  62.332  1.00  0.00     0.005 C 
ENDBRANCH  10  11
ENDBRANCH   9  10
ENDBRANCH   7   9
TORSDOF 3
ENDMDL
MODEL 2
REMARK VINA RESULT: -7.067280617      0.909      1.662
REMARK  3 active torsions:
REMARK  status: ('A' for Active; 'I' for Inactive)
REMARK    1  A    between atoms: C2_7  and  S2_8 
REMARK    2  A    between atoms: S2_8  and  C3_9 
REMARK    3  A    between atoms: C3_9  and  C4_10 
ROOT
HETATM    1  S1  UNL     1      41.869  69.365  57.448  1.00  0.00    -0.031 SA
HETATM    2  C1  UNL     1      40.867  70.500  58.057  1.00  0.00     0.236 A 
HETATM    3  N1  UNL     1      39.584  70.732  57.694  1.00  0.00    -0.268 N 
ATOM      4  H1  UNL     1      39.056  70.228  56.983  1.00  0.00     0.190 HD
HETATM    5  N2  UNL     1      39.143  71.740  58.438  1.00  0.00    -0.271 N 
ATOM      6  H2  UNL     1      38.206  72.143  58.392  1.00  0.00     0.189 HD
HETATM    7  C2  UNL     1      40.116  72.140  59.254  1.00  0.00     0.204 A 
HETATM    8  O1  UNL     1      41.143  71.369  58.996  1.00  0.00    -0.258 OA
ENDROOT
BRANCH   7   9
HETATM    9  S2  UNL     1      40.120  73.438  60.473  1.00  0.00    -0.084 SA
BRANCH   9  10
HETATM   10  C3  UNL     1      39.580  72.833  62.070  1.00  0.00     0.087 C 
BRANCH  10  11
HETATM   11  C4  UNL     1      40.621  71.920  62.664  1.00  0.00    -0.005 C 
HETATM   12  C5  UNL     1      41.978  72.597  62.745  1.00  0.00     0.005 C 
HETATM   13  C6  UNL     1      43.022  71.686  63.255  1.00  0.00     0.000 C 
HETATM   14  C7  UNL     1      42.624  70.685  64.264  1.00  0.00     0.000 C 
HETATM   15  C8  UNL     1      41.195  70.357  64.381  1.00  0.00     0.000 C 
HETATM   16  C9  UNL     1      40.301  71.552  64.100  1.00  0.00     0.005 C 
ENDBRANCH  10  11
ENDBRANCH   9  10
ENDBRANCH   7   9
TORSDOF 3
ENDMDL
MODEL 3
REMARK VINA RESULT: -6.947109587      0.816      1.537
REMARK  3 active torsions:
REMARK  status: ('A' for Active; 'I' for Inactive)
REMARK    1  A    between atoms: C2_7  and  S2_8 
REMARK    2  A    between atoms: S2_8  and  C3_9 
REMARK    3  A    between atoms: C3_9  and  C4_10 
ROOT
HETATM    1  S1  UNL     1      41.829  69.273  57.343  1.00  0.00    -0.031 SA
HETATM    2  C1  UNL     1      40.895  70.441  57.994  1.00  0.00     0.236 A 
HETATM    3  N1  UNL     1      39.602  70.709  57.698  1.00  0.00    -0.268 N 
ATOM      4  H1  UNL     1      39.022  70.215  57.021  1.00  0.00     0.190 HD
HETATM    5  N2  UNL     1      39.232  71.736  58.455  1.00  0.00    -0.271 N 
ATOM      6  H2  UNL     1      38.307  72.167  58.455  1.00  0.00     0.189 HD
HETATM    7  C2  UNL     1      40.259  72.113  59.214  1.00  0.00     0.204 A 
HETATM    8  O1  UNL     1      41.247  71.309  58.909  1.00  0.00    -0.258 OA
ENDROOT
BRANCH   7   9
HETATM    9  S2  UNL     1      40.367  73.420  60.419  1.00  0.00    -0.084 SA
BRANCH   9  10
HETATM   10  C3  UNL     1      41.955  73.411  61.248  1.00  0.00     0.087 C 
BRANCH  10  11
HETATM   11  C4  UNL     1      42.049  72.236  62.187  1.00  0.00    -0.005 C 
HETATM   12  C5  UNL     1      43.349  72.250  62.972  1.00  0.00     0.005 C 
HETATM   13  C6  UNL     1      43.484  71.063  63.840  1.00  0.00     0.000 C 
HETATM   14  C7  UNL     1      42.254  70.508  64.439  1.00  0.00     0.000 C 
HETATM   15  C8  UNL     1      40.967  70.865  63.822  1.00  0.00     0.000 C 
HETATM   16  C9  UNL     1      40.968  72.272  63.251  1.00  0.00     0.005 C 
ENDBRANCH  10  11
ENDBRANCH   9  10
ENDBRANCH   7   9
TORSDOF 3
ENDMDL
MODEL 4
REMARK VINA RESULT: -6.557715793      1.223      1.223
REMARK  3 active torsions:
REMARK  status: ('A' for Active; 'I' for Inactive)
REMARK    1  A    between atoms: C2_7  and  S2_8 
REMARK    2  A    between atoms: S2_8  and  C3_9 
REMARK    3  A    between atoms: C3_9  and  C4_10 
ROOT
HETATM    1  S1  UNL     1      40.609  69.340  56.735  1.00  0.00    -0.031 SA
HETATM    2  C1  UNL     1      40.982  70.332  57.975  1.00  0.00     0.236 A 
HETATM    3  N1  UNL     1      42.203  70.825  58.284  1.00  0.00    -0.268 N 
ATOM      4  H1  UNL     1      43.072  70.647  57.781  1.00  0.00     0.190 HD
HETATM    5  N2  UNL     1      42.058  71.585  59.364  1.00  0.00    -0.271 N 
ATOM      6  H2  UNL     1      42.807  72.093  59.834  1.00  0.00     0.189 HD
HETATM    7  C2  UNL     1      40.779  71.577  59.735  1.00  0.00     0.204 A 
HETATM    8  O1  UNL     1      40.158  70.810  58.873  1.00  0.00    -0.258 OA
ENDROOT
BRANCH   7   9
HETATM    9  S2  UNL     1      39.982  72.402  61.096  1.00  0.00    -0.084 SA
BRANCH   9  10
HETATM   10  C3  UNL     1      41.144  73.405  62.020  1.00  0.00     0.087 C 
BRANCH  10  11
HETATM   11  C4  UNL     1      41.896  72.556  63.011  1.00  0.00    -0.005 C 
HETATM   12  C5  UNL     1      41.161  71.260  63.310  1.00  0.00     0.005 C 
HETATM   13  C6  UNL     1      41.852  70.455  64.337  1.00  0.00     0.000 C 
HETATM   14  C7  UNL     1      43.327  70.503  64.366  1.00  0.00     0.000 C 
HETATM   15  C8  UNL     1      43.993  71.634  63.702  1.00  0.00     0.000 C 
HETATM   16  C9  UNL     1      43.240  72.107  62.471  1.00  0.00     0.005 C 
ENDBRANCH  10  11
ENDBRANCH   9  10
ENDBRANCH   7   9
TORSDOF 3
ENDMDL
MODEL 5
REMARK VINA RESULT: -6.524593132      1.208      1.864
REMARK  3 active torsions:
REMARK  status: ('A' for Active; 'I' for Inactive)
REMARK    1  A    between atoms: C2_7  and  S2_8 
REMARK    2  A    between atoms: S2_8  and  C3_9 
REMARK    3  A    between atoms: C3_9  and  C4_10 
ROOT
HETATM    1  S1  UNL     1      40.254  70.140  57.512  1.00  0.00    -0.031 SA
HETATM    2  C1  UNL     1      40.136  71.532  58.355  1.00  0.00     0.236 A 
HETATM    3  N1  UNL     1      39.111  72.415  58.329  1.00  0.00    -0.268 N 
ATOM      4  H1  UNL     1      38.259  72.337  57.774  1.00  0.00     0.190 HD
HETATM    5  N2  UNL     1      39.422  73.402  59.161  1.00  0.00    -0.271 N 
ATOM      6  H2  UNL     1      38.841  74.219  59.353  1.00  0.00     0.189 HD
HETATM    7  C2  UNL     1      40.613  73.157  59.704  1.00  0.00     0.204 A 
HETATM    8  O1  UNL     1      41.014  72.019  59.195  1.00  0.00    -0.258 OA
ENDROOT
BRANCH   7   9
HETATM    9  S2  UNL     1      41.547  74.110  60.883  1.00  0.00    -0.084 SA
BRANCH   9  10
HETATM   10  C3  UNL     1      43.039  73.252  61.379  1.00  0.00     0.087 C 
BRANCH  10  11
HETATM   11  C4  UNL     1      42.703  72.103  62.292  1.00  0.00    -0.005 C 
HETATM   12  C5  UNL     1      43.809  71.847  63.301  1.00  0.00     0.005 C 
HETATM   13  C6  UNL     1      43.523  70.675  64.152  1.00  0.00     0.000 C 
HETATM   14  C7  UNL     1      42.114  70.412  64.505  1.00  0.00     0.000 C 
HETATM   15  C8  UNL     1      41.069  71.029  63.672  1.00  0.00     0.000 C 
HETATM   16  C9  UNL     1      41.480  72.392  63.143  1.00  0.00     0.005 C 
ENDBRANCH  10  11
ENDBRANCH   9  10
ENDBRANCH   7   9
TORSDOF 3
ENDMDL
