MODEL 1
REMARK VINA RESULT: -6.915700487      0.000      0.000
REMARK  5 active torsions:
REMARK  status: ('A' for Active; 'I' for Inactive)
REMARK    1  A    between atoms: C1_4  and  N2_5 
REMARK    2  A    between atoms: C4_14  and  C5_15 
REMARK    3  A    between atoms: C4_14  and  C6_18 
REMARK    4  A    between atoms: C6_18  and  N6_19 
REMARK    5  A    between atoms: C6_18  and  N7_23 
ROOT
HETATM    1  N2  UNL     1      17.038  -2.753   8.562  1.00  0.00    -0.340 N 
ATOM      2  H2  UNL     1      16.024  -2.789   8.453  1.00  0.00     0.168 HD
HETATM    3  C2  UNL     1      17.618  -3.811   8.972  1.00  0.00     0.128 C 
HETATM    4  N3  UNL     1      18.995  -4.022   9.197  1.00  0.00    -0.295 N 
ATOM      5  H3  UNL     1      19.748  -3.382   8.943  1.00  0.00     0.172 HD
HETATM    6  C3  UNL     1      19.156  -5.304   9.851  1.00  0.00     0.323 C 
HETATM    7  O1  UNL     1      20.303  -5.696  10.143  1.00  0.00    -0.247 OA
HETATM    8  N4  UNL     1      17.882  -5.899  10.042  1.00  0.00    -0.315 N 
ATOM      9  H4  UNL     1      17.675  -6.744  10.575  1.00  0.00     0.166 HD
HETATM   10  C4  UNL     1      16.913  -5.047   9.312  1.00  0.00     0.225 C 
ENDROOT
BRANCH  10  11
HETATM   11  C5  UNL     1      16.309  -5.747   8.194  1.00  0.00     0.271 C 
HETATM   12  N5  UNL     1      15.437  -6.875   8.372  1.00  0.00    -0.059 NA
HETATM   13  O2  UNL     1      16.538  -5.329   6.997  1.00  0.00    -0.273 OA
ENDBRANCH  10  11
BRANCH  10  14
HETATM   14  C6  UNL     1      15.772  -4.779  10.308  1.00  0.00     0.422 C 
BRANCH  14  15
HETATM   15  N6  UNL     1      14.518  -4.430   9.623  1.00  0.00    -0.047 N 
ATOM     16  H63 UNL     1      14.358  -3.422   9.633  1.00  0.00     0.276 HD
ATOM     17  H62 UNL     1      14.594  -4.569   8.615  1.00  0.00     0.276 HD
ATOM     18  H61 UNL     1      13.721  -4.936  10.009  1.00  0.00     0.276 HD
ENDBRANCH  14  15
BRANCH  14  19
HETATM   19  N7  UNL     1      16.133  -3.883  11.321  1.00  0.00    -0.047 N 
ATOM     20  H73 UNL     1      17.087  -4.057  11.639  1.00  0.00     0.276 HD
ATOM     21  H72 UNL     1      16.251  -2.941  10.949  1.00  0.00     0.276 HD
ATOM     22  H71 UNL     1      15.481  -3.887  12.105  1.00  0.00     0.276 HD
ENDBRANCH  14  19
ENDBRANCH  10  14
BRANCH   1  23
HETATM   23  C1  UNL     1      17.673  -1.548   8.251  1.00  0.00     0.174 C 
HETATM   24  N1  UNL     1      17.119  -0.394   8.200  1.00  0.00    -0.395 N 
ATOM     25  H12 UNL     1      16.120  -0.371   8.409  1.00  0.00     0.156 HD
ATOM     26  H11 UNL     1      17.582   0.485   7.973  1.00  0.00     0.156 HD
ENDBRANCH   1  23
TORSDOF 5
ENDMDL
MODEL 2
REMARK VINA RESULT: -6.705735528      1.496      1.979
REMARK  5 active torsions:
REMARK  status: ('A' for Active; 'I' for Inactive)
REMARK    1  A    between atoms: C1_4  and  N2_5 
REMARK    2  A    between atoms: C4_14  and  C5_15 
REMARK    3  A    between atoms: C4_14  and  C6_18 
REMARK    4  A    between atoms: C6_18  and  N6_19 
REMARK    5  A    between atoms: C6_18  and  N7_23 
ROOT
HETATM    1  N2  UNL     1      19.154  -3.111   8.378  1.00  0.00    -0.340 N 
ATOM      2  H2  UNL     1      18.315  -2.646   8.033  1.00  0.00     0.168 HD
HETATM    3  C2  UNL     1      18.994  -4.193   9.032  1.00  0.00     0.128 C 
HETATM    4  N3  UNL     1      19.981  -5.024   9.604  1.00  0.00    -0.295 N 
ATOM      5  H3  UNL     1      20.988  -4.938   9.466  1.00  0.00     0.172 HD
HETATM    6  C3  UNL     1      19.319  -6.021  10.418  1.00  0.00     0.323 C 
HETATM    7  O1  UNL     1      20.007  -6.868  11.019  1.00  0.00    -0.247 OA
HETATM    8  N4  UNL     1      17.915  -5.817  10.364  1.00  0.00    -0.315 N 
ATOM      9  H4  UNL     1      17.206  -6.290  10.924  1.00  0.00     0.166 HD
HETATM   10  C4  UNL     1      17.687  -4.778   9.331  1.00  0.00     0.225 C 
ENDROOT
BRANCH  10  11
HETATM   11  C5  UNL     1      16.962  -5.299   8.188  1.00  0.00     0.271 C 
HETATM   12  N5  UNL     1      15.899  -6.257   8.321  1.00  0.00    -0.059 NA
HETATM   13  O2  UNL     1      17.260  -4.871   7.010  1.00  0.00    -0.273 OA
ENDBRANCH  10  11
BRANCH  10  14
HETATM   14  C6  UNL     1      16.754  -3.746   9.987  1.00  0.00     0.422 C 
BRANCH  14  15
HETATM   15  N6  UNL     1      15.950  -4.340  11.065  1.00  0.00    -0.047 N 
ATOM     16  H63 UNL     1      14.989  -4.001  11.041  1.00  0.00     0.276 HD
ATOM     17  H62 UNL     1      15.775  -5.331  10.894  1.00  0.00     0.276 HD
ATOM     18  H61 UNL     1      16.373  -4.191  11.981  1.00  0.00     0.276 HD
ENDBRANCH  14  15
BRANCH  14  19
HETATM   19  N7  UNL     1      16.004  -3.020   9.054  1.00  0.00    -0.047 N 
ATOM     20  H73 UNL     1      15.518  -3.645   8.411  1.00  0.00     0.276 HD
ATOM     21  H72 UNL     1      15.198  -2.580   9.498  1.00  0.00     0.276 HD
ATOM     22  H71 UNL     1      16.560  -2.333   8.545  1.00  0.00     0.276 HD
ENDBRANCH  14  19
ENDBRANCH  10  14
BRANCH   1  23
HETATM   23  C1  UNL     1      20.383  -2.509   8.093  1.00  0.00     0.174 C 
HETATM   24  N1  UNL     1      21.185  -2.839   7.150  1.00  0.00    -0.395 N 
ATOM     25  H12 UNL     1      20.882  -3.615   6.561  1.00  0.00     0.156 HD
ATOM     26  H11 UNL     1      22.081  -2.400   6.943  1.00  0.00     0.156 HD
ENDBRANCH   1  23
TORSDOF 5
ENDMDL
MODEL 3
REMARK VINA RESULT: -6.443844685      1.968      3.139
REMARK  5 active torsions:
REMARK  status: ('A' for Active; 'I' for Inactive)
REMARK    1  A    between atoms: C1_4  and  N2_5 
REMARK    2  A    between atoms: C4_14  and  C5_15 
REMARK    3  A    between atoms: C4_14  and  C6_18 
REMARK    4  A    between atoms: C6_18  and  N6_19 
REMARK    5  A    between atoms: C6_18  and  N7_23 
ROOT
HETATM    1  N2  UNL     1      17.089  -2.202   8.724  1.00  0.00    -0.340 N 
ATOM      2  H2  UNL     1      17.535  -2.552   7.877  1.00  0.00     0.168 HD
HETATM    3  C2  UNL     1      16.752  -3.060   9.604  1.00  0.00     0.128 C 
HETATM    4  N3  UNL     1      16.133  -2.838  10.852  1.00  0.00    -0.295 N 
ATOM      5  H3  UNL     1      15.976  -1.928  11.288  1.00  0.00     0.172 HD
HETATM    6  C3  UNL     1      15.760  -4.120  11.410  1.00  0.00     0.323 C 
HETATM    7  O1  UNL     1      15.197  -4.159  12.520  1.00  0.00    -0.247 OA
HETATM    8  N4  UNL     1      16.140  -5.152  10.512  1.00  0.00    -0.315 N 
ATOM      9  H4  UNL     1      15.906  -6.142  10.583  1.00  0.00     0.166 HD
HETATM   10  C4  UNL     1      16.946  -4.503   9.451  1.00  0.00     0.225 C 
ENDROOT
BRANCH  10  11
HETATM   11  C5  UNL     1      18.325  -4.950   9.465  1.00  0.00     0.271 C 
HETATM   12  N5  UNL     1      19.417  -4.095   9.086  1.00  0.00    -0.059 NA
HETATM   13  O2  UNL     1      18.590  -6.148   9.858  1.00  0.00    -0.273 OA
ENDBRANCH  10  11
BRANCH  10  14
HETATM   14  C6  UNL     1      16.353  -5.004   8.122  1.00  0.00     0.422 C 
BRANCH  14  15
HETATM   15  N6  UNL     1      15.641  -6.279   8.286  1.00  0.00    -0.047 N 
ATOM     16  H63 UNL     1      15.993  -6.801   9.089  1.00  0.00     0.276 HD
ATOM     17  H62 UNL     1      14.681  -6.130   8.600  1.00  0.00     0.276 HD
ATOM     18  H61 UNL     1      15.670  -6.843   7.437  1.00  0.00     0.276 HD
ENDBRANCH  14  15
BRANCH  14  19
HETATM   19  N7  UNL     1      17.285  -5.005   7.077  1.00  0.00    -0.047 N 
ATOM     20  H73 UNL     1      18.137  -4.514   7.347  1.00  0.00     0.276 HD
ATOM     21  H72 UNL     1      17.669  -5.939   6.933  1.00  0.00     0.276 HD
ATOM     22  H71 UNL     1      16.906  -4.628   6.208  1.00  0.00     0.276 HD
ENDBRANCH  14  19
ENDBRANCH  10  14
BRANCH   1  23
HETATM   23  C1  UNL     1      16.899  -0.821   8.824  1.00  0.00     0.174 C 
HETATM   24  N1  UNL     1      15.820  -0.232   9.184  1.00  0.00    -0.395 N 
ATOM     25  H12 UNL     1      15.036  -0.842   9.415  1.00  0.00     0.156 HD
ATOM     26  H11 UNL     1      15.681   0.776   9.256  1.00  0.00     0.156 HD
ENDBRANCH   1  23
TORSDOF 5
ENDMDL
MODEL 4
REMARK VINA RESULT: -6.413185079      1.933      3.741
REMARK  5 active torsions:
REMARK  status: ('A' for Active; 'I' for Inactive)
REMARK    1  A    between atoms: C1_4  and  N2_5 
REMARK    2  A    between atoms: C4_14  and  C5_15 
REMARK    3  A    between atoms: C4_14  and  C6_18 
REMARK    4  A    between atoms: C6_18  and  N6_19 
REMARK    5  A    between atoms: C6_18  and  N7_23 
ROOT
HETATM    1  N2  UNL     1      16.010  -3.845  11.230  1.00  0.00    -0.340 N 
ATOM      2  H2  UNL     1      16.190  -4.839  11.373  1.00  0.00     0.168 HD
HETATM    3  C2  UNL     1      16.412  -3.331  10.136  1.00  0.00     0.128 C 
HETATM    4  N3  UNL     1      16.281  -1.996   9.696  1.00  0.00    -0.295 N 
ATOM      5  H3  UNL     1      15.727  -1.269  10.149  1.00  0.00     0.172 HD
HETATM    6  C3  UNL     1      17.067  -1.837   8.491  1.00  0.00     0.323 C 
HETATM    7  O1  UNL     1      17.093  -0.727   7.926  1.00  0.00    -0.247 OA
HETATM    8  N4  UNL     1      17.696  -3.068   8.172  1.00  0.00    -0.315 N 
ATOM      9  H4  UNL     1      18.397  -3.229   7.448  1.00  0.00     0.166 HD
HETATM   10  C4  UNL     1      17.131  -4.076   9.102  1.00  0.00     0.225 C 
ENDROOT
BRANCH  10  11
HETATM   11  C5  UNL     1      16.354  -5.082   8.405  1.00  0.00     0.271 C 
HETATM   12  N5  UNL     1      16.862  -5.797   7.267  1.00  0.00    -0.059 NA
HETATM   13  O2  UNL     1      15.174  -5.370   8.835  1.00  0.00    -0.273 OA
ENDBRANCH  10  11
BRANCH  10  14
HETATM   14  C6  UNL     1      18.344  -4.814   9.693  1.00  0.00     0.422 C 
BRANCH  14  15
HETATM   15  N6  UNL     1      19.495  -4.797   8.778  1.00  0.00    -0.047 N 
ATOM     16  H63 UNL     1      19.410  -4.052   8.088  1.00  0.00     0.276 HD
ATOM     17  H62 UNL     1      20.342  -4.481   9.252  1.00  0.00     0.276 HD
ATOM     18  H61 UNL     1      19.638  -5.703   8.330  1.00  0.00     0.276 HD
ENDBRANCH  14  15
BRANCH  14  19
HETATM   19  N7  UNL     1      18.024  -6.087  10.178  1.00  0.00    -0.047 N 
ATOM     20  H73 UNL     1      18.192  -6.148  11.182  1.00  0.00     0.276 HD
ATOM     21  H72 UNL     1      17.015  -6.237  10.169  1.00  0.00     0.276 HD
ATOM     22  H71 UNL     1      18.508  -6.834   9.680  1.00  0.00     0.276 HD
ENDBRANCH  14  19
ENDBRANCH  10  14
BRANCH   1  23
HETATM   23  C1  UNL     1      15.341  -3.162  12.250  1.00  0.00     0.174 C 
HETATM   24  N1  UNL     1      15.593  -3.244  13.503  1.00  0.00    -0.395 N 
ATOM     25  H12 UNL     1      16.355  -3.871  13.764  1.00  0.00     0.156 HD
ATOM     26  H11 UNL     1      15.105  -2.746  14.248  1.00  0.00     0.156 HD
ENDBRANCH   1  23
TORSDOF 5
ENDMDL
MODEL 5
REMARK VINA RESULT: -6.381839719      1.677      3.510
REMARK  5 active torsions:
REMARK  status: ('A' for Active; 'I' for Inactive)
REMARK    1  A    between atoms: C1_4  and  N2_5 
REMARK    2  A    between atoms: C4_14  and  C5_15 
REMARK    3  A    between atoms: C4_14  and  C6_18 
REMARK    4  A    between atoms: C6_18  and  N6_19 
REMARK    5  A    between atoms: C6_18  and  N7_23 
ROOT
HETATM    1  N2  UNL     1      16.005  -4.483  10.810  1.00  0.00    -0.340 N 
ATOM      2  H2  UNL     1      16.218  -5.478  10.885  1.00  0.00     0.168 HD
HETATM    3  C2  UNL     1      16.485  -3.858   9.809  1.00  0.00     0.128 C 
HETATM    4  N3  UNL     1      16.334  -2.495   9.474  1.00  0.00    -0.295 N 
ATOM      5  H3  UNL     1      15.705  -1.833   9.931  1.00  0.00     0.172 HD
HETATM    6  C3  UNL     1      17.223  -2.197   8.372  1.00  0.00     0.323 C 
HETATM    7  O1  UNL     1      17.250  -1.040   7.909  1.00  0.00    -0.247 OA
HETATM    8  N4  UNL     1      17.938  -3.370   8.013  1.00  0.00    -0.315 N 
ATOM      9  H4  UNL     1      18.712  -3.437   7.352  1.00  0.00     0.166 HD
HETATM   10  C4  UNL     1      17.335  -4.478   8.792  1.00  0.00     0.225 C 
ENDROOT
BRANCH  10  11
HETATM   11  C5  UNL     1      16.677  -5.447   7.938  1.00  0.00     0.271 C 
HETATM   12  N5  UNL     1      15.763  -6.431   8.450  1.00  0.00    -0.059 NA
HETATM   13  O2  UNL     1      16.894  -5.412   6.669  1.00  0.00    -0.273 OA
ENDBRANCH  10  11
BRANCH  10  14
HETATM   14  C6  UNL     1      18.520  -5.218   9.436  1.00  0.00     0.422 C 
BRANCH  14  15
HETATM   15  N6  UNL     1      18.101  -6.015  10.598  1.00  0.00    -0.047 N 
ATOM     16  H63 UNL     1      18.891  -6.228  11.207  1.00  0.00     0.276 HD
ATOM     17  H62 UNL     1      17.543  -5.460  11.248  1.00  0.00     0.276 HD
ATOM     18  H61 UNL     1      17.609  -6.864  10.320  1.00  0.00     0.276 HD
ENDBRANCH  14  15
BRANCH  14  19
HETATM   19  N7  UNL     1      19.613  -4.381   9.688  1.00  0.00    -0.047 N 
ATOM     20  H73 UNL     1      19.820  -3.797   8.877  1.00  0.00     0.276 HD
ATOM     21  H72 UNL     1      19.368  -3.653  10.359  1.00  0.00     0.276 HD
ATOM     22  H71 UNL     1      20.443  -4.892   9.990  1.00  0.00     0.276 HD
ENDBRANCH  14  19
ENDBRANCH  10  14
BRANCH   1  23
HETATM   23  C1  UNL     1      15.210  -3.922  11.813  1.00  0.00     0.174 C 
HETATM   24  N1  UNL     1      15.576  -3.674  13.015  1.00  0.00    -0.395 N 
ATOM     25  H12 UNL     1      16.540  -3.915  13.245  1.00  0.00     0.156 HD
ATOM     26  H11 UNL     1      14.996  -3.264  13.747  1.00  0.00     0.156 HD
ENDBRANCH   1  23
TORSDOF 5
ENDMDL
