MODEL 1
REMARK VINA RESULT: -7.546594814      0.000      0.000
REMARK  4 active torsions:
REMARK  status: ('A' for Active; 'I' for Inactive)
REMARK    1  A    between atoms: O1_2  and  C2_3 
REMARK    2  A    between atoms: C3_6  and  N2_7 
REMARK    3  A    between atoms: N2_7  and  N3_9 
REMARK    4  A    between atoms: C4_14  and  N5_15 
REMARK       I    between atoms: N5_15  and  C5_17 
ROOT
HETATM    1  C2  UNL     1      17.627  -4.296   9.174  1.00  0.00     0.254 A 
HETATM    2  N1  UNL     1      17.098  -3.116   8.809  1.00  0.00    -0.152 N 
ATOM      3  H1  UNL     1      16.085  -3.004   8.768  1.00  0.00     0.188 HD
HETATM    4  C3  UNL     1      17.901  -2.079   8.498  1.00  0.00     0.714 A 
HETATM    5  N4  UNL     1      19.239  -2.208   8.550  1.00  0.00    -0.020 N 
ATOM      6  H4  UNL     1      19.832  -1.414   8.312  1.00  0.00     0.203 HD
HETATM    7  C4  UNL     1      19.804  -3.381   8.913  1.00  0.00     0.704 A 
HETATM    8  N8  UNL     1      18.968  -4.392   9.214  1.00  0.00    -0.149 N 
HETATM    9  C6  UNL     1      19.570  -5.651   9.604  1.00  0.00     0.179 C 
ENDROOT
BRANCH   7  10
HETATM   10  N5  UNL     1      21.071  -3.554   8.976  1.00  0.00    -0.163 N 
HETATM   11  C5  UNL     1      21.933  -3.727   7.890  1.00  0.00     0.200 C 
HETATM   12  N6  UNL     1      22.777  -4.685   7.874  1.00  0.00    -0.373 N 
HETATM   13  N7  UNL     1      21.870  -2.835   6.800  1.00  0.00    -0.063 NA
ATOM     14  H62 UNL     1      22.822  -5.331   8.662  1.00  0.00     0.158 HD
ATOM     15  H61 UNL     1      23.407  -4.810   7.082  1.00  0.00     0.158 HD
ATOM     16  H5  UNL     1      21.490  -3.567   9.906  1.00  0.00     0.187 HD
ENDBRANCH   7  10
BRANCH   4  17
HETATM   17  N2  UNL     1      17.331  -0.973   8.157  1.00  0.00    -0.138 N 
ATOM     18  H2  UNL     1      17.848  -0.323   7.563  1.00  0.00     0.205 HD
BRANCH  17  19
HETATM   19  N3  UNL     1      16.060  -0.625   8.552  1.00  0.00    -0.331 N 
ATOM     20  H32 UNL     1      15.446  -1.376   8.870  1.00  0.00     0.177 HD
ATOM     21  H31 UNL     1      15.713   0.335   8.541  1.00  0.00     0.177 HD
ENDBRANCH  17  19
ENDBRANCH   4  17
BRANCH   1  22
HETATM   22  O1  UNL     1      16.806  -5.392   9.501  1.00  0.00    -0.326 OA
HETATM   23  C1  UNL     1      15.842  -5.801   8.524  1.00  0.00     0.213 C 
ENDBRANCH   1  22
TORSDOF 4
ENDMDL
MODEL 2
REMARK VINA RESULT: -7.446245844      1.954      4.160
REMARK  4 active torsions:
REMARK  status: ('A' for Active; 'I' for Inactive)
REMARK    1  A    between atoms: O1_2  and  C2_3 
REMARK    2  A    between atoms: C3_6  and  N2_7 
REMARK    3  A    between atoms: N2_7  and  N3_9 
REMARK    4  A    between atoms: C4_14  and  N5_15 
REMARK       I    between atoms: N5_15  and  C5_17 
ROOT
HETATM    1  C2  UNL     1      20.003  -3.507   9.015  1.00  0.00     0.254 A 
HETATM    2  N1  UNL     1      19.472  -2.354   8.575  1.00  0.00    -0.152 N 
ATOM      3  H1  UNL     1      20.081  -1.564   8.358  1.00  0.00     0.188 HD
HETATM    4  C3  UNL     1      18.138  -2.236   8.420  1.00  0.00     0.714 A 
HETATM    5  N4  UNL     1      17.322  -3.267   8.700  1.00  0.00    -0.020 N 
ATOM      6  H4  UNL     1      16.315  -3.162   8.576  1.00  0.00     0.203 HD
HETATM    7  C4  UNL     1      17.822  -4.442   9.144  1.00  0.00     0.704 A 
HETATM    8  N8  UNL     1      19.158  -4.518   9.286  1.00  0.00    -0.149 N 
HETATM    9  C6  UNL     1      19.699  -5.776   9.762  1.00  0.00     0.179 C 
ENDROOT
BRANCH   7  10
HETATM   10  N5  UNL     1      17.087  -5.451   9.424  1.00  0.00    -0.163 N 
HETATM   11  C5  UNL     1      16.078  -5.985   8.616  1.00  0.00     0.200 C 
HETATM   12  N6  UNL     1      14.922  -6.230   9.097  1.00  0.00    -0.373 N 
HETATM   13  N7  UNL     1      16.341  -6.252   7.257  1.00  0.00    -0.063 NA
ATOM     14  H62 UNL     1      14.731  -6.036  10.080  1.00  0.00     0.158 HD
ATOM     15  H61 UNL     1      14.186  -6.620   8.508  1.00  0.00     0.158 HD
ATOM     16  H5  UNL     1      17.253  -5.910  10.320  1.00  0.00     0.187 HD
ENDBRANCH   7  10
BRANCH   4  17
HETATM   17  N2  UNL     1      17.691  -1.103   7.994  1.00  0.00    -0.138 N 
ATOM     18  H2  UNL     1      18.285  -0.549   7.377  1.00  0.00     0.205 HD
BRANCH  17  19
HETATM   19  N3  UNL     1      16.454  -0.603   8.332  1.00  0.00    -0.331 N 
ATOM     20  H32 UNL     1      16.298  -0.358   9.310  1.00  0.00     0.177 HD
ATOM     21  H31 UNL     1      15.701  -0.470   7.656  1.00  0.00     0.177 HD
ENDBRANCH  17  19
ENDBRANCH   4  17
BRANCH   1  22
HETATM   22  O1  UNL     1      21.393  -3.651   9.186  1.00  0.00    -0.326 OA
HETATM   23  C1  UNL     1      22.189  -3.762   8.000  1.00  0.00     0.213 C 
ENDBRANCH   1  22
TORSDOF 4
ENDMDL
MODEL 3
REMARK VINA RESULT: -6.930695113      2.799      4.776
REMARK  4 active torsions:
REMARK  status: ('A' for Active; 'I' for Inactive)
REMARK    1  A    between atoms: O1_2  and  C2_3 
REMARK    2  A    between atoms: C3_6  and  N2_7 
REMARK    3  A    between atoms: N2_7  and  N3_9 
REMARK    4  A    between atoms: C4_14  and  N5_15 
REMARK       I    between atoms: N5_15  and  C5_17 
ROOT
HETATM    1  C2  UNL     1      16.004  -2.075  10.792  1.00  0.00     0.254 A 
HETATM    2  N1  UNL     1      16.791  -1.483   9.878  1.00  0.00    -0.152 N 
ATOM      3  H1  UNL     1      16.995  -0.487   9.953  1.00  0.00     0.188 HD
HETATM    4  C3  UNL     1      17.313  -2.202   8.864  1.00  0.00     0.714 A 
HETATM    5  N4  UNL     1      17.056  -3.517   8.752  1.00  0.00    -0.020 N 
ATOM      6  H4  UNL     1      17.459  -4.046   7.979  1.00  0.00     0.203 HD
HETATM    7  C4  UNL     1      16.268  -4.145   9.654  1.00  0.00     0.704 A 
HETATM    8  N8  UNL     1      15.767  -3.392  10.650  1.00  0.00    -0.149 N 
HETATM    9  C6  UNL     1      14.921  -4.061  11.619  1.00  0.00     0.179 C 
ENDROOT
BRANCH   7  10
HETATM   10  N5  UNL     1      15.994  -5.393   9.590  1.00  0.00    -0.163 N 
HETATM   11  C5  UNL     1      15.730  -6.119   8.425  1.00  0.00     0.200 C 
HETATM   12  N6  UNL     1      14.707  -6.878   8.349  1.00  0.00    -0.373 N 
HETATM   13  N7  UNL     1      16.603  -6.012   7.323  1.00  0.00    -0.063 NA
ATOM     14  H62 UNL     1      14.075  -6.956   9.146  1.00  0.00     0.158 HD
ATOM     15  H61 UNL     1      14.514  -7.409   7.500  1.00  0.00     0.158 HD
ATOM     16  H5  UNL     1      15.965  -5.906  10.471  1.00  0.00     0.187 HD
ENDBRANCH   7  10
BRANCH   4  17
HETATM   17  N2  UNL     1      18.061  -1.574   8.020  1.00  0.00    -0.138 N 
ATOM     18  H2  UNL     1      17.619  -0.925   7.369  1.00  0.00     0.205 HD
BRANCH  17  19
HETATM   19  N3  UNL     1      19.427  -1.736   7.955  1.00  0.00    -0.331 N 
ATOM     20  H32 UNL     1      19.887  -2.162   8.760  1.00  0.00     0.177 HD
ATOM     21  H31 UNL     1      19.986  -1.454   7.150  1.00  0.00     0.177 HD
ENDBRANCH  17  19
ENDBRANCH   4  17
BRANCH   1  22
HETATM   22  O1  UNL     1      15.448  -1.344  11.858  1.00  0.00    -0.326 OA
HETATM   23  C1  UNL     1      16.050  -0.082  12.169  1.00  0.00     0.213 C 
ENDBRANCH   1  22
TORSDOF 4
ENDMDL
MODEL 4
REMARK VINA RESULT: -6.827795954      1.654      2.035
REMARK  4 active torsions:
REMARK  status: ('A' for Active; 'I' for Inactive)
REMARK    1  A    between atoms: O1_2  and  C2_3 
REMARK    2  A    between atoms: C3_6  and  N2_7 
REMARK    3  A    between atoms: N2_7  and  N3_9 
REMARK    4  A    between atoms: C4_14  and  N5_15 
REMARK       I    between atoms: N5_15  and  C5_17 
ROOT
HETATM    1  C2  UNL     1      16.192  -3.602   9.932  1.00  0.00     0.254 A 
HETATM    2  N1  UNL     1      16.060  -2.268   9.841  1.00  0.00    -0.152 N 
ATOM      3  H1  UNL     1      15.252  -1.808  10.260  1.00  0.00     0.188 HD
HETATM    4  C3  UNL     1      16.992  -1.536   9.198  1.00  0.00     0.714 A 
HETATM    5  N4  UNL     1      18.064  -2.126   8.642  1.00  0.00    -0.020 N 
ATOM      6  H4  UNL     1      18.759  -1.558   8.160  1.00  0.00     0.203 HD
HETATM    7  C4  UNL     1      18.228  -3.466   8.715  1.00  0.00     0.704 A 
HETATM    8  N8  UNL     1      17.276  -4.161   9.364  1.00  0.00    -0.149 N 
HETATM    9  C6  UNL     1      17.448  -5.598   9.444  1.00  0.00     0.179 C 
ENDROOT
BRANCH   7  10
HETATM   10  N5  UNL     1      19.230  -4.074   8.201  1.00  0.00    -0.163 N 
HETATM   11  C5  UNL     1      20.556  -3.632   8.213  1.00  0.00     0.200 C 
HETATM   12  N6  UNL     1      21.247  -3.616   7.140  1.00  0.00    -0.373 N 
HETATM   13  N7  UNL     1      21.136  -3.200   9.423  1.00  0.00    -0.063 NA
ATOM     14  H62 UNL     1      20.827  -3.928   6.264  1.00  0.00     0.158 HD
ATOM     15  H61 UNL     1      22.214  -3.293   7.149  1.00  0.00     0.158 HD
ATOM     16  H5  UNL     1      19.044  -4.965   7.740  1.00  0.00     0.187 HD
ENDBRANCH   7  10
BRANCH   4  17
HETATM   17  N2  UNL     1      16.806  -0.259   9.146  1.00  0.00    -0.138 N 
ATOM     18  H2  UNL     1      17.265   0.268   8.403  1.00  0.00     0.205 HD
BRANCH  17  19
HETATM   19  N3  UNL     1      16.020   0.427  10.044  1.00  0.00    -0.331 N 
ATOM     20  H32 UNL     1      15.211   0.925   9.672  1.00  0.00     0.177 HD
ATOM     21  H31 UNL     1      16.209   0.456  11.046  1.00  0.00     0.177 HD
ENDBRANCH  17  19
ENDBRANCH   4  17
BRANCH   1  22
HETATM   22  O1  UNL     1      15.230  -4.386  10.597  1.00  0.00    -0.326 OA
HETATM   23  C1  UNL     1      15.023  -4.123  11.990  1.00  0.00     0.213 C 
ENDBRANCH   1  22
TORSDOF 4
ENDMDL
MODEL 5
REMARK VINA RESULT: -6.627509665      3.508      5.014
REMARK  4 active torsions:
REMARK  status: ('A' for Active; 'I' for Inactive)
REMARK    1  A    between atoms: O1_2  and  C2_3 
REMARK    2  A    between atoms: C3_6  and  N2_7 
REMARK    3  A    between atoms: N2_7  and  N3_9 
REMARK    4  A    between atoms: C4_14  and  N5_15 
REMARK       I    between atoms: N5_15  and  C5_17 
ROOT
HETATM    1  C2  UNL     1      15.789  -1.925  11.649  1.00  0.00     0.254 A 
HETATM    2  N1  UNL     1      16.274  -1.177  10.644  1.00  0.00    -0.152 N 
ATOM      3  H1  UNL     1      16.508  -0.198  10.807  1.00  0.00     0.188 HD
HETATM    4  C3  UNL     1      16.452  -1.716   9.421  1.00  0.00     0.714 A 
HETATM    5  N4  UNL     1      16.151  -3.006   9.190  1.00  0.00    -0.020 N 
ATOM      6  H4  UNL     1      16.293  -3.399   8.260  1.00  0.00     0.203 HD
HETATM    7  C4  UNL     1      15.662  -3.788  10.179  1.00  0.00     0.704 A 
HETATM    8  N8  UNL     1      15.498  -3.212  11.384  1.00  0.00    -0.149 N 
HETATM    9  C6  UNL     1      14.973  -4.045  12.447  1.00  0.00     0.179 C 
ENDROOT
BRANCH   7  10
HETATM   10  N5  UNL     1      15.359  -5.019  10.009  1.00  0.00    -0.163 N 
HETATM   11  C5  UNL     1      15.681  -5.799   8.894  1.00  0.00     0.200 C 
HETATM   12  N6  UNL     1      14.787  -6.501   8.311  1.00  0.00    -0.373 N 
HETATM   13  N7  UNL     1      17.004  -5.810   8.408  1.00  0.00    -0.063 NA
ATOM     14  H62 UNL     1      13.829  -6.492   8.662  1.00  0.00     0.158 HD
ATOM     15  H61 UNL     1      15.022  -7.070   7.498  1.00  0.00     0.158 HD
ATOM     16  H5  UNL     1      14.835  -5.475  10.756  1.00  0.00     0.187 HD
ENDBRANCH   7  10
BRANCH   4  17
HETATM   17  N2  UNL     1      16.921  -0.945   8.499  1.00  0.00    -0.138 N 
ATOM     18  H2  UNL     1      16.466  -0.046   8.341  1.00  0.00     0.205 HD
BRANCH  17  19
HETATM   19  N3  UNL     1      18.006  -1.274   7.719  1.00  0.00    -0.331 N 
ATOM     20  H32 UNL     1      18.894  -0.820   7.936  1.00  0.00     0.177 HD
ATOM     21  H31 UNL     1      17.960  -1.939   6.947  1.00  0.00     0.177 HD
ENDBRANCH  17  19
ENDBRANCH   4  17
BRANCH   1  22
HETATM   22  O1  UNL     1      15.594  -1.382  12.933  1.00  0.00    -0.326 OA
HETATM   23  C1  UNL     1      16.141  -0.083  13.184  1.00  0.00     0.213 C 
ENDBRANCH   1  22
TORSDOF 4
ENDMDL
