MODEL 1
REMARK VINA RESULT: -11.248906588      0.000      0.000
REMARK  5 active torsions:
REMARK  status: ('A' for Active; 'I' for Inactive)
REMARK    1  A    between atoms: C5_7  and  C6_8 
REMARK    2  A    between atoms: C6_8  and  C7_9 
REMARK    3  A    between atoms: C7_9  and  C8_10 
REMARK    4  A    between atoms: C8_10  and  C9_11 
REMARK    5  A    between atoms: C9_11  and  C10_12 
ROOT
HETATM    1  C7  UNL     1      43.314   4.154   9.389  1.00  0.00     0.006 C 
ENDROOT
BRANCH   1   2
HETATM    2  C6  UNL     1      43.950   4.850  10.546  1.00  0.00     0.057 C 
BRANCH   2   3
HETATM    3  C5  UNL     1      45.416   4.763  10.567  1.00  0.00     0.009 A 
HETATM    4  N1  UNL     1      46.123   5.878  10.827  1.00  0.00    -0.359 N 
HETATM    5  C4  UNL     1      47.471   5.915  10.871  1.00  0.00     0.042 A 
ATOM      6  H1  UNL     1      45.611   6.743  11.001  1.00  0.00     0.166 HD
HETATM    7  C3  UNL     1      48.165   7.080  11.139  1.00  0.00     0.030 A 
HETATM    8  C20 UNL     1      48.219   4.779  10.646  1.00  0.00    -0.009 A 
HETATM    9  C2  UNL     1      49.543   7.134  11.187  1.00  0.00     0.002 A 
HETATM   10  C1  UNL     1      50.287   5.997  10.962  1.00  0.00     0.001 A 
HETATM   11  C21 UNL     1      49.601   4.831  10.694  1.00  0.00     0.013 A 
HETATM   12  C19 UNL     1      47.524   3.609  10.376  1.00  0.00     0.015 A 
HETATM   13  C18 UNL     1      46.137   3.607  10.338  1.00  0.00     0.026 A 
ENDBRANCH   2   3
ENDBRANCH   1   2
BRANCH   1  14
HETATM   14  C8  UNL     1      42.553   2.967   9.936  1.00  0.00     0.005 C 
BRANCH  14  15
HETATM   15  C9  UNL     1      43.195   1.657   9.552  1.00  0.00     0.041 C 
BRANCH  15  16
HETATM   16  C10 UNL     1      43.010   0.628  10.592  1.00  0.00    -0.030 A 
HETATM   17  C11 UNL     1      42.155  -0.446  10.523  1.00  0.00     0.096 A 
HETATM   18  N2  UNL     1      42.284  -1.142  11.674  1.00  0.00    -0.365 N 
HETATM   19  C12 UNL     1      43.183  -0.571  12.491  1.00  0.00     0.042 A 
ATOM     20  H2  UNL     1      41.765  -1.992  11.894  1.00  0.00     0.165 HD
HETATM   21  C13 UNL     1      43.637  -0.910  13.733  1.00  0.00     0.030 A 
HETATM   22  C17 UNL     1      43.651   0.556  11.808  1.00  0.00    -0.002 A 
HETATM   23  C14 UNL     1      44.583  -0.115  14.332  1.00  0.00     0.002 A 
HETATM   24  C15 UNL     1      45.075   1.001  13.709  1.00  0.00     0.001 A 
HETATM   25  C16 UNL     1      44.601   1.321  12.455  1.00  0.00     0.014 A 
ENDBRANCH  15  16
ENDBRANCH  14  15
ENDBRANCH   1  14
TORSDOF 5
ENDMDL
MODEL 2
REMARK VINA RESULT: -10.602813778      1.606      7.654
REMARK  5 active torsions:
REMARK  status: ('A' for Active; 'I' for Inactive)
REMARK    1  A    between atoms: C5_7  and  C6_8 
REMARK    2  A    between atoms: C6_8  and  C7_9 
REMARK    3  A    between atoms: C7_9  and  C8_10 
REMARK    4  A    between atoms: C8_10  and  C9_11 
REMARK    5  A    between atoms: C9_11  and  C10_12 
ROOT
HETATM    1  C7  UNL     1      45.377   4.825  10.474  1.00  0.00     0.006 C 
ENDROOT
BRANCH   1   2
HETATM    2  C6  UNL     1      44.299   4.020   9.828  1.00  0.00     0.057 C 
BRANCH   2   3
HETATM    3  C5  UNL     1      44.033   2.734  10.486  1.00  0.00     0.009 A 
HETATM    4  N1  UNL     1      44.568   2.511  11.700  1.00  0.00    -0.359 N 
HETATM    5  C4  UNL     1      44.392   1.368  12.395  1.00  0.00     0.042 A 
ATOM      6  H1  UNL     1      45.138   3.246  12.118  1.00  0.00     0.166 HD
HETATM    7  C3  UNL     1      44.959   1.171  13.641  1.00  0.00     0.030 A 
HETATM    8  C20 UNL     1      43.632   0.337  11.885  1.00  0.00    -0.009 A 
HETATM    9  C2  UNL     1      44.789   0.009  14.364  1.00  0.00     0.002 A 
HETATM   10  C1  UNL     1      44.029  -1.019  13.851  1.00  0.00     0.001 A 
HETATM   11  C21 UNL     1      43.460  -0.830  12.609  1.00  0.00     0.013 A 
HETATM   12  C19 UNL     1      43.063   0.532  10.635  1.00  0.00     0.015 A 
HETATM   13  C18 UNL     1      43.265   1.721   9.947  1.00  0.00     0.026 A 
ENDBRANCH   2   3
ENDBRANCH   1   2
BRANCH   1  14
HETATM   14  C8  UNL     1      46.628   4.659   9.639  1.00  0.00     0.005 C 
BRANCH  14  15
HETATM   15  C9  UNL     1      47.843   4.382  10.490  1.00  0.00     0.041 C 
BRANCH  15  16
HETATM   16  C10 UNL     1      48.862   5.440  10.353  1.00  0.00    -0.030 A 
HETATM   17  C11 UNL     1      50.061   5.325   9.690  1.00  0.00     0.096 A 
HETATM   18  N2  UNL     1      50.700   6.510   9.799  1.00  0.00    -0.365 N 
HETATM   19  C12 UNL     1      49.974   7.392  10.504  1.00  0.00     0.042 A 
ATOM     20  H2  UNL     1      51.616   6.709   9.397  1.00  0.00     0.165 HD
HETATM   21  C13 UNL     1      50.207   8.688  10.864  1.00  0.00     0.030 A 
HETATM   22  C17 UNL     1      48.802   6.718  10.860  1.00  0.00    -0.002 A 
HETATM   23  C14 UNL     1      49.256   9.350  11.603  1.00  0.00     0.002 A 
HETATM   24  C15 UNL     1      48.091   8.738  11.979  1.00  0.00     0.001 A 
HETATM   25  C16 UNL     1      47.881   7.429  11.601  1.00  0.00     0.014 A 
ENDBRANCH  15  16
ENDBRANCH  14  15
ENDBRANCH   1  14
TORSDOF 5
ENDMDL
MODEL 3
REMARK VINA RESULT: -10.555998563      1.429      2.399
REMARK  5 active torsions:
REMARK  status: ('A' for Active; 'I' for Inactive)
REMARK    1  A    between atoms: C5_7  and  C6_8 
REMARK    2  A    between atoms: C6_8  and  C7_9 
REMARK    3  A    between atoms: C7_9  and  C8_10 
REMARK    4  A    between atoms: C8_10  and  C9_11 
REMARK    5  A    between atoms: C9_11  and  C10_12 
ROOT
HETATM    1  C7  UNL     1      45.539   4.780   9.312  1.00  0.00     0.006 C 
ENDROOT
BRANCH   1   2
HETATM    2  C6  UNL     1      46.574   4.588  10.369  1.00  0.00     0.057 C 
BRANCH   2   3
HETATM    3  C5  UNL     1      47.615   5.623  10.386  1.00  0.00     0.009 A 
HETATM    4  N1  UNL     1      47.449   6.689  11.190  1.00  0.00    -0.359 N 
HETATM    5  C4  UNL     1      48.339   7.698  11.285  1.00  0.00     0.042 A 
ATOM      6  H1  UNL     1      46.605   6.736  11.759  1.00  0.00     0.166 HD
HETATM    7  C3  UNL     1      48.135   8.781  12.121  1.00  0.00     0.030 A 
HETATM    8  C20 UNL     1      49.501   7.693  10.542  1.00  0.00    -0.009 A 
HETATM    9  C2  UNL     1      49.035   9.821  12.229  1.00  0.00     0.002 A 
HETATM   10  C1  UNL     1      50.194   9.812  11.485  1.00  0.00     0.001 A 
HETATM   11  C21 UNL     1      50.404   8.735  10.649  1.00  0.00     0.013 A 
HETATM   12  C19 UNL     1      49.706   6.608   9.702  1.00  0.00     0.015 A 
HETATM   13  C18 UNL     1      48.770   5.586   9.628  1.00  0.00     0.026 A 
ENDBRANCH   2   3
ENDBRANCH   1   2
BRANCH   1  14
HETATM   14  C8  UNL     1      44.319   3.985   9.721  1.00  0.00     0.005 C 
BRANCH  14  15
HETATM   15  C9  UNL     1      44.469   3.386  11.098  1.00  0.00     0.041 C 
BRANCH  15  16
HETATM   16  C10 UNL     1      44.017   1.983  11.140  1.00  0.00    -0.030 A 
HETATM   17  C11 UNL     1      43.363   1.315  10.132  1.00  0.00     0.096 A 
HETATM   18  N2  UNL     1      43.125   0.058  10.567  1.00  0.00    -0.365 N 
HETATM   19  C12 UNL     1      43.593  -0.125  11.812  1.00  0.00     0.042 A 
ATOM     20  H2  UNL     1      42.652  -0.660  10.019  1.00  0.00     0.165 HD
HETATM   21  C13 UNL     1      43.585  -1.207  12.643  1.00  0.00     0.030 A 
HETATM   22  C17 UNL     1      44.163   1.097  12.183  1.00  0.00    -0.002 A 
HETATM   23  C14 UNL     1      44.154  -1.090  13.888  1.00  0.00     0.002 A 
HETATM   24  C15 UNL     1      44.726   0.083  14.304  1.00  0.00     0.001 A 
HETATM   25  C16 UNL     1      44.721   1.161  13.444  1.00  0.00     0.014 A 
ENDBRANCH  15  16
ENDBRANCH  14  15
ENDBRANCH   1  14
TORSDOF 5
ENDMDL
MODEL 4
REMARK VINA RESULT: -10.554049124      1.731      3.008
REMARK  5 active torsions:
REMARK  status: ('A' for Active; 'I' for Inactive)
REMARK    1  A    between atoms: C5_7  and  C6_8 
REMARK    2  A    between atoms: C6_8  and  C7_9 
REMARK    3  A    between atoms: C7_9  and  C8_10 
REMARK    4  A    between atoms: C8_10  and  C9_11 
REMARK    5  A    between atoms: C9_11  and  C10_12 
ROOT
HETATM    1  C7  UNL     1      46.359   4.529   9.813  1.00  0.00     0.006 C 
ENDROOT
BRANCH   1   2
HETATM    2  C6  UNL     1      47.847   4.635   9.818  1.00  0.00     0.057 C 
BRANCH   2   3
HETATM    3  C5  UNL     1      48.355   5.941  10.259  1.00  0.00     0.009 A 
HETATM    4  N1  UNL     1      49.438   6.450   9.645  1.00  0.00    -0.359 N 
HETATM    5  C4  UNL     1      49.990   7.638   9.968  1.00  0.00     0.042 A 
ATOM      6  H1  UNL     1      49.865   5.909   8.894  1.00  0.00     0.166 HD
HETATM    7  C3  UNL     1      51.106   8.131   9.317  1.00  0.00     0.030 A 
HETATM    8  C20 UNL     1      49.458   8.417  10.974  1.00  0.00    -0.009 A 
HETATM    9  C2  UNL     1      51.682   9.343   9.636  1.00  0.00     0.002 A 
HETATM   10  C1  UNL     1      51.148  10.119  10.641  1.00  0.00     0.001 A 
HETATM   11  C21 UNL     1      50.035   9.633  11.295  1.00  0.00     0.013 A 
HETATM   12  C19 UNL     1      48.340   7.924  11.629  1.00  0.00     0.015 A 
HETATM   13  C18 UNL     1      47.797   6.697  11.272  1.00  0.00     0.026 A 
ENDBRANCH   2   3
ENDBRANCH   1   2
BRANCH   1  14
HETATM   14  C8  UNL     1      45.990   3.280  10.582  1.00  0.00     0.005 C 
BRANCH  14  15
HETATM   15  C9  UNL     1      44.537   3.272  10.986  1.00  0.00     0.041 C 
BRANCH  15  16
HETATM   16  C10 UNL     1      44.009   1.900  11.113  1.00  0.00    -0.030 A 
HETATM   17  C11 UNL     1      43.261   1.232  10.172  1.00  0.00     0.096 A 
HETATM   18  N2  UNL     1      42.978   0.010  10.672  1.00  0.00    -0.365 N 
HETATM   19  C12 UNL     1      43.505  -0.150  11.896  1.00  0.00     0.042 A 
ATOM     20  H2  UNL     1      42.434  -0.700  10.183  1.00  0.00     0.165 HD
HETATM   21  C13 UNL     1      43.482  -1.196  12.773  1.00  0.00     0.030 A 
HETATM   22  C17 UNL     1      44.163   1.049  12.184  1.00  0.00    -0.002 A 
HETATM   23  C14 UNL     1      44.127  -1.064  13.979  1.00  0.00     0.002 A 
HETATM   24  C15 UNL     1      44.786   0.089  14.312  1.00  0.00     0.001 A 
HETATM   25  C16 UNL     1      44.795   1.130  13.408  1.00  0.00     0.014 A 
ENDBRANCH  15  16
ENDBRANCH  14  15
ENDBRANCH   1  14
TORSDOF 5
ENDMDL
MODEL 5
REMARK VINA RESULT: -10.501748266      1.142      6.703
REMARK  5 active torsions:
REMARK  status: ('A' for Active; 'I' for Inactive)
REMARK    1  A    between atoms: C5_7  and  C6_8 
REMARK    2  A    between atoms: C6_8  and  C7_9 
REMARK    3  A    between atoms: C7_9  and  C8_10 
REMARK    4  A    between atoms: C8_10  and  C9_11 
REMARK    5  A    between atoms: C9_11  and  C10_12 
ROOT
HETATM    1  C7  UNL     1      42.803   4.145   9.866  1.00  0.00     0.006 C 
ENDROOT
BRANCH   1   2
HETATM    2  C6  UNL     1      42.836   2.803   9.215  1.00  0.00     0.057 C 
BRANCH   2   3
HETATM    3  C5  UNL     1      42.941   1.681  10.157  1.00  0.00     0.009 A 
HETATM    4  N1  UNL     1      43.699   1.834  11.258  1.00  0.00    -0.359 N 
HETATM    5  C4  UNL     1      43.868   0.872  12.188  1.00  0.00     0.042 A 
ATOM      6  H1  UNL     1      44.172   2.727  11.396  1.00  0.00     0.166 HD
HETATM    7  C3  UNL     1      44.657   1.064  13.308  1.00  0.00     0.030 A 
HETATM    8  C20 UNL     1      43.255  -0.356  12.059  1.00  0.00    -0.009 A 
HETATM    9  C2  UNL     1      44.840   0.090  14.268  1.00  0.00     0.002 A 
HETATM   10  C1  UNL     1      44.226  -1.136  14.135  1.00  0.00     0.001 A 
HETATM   11  C21 UNL     1      43.437  -1.333  13.021  1.00  0.00     0.013 A 
HETATM   12  C19 UNL     1      42.463  -0.550  10.936  1.00  0.00     0.015 A 
HETATM   13  C18 UNL     1      42.312   0.461   9.998  1.00  0.00     0.026 A 
ENDBRANCH   2   3
ENDBRANCH   1   2
BRANCH   1  14
HETATM   14  C8  UNL     1      44.071   4.871   9.473  1.00  0.00     0.005 C 
BRANCH  14  15
HETATM   15  C9  UNL     1      44.904   5.247  10.673  1.00  0.00     0.041 C 
BRANCH  15  16
HETATM   16  C10 UNL     1      46.300   4.790  10.539  1.00  0.00    -0.030 A 
HETATM   17  C11 UNL     1      46.705   3.547  10.113  1.00  0.00     0.096 A 
HETATM   18  N2  UNL     1      48.055   3.532  10.134  1.00  0.00    -0.365 N 
HETATM   19  C12 UNL     1      48.550   4.707  10.554  1.00  0.00     0.042 A 
ATOM     20  H2  UNL     1      48.626   2.731   9.864  1.00  0.00     0.165 HD
HETATM   21  C13 UNL     1      49.829   5.151  10.732  1.00  0.00     0.030 A 
HETATM   22  C17 UNL     1      47.438   5.514  10.813  1.00  0.00    -0.002 A 
HETATM   23  C14 UNL     1      50.027   6.433  11.183  1.00  0.00     0.002 A 
HETATM   24  C15 UNL     1      48.975   7.266  11.454  1.00  0.00     0.001 A 
HETATM   25  C16 UNL     1      47.693   6.792  11.264  1.00  0.00     0.014 A 
ENDBRANCH  15  16
ENDBRANCH  14  15
ENDBRANCH   1  14
TORSDOF 5
ENDMDL
