MODEL 1
REMARK VINA RESULT: -7.949206324      0.000      0.000
REMARK  8 active torsions:
REMARK  status: ('A' for Active; 'I' for Inactive)
REMARK    1  A    between atoms: N1_2  and  C3_4 
REMARK    2  A    between atoms: C3_4  and  C4_5 
REMARK    3  A    between atoms: C4_5  and  C5_6 
REMARK    4  A    between atoms: C5_6  and  N2_7 
REMARK    5  A    between atoms: N2_7  and  C6_9 
REMARK    6  A    between atoms: C14_17  and  O1_18 
REMARK    7  A    between atoms: C23_28  and  C25_30 
REMARK    8  A    between atoms: C26_32  and  O3_33 
ROOT
HETATM    1  C6  UNL     1      56.104  39.499  15.378  1.00  0.00     0.106 C 
HETATM    2  C7  UNL     1      56.284  38.213  16.134  1.00  0.00     0.035 C 
HETATM    3  C8  UNL     1      55.477  37.067  15.669  1.00  0.00     0.001 C 
HETATM    4  C9  UNL     1      54.897  37.217  14.275  1.00  0.00     0.001 C 
HETATM    5  C10 UNL     1      55.891  37.079  13.189  1.00  0.00     0.006 C 
HETATM    6  C11 UNL     1      57.132  36.390  13.648  1.00  0.00     0.006 C 
HETATM    7  C12 UNL     1      56.747  35.231  14.550  1.00  0.00    -0.004 C 
HETATM    8  C13 UNL     1      57.935  34.347  14.680  1.00  0.00     0.037 C 
HETATM    9  C14 UNL     1      58.115  33.603  15.941  1.00  0.00     0.118 C 
HETATM   10  C15 UNL     1      57.648  34.322  17.179  1.00  0.00     0.032 C 
HETATM   11  C16 UNL     1      57.247  35.755  16.859  1.00  0.00     0.012 C 
HETATM   12  C17 UNL     1      56.147  35.709  15.827  1.00  0.00    -0.036 C 
HETATM   13  C18 UNL     1      55.061  34.696  16.228  1.00  0.00     0.016 C 
HETATM   14  C19 UNL     1      54.067  38.465  14.242  1.00  0.00     0.051 C 
HETATM   15  C20 UNL     1      54.801  39.666  14.731  1.00  0.00    -0.054 C 
HETATM   16  C21 UNL     1      54.211  40.827  14.528  1.00  0.00    -0.020 C 
HETATM   17  C22 UNL     1      52.888  40.962  13.869  1.00  0.00     0.046 C 
HETATM   18  C23 UNL     1      52.516  39.850  12.960  1.00  0.00     0.039 C 
HETATM   19  C24 UNL     1      52.274  40.334  11.528  1.00  0.00     0.026 C 
HETATM   20  C26 UNL     1      53.560  38.767  12.857  1.00  0.00     0.142 C 
ENDROOT
BRANCH   1  21
HETATM   21  N2  UNL     1      56.469  40.671  16.083  1.00  0.00    -0.413 N 
ATOM     22  H2  UNL     1      56.962  41.427  15.608  1.00  0.00     0.153 HD
BRANCH  21  23
HETATM   23  C5  UNL     1      56.143  40.781  17.452  1.00  0.00     0.116 C 
BRANCH  23  24
HETATM   24  C4  UNL     1      57.311  41.315  18.246  1.00  0.00     0.049 C 
BRANCH  24  25
HETATM   25  C3  UNL     1      58.281  40.281  18.707  1.00  0.00     0.273 C 
BRANCH  25  26
HETATM   26  N1  UNL     1      59.632  40.598  18.214  1.00  0.00     0.080 N 
HETATM   27  C1  UNL     1      59.868  39.931  16.967  1.00  0.00     0.309 C 
HETATM   28  C2  UNL     1      60.627  40.224  19.176  1.00  0.00     0.309 C 
ENDBRANCH  25  26
ENDBRANCH  24  25
ENDBRANCH  23  24
ENDBRANCH  21  23
ENDBRANCH   1  21
BRANCH  20  29
HETATM   29  O3  UNL     1      52.933  37.603  12.368  1.00  0.00    -0.394 OA
ATOM     30  H3  UNL     1      52.045  37.836  12.124  1.00  0.00     0.210 HD
ENDBRANCH  20  29
BRANCH  18  31
HETATM   31  C25 UNL     1      51.240  39.169  13.384  1.00  0.00     0.243 C 
HETATM   32  O2  UNL     1      50.418  38.935  12.512  1.00  0.00    -0.306 OA
ENDBRANCH  18  31
BRANCH   9  33
HETATM   33  O1  UNL     1      57.602  32.290  15.908  1.00  0.00    -0.396 OA
ATOM     34  H1  UNL     1      57.489  31.899  16.766  1.00  0.00     0.210 HD
ENDBRANCH   9  33
TORSDOF 8
ENDMDL
MODEL 2
REMARK VINA RESULT: -7.779418768      1.432      2.385
REMARK  8 active torsions:
REMARK  status: ('A' for Active; 'I' for Inactive)
REMARK    1  A    between atoms: N1_2  and  C3_4 
REMARK    2  A    between atoms: C3_4  and  C4_5 
REMARK    3  A    between atoms: C4_5  and  C5_6 
REMARK    4  A    between atoms: C5_6  and  N2_7 
REMARK    5  A    between atoms: N2_7  and  C6_9 
REMARK    6  A    between atoms: C14_17  and  O1_18 
REMARK    7  A    between atoms: C23_28  and  C25_30 
REMARK    8  A    between atoms: C26_32  and  O3_33 
ROOT
HETATM    1  C6  UNL     1      56.032  39.307  15.078  1.00  0.00     0.106 C 
HETATM    2  C7  UNL     1      56.232  38.078  15.919  1.00  0.00     0.035 C 
HETATM    3  C8  UNL     1      55.399  36.909  15.572  1.00  0.00     0.001 C 
HETATM    4  C9  UNL     1      54.765  36.962  14.195  1.00  0.00     0.001 C 
HETATM    5  C10 UNL     1      55.714  36.733  13.084  1.00  0.00     0.006 C 
HETATM    6  C11 UNL     1      56.967  36.068  13.544  1.00  0.00     0.006 C 
HETATM    7  C12 UNL     1      56.611  34.983  14.544  1.00  0.00    -0.004 C 
HETATM    8  C13 UNL     1      57.796  34.099  14.692  1.00  0.00     0.037 C 
HETATM    9  C14 UNL     1      58.021  33.448  15.996  1.00  0.00     0.118 C 
HETATM   10  C15 UNL     1      57.609  34.261  17.196  1.00  0.00     0.032 C 
HETATM   11  C16 UNL     1      57.206  35.670  16.786  1.00  0.00     0.012 C 
HETATM   12  C17 UNL     1      56.066  35.560  15.804  1.00  0.00    -0.036 C 
HETATM   13  C18 UNL     1      54.989  34.590  16.322  1.00  0.00     0.016 C 
HETATM   14  C19 UNL     1      53.944  38.212  14.103  1.00  0.00     0.051 C 
HETATM   15  C20 UNL     1      54.706  39.439  14.472  1.00  0.00    -0.054 C 
HETATM   16  C21 UNL     1      54.117  40.587  14.207  1.00  0.00    -0.020 C 
HETATM   17  C22 UNL     1      52.769  40.687  13.592  1.00  0.00     0.046 C 
HETATM   18  C23 UNL     1      52.353  39.515  12.784  1.00  0.00     0.039 C 
HETATM   19  C24 UNL     1      52.057  39.894  11.330  1.00  0.00     0.026 C 
HETATM   20  C26 UNL     1      53.384  38.416  12.719  1.00  0.00     0.142 C 
ENDROOT
BRANCH   1  21
HETATM   21  N2  UNL     1      56.433  40.523  15.679  1.00  0.00    -0.413 N 
ATOM     22  H2  UNL     1      56.745  41.306  15.103  1.00  0.00     0.153 HD
BRANCH  21  23
HETATM   23  C5  UNL     1      56.398  40.642  17.084  1.00  0.00     0.116 C 
BRANCH  23  24
HETATM   24  C4  UNL     1      55.734  41.932  17.504  1.00  0.00     0.049 C 
BRANCH  24  25
HETATM   25  C3  UNL     1      54.276  42.013  17.208  1.00  0.00     0.273 C 
BRANCH  25  26
HETATM   26  N1  UNL     1      53.558  40.928  17.897  1.00  0.00     0.080 N 
HETATM   27  C1  UNL     1      52.278  40.721  17.287  1.00  0.00     0.309 C 
HETATM   28  C2  UNL     1      53.405  41.224  19.292  1.00  0.00     0.309 C 
ENDBRANCH  25  26
ENDBRANCH  24  25
ENDBRANCH  23  24
ENDBRANCH  21  23
ENDBRANCH   1  21
BRANCH  20  29
HETATM   29  O3  UNL     1      52.730  37.226  12.344  1.00  0.00    -0.394 OA
ATOM     30  H3  UNL     1      51.802  37.341  12.518  1.00  0.00     0.210 HD
ENDBRANCH  20  29
BRANCH  18  31
HETATM   31  C25 UNL     1      51.090  38.879  13.306  1.00  0.00     0.243 C 
HETATM   32  O2  UNL     1      50.219  38.618  12.491  1.00  0.00    -0.306 OA
ENDBRANCH  18  31
BRANCH   9  33
HETATM   33  O1  UNL     1      57.497  32.141  16.081  1.00  0.00    -0.396 OA
ATOM     34  H1  UNL     1      57.448  31.803  16.967  1.00  0.00     0.210 HD
ENDBRANCH   9  33
TORSDOF 8
ENDMDL
MODEL 3
REMARK VINA RESULT: -7.684546867      1.197      1.782
REMARK  8 active torsions:
REMARK  status: ('A' for Active; 'I' for Inactive)
REMARK    1  A    between atoms: N1_2  and  C3_4 
REMARK    2  A    between atoms: C3_4  and  C4_5 
REMARK    3  A    between atoms: C4_5  and  C5_6 
REMARK    4  A    between atoms: C5_6  and  N2_7 
REMARK    5  A    between atoms: N2_7  and  C6_9 
REMARK    6  A    between atoms: C14_17  and  O1_18 
REMARK    7  A    between atoms: C23_28  and  C25_30 
REMARK    8  A    between atoms: C26_32  and  O3_33 
ROOT
HETATM    1  C6  UNL     1      57.699  38.898  15.115  1.00  0.00     0.106 C 
HETATM    2  C7  UNL     1      57.663  37.706  16.029  1.00  0.00     0.035 C 
HETATM    3  C8  UNL     1      56.450  36.866  15.956  1.00  0.00     0.001 C 
HETATM    4  C9  UNL     1      55.604  37.073  14.714  1.00  0.00     0.001 C 
HETATM    5  C10 UNL     1      56.188  36.499  13.482  1.00  0.00     0.006 C 
HETATM    6  C11 UNL     1      57.230  35.475  13.780  1.00  0.00     0.006 C 
HETATM    7  C12 UNL     1      56.755  34.609  14.932  1.00  0.00    -0.004 C 
HETATM    8  C13 UNL     1      57.603  33.388  14.959  1.00  0.00     0.037 C 
HETATM    9  C14 UNL     1      57.866  32.751  16.263  1.00  0.00     0.118 C 
HETATM   10  C15 UNL     1      57.982  33.700  17.426  1.00  0.00     0.032 C 
HETATM   11  C16 UNL     1      57.974  35.147  16.952  1.00  0.00     0.012 C 
HETATM   12  C17 UNL     1      56.686  35.382  16.204  1.00  0.00    -0.036 C 
HETATM   13  C18 UNL     1      55.483  34.845  16.999  1.00  0.00     0.016 C 
HETATM   14  C19 UNL     1      55.221  38.520  14.640  1.00  0.00     0.051 C 
HETATM   15  C20 UNL     1      56.391  39.438  14.742  1.00  0.00    -0.054 C 
HETATM   16  C21 UNL     1      56.156  40.705  14.469  1.00  0.00    -0.020 C 
HETATM   17  C22 UNL     1      54.816  41.222  14.094  1.00  0.00     0.046 C 
HETATM   18  C23 UNL     1      53.896  40.224  13.496  1.00  0.00     0.039 C 
HETATM   19  C24 UNL     1      53.452  40.623  12.086  1.00  0.00     0.026 C 
HETATM   20  C26 UNL     1      54.490  38.844  13.364  1.00  0.00     0.142 C 
ENDROOT
BRANCH   1  21
HETATM   21  N2  UNL     1      58.577  39.935  15.508  1.00  0.00    -0.413 N 
ATOM     22  H2  UNL     1      58.231  40.887  15.630  1.00  0.00     0.153 HD
BRANCH  21  23
HETATM   23  C5  UNL     1      59.939  39.637  15.731  1.00  0.00     0.116 C 
BRANCH  23  24
HETATM   24  C4  UNL     1      60.247  39.579  17.208  1.00  0.00     0.049 C 
BRANCH  24  25
HETATM   25  C3  UNL     1      59.794  40.764  17.991  1.00  0.00     0.273 C 
BRANCH  25  26
HETATM   26  N1  UNL     1      58.857  40.346  19.047  1.00  0.00     0.080 N 
HETATM   27  C1  UNL     1      58.812  38.915  19.124  1.00  0.00     0.309 C 
HETATM   28  C2  UNL     1      57.547  40.875  18.805  1.00  0.00     0.309 C 
ENDBRANCH  25  26
ENDBRANCH  24  25
ENDBRANCH  23  24
ENDBRANCH  21  23
ENDBRANCH   1  21
BRANCH  20  29
HETATM   29  O3  UNL     1      53.430  37.925  13.233  1.00  0.00    -0.394 OA
ATOM     30  H3  UNL     1      53.811  37.062  13.115  1.00  0.00     0.210 HD
ENDBRANCH  20  29
BRANCH  18  31
HETATM   31  C25 UNL     1      52.628  40.064  14.295  1.00  0.00     0.243 C 
HETATM   32  O2  UNL     1      51.573  40.123  13.684  1.00  0.00    -0.306 OA
ENDBRANCH  18  31
BRANCH   9  33
HETATM   33  O1  UNL     1      56.982  31.696  16.572  1.00  0.00    -0.396 OA
ATOM     34  H1  UNL     1      57.170  30.888  16.110  1.00  0.00     0.210 HD
ENDBRANCH   9  33
TORSDOF 8
ENDMDL
MODEL 4
REMARK VINA RESULT: -7.657968136      2.953      5.407
REMARK  8 active torsions:
REMARK  status: ('A' for Active; 'I' for Inactive)
REMARK    1  A    between atoms: N1_2  and  C3_4 
REMARK    2  A    between atoms: C3_4  and  C4_5 
REMARK    3  A    between atoms: C4_5  and  C5_6 
REMARK    4  A    between atoms: C5_6  and  N2_7 
REMARK    5  A    between atoms: N2_7  and  C6_9 
REMARK    6  A    between atoms: C14_17  and  O1_18 
REMARK    7  A    between atoms: C23_28  and  C25_30 
REMARK    8  A    between atoms: C26_32  and  O3_33 
ROOT
HETATM    1  C6  UNL     1      55.489  37.289  15.739  1.00  0.00     0.106 C 
HETATM    2  C7  UNL     1      56.881  37.446  16.282  1.00  0.00     0.035 C 
HETATM    3  C8  UNL     1      57.658  38.587  15.761  1.00  0.00     0.001 C 
HETATM    4  C9  UNL     1      56.835  39.661  15.075  1.00  0.00     0.001 C 
HETATM    5  C10 UNL     1      56.045  40.502  16.002  1.00  0.00     0.006 C 
HETATM    6  C11 UNL     1      56.553  40.423  17.402  1.00  0.00     0.006 C 
HETATM    7  C12 UNL     1      58.071  40.445  17.378  1.00  0.00    -0.004 C 
HETATM    8  C13 UNL     1      58.539  40.750  18.756  1.00  0.00     0.037 C 
HETATM    9  C14 UNL     1      59.826  40.180  19.196  1.00  0.00     0.118 C 
HETATM   10  C15 UNL     1      60.144  38.816  18.643  1.00  0.00     0.032 C 
HETATM   11  C16 UNL     1      58.957  38.249  17.876  1.00  0.00     0.012 C 
HETATM   12  C17 UNL     1      58.626  39.209  16.760  1.00  0.00    -0.036 C 
HETATM   13  C18 UNL     1      59.895  39.614  15.990  1.00  0.00     0.016 C 
HETATM   14  C19 UNL     1      56.066  39.024  13.959  1.00  0.00     0.051 C 
HETATM   15  C20 UNL     1      55.277  37.837  14.398  1.00  0.00    -0.054 C 
HETATM   16  C21 UNL     1      54.413  37.362  13.524  1.00  0.00    -0.020 C 
HETATM   17  C22 UNL     1      54.224  37.940  12.170  1.00  0.00     0.046 C 
HETATM   18  C23 UNL     1      54.603  39.368  12.032  1.00  0.00     0.039 C 
HETATM   19  C24 UNL     1      53.424  40.236  11.587  1.00  0.00     0.026 C 
HETATM   20  C26 UNL     1      55.115  39.992  13.306  1.00  0.00     0.142 C 
ENDROOT
BRANCH   1  21
HETATM   21  N2  UNL     1      54.942  35.988  15.842  1.00  0.00    -0.413 N 
ATOM     22  H2  UNL     1      54.019  35.784  15.456  1.00  0.00     0.153 HD
BRANCH  21  23
HETATM   23  C5  UNL     1      55.687  34.977  16.484  1.00  0.00     0.116 C 
BRANCH  23  24
HETATM   24  C4  UNL     1      56.126  33.918  15.501  1.00  0.00     0.049 C 
BRANCH  24  25
HETATM   25  C3  UNL     1      57.602  33.766  15.360  1.00  0.00     0.273 C 
BRANCH  25  26
HETATM   26  N1  UNL     1      58.032  34.205  14.022  1.00  0.00     0.080 N 
HETATM   27  C1  UNL     1      58.833  35.390  14.129  1.00  0.00     0.309 C 
HETATM   28  C2  UNL     1      56.900  34.443  13.175  1.00  0.00     0.309 C 
ENDBRANCH  25  26
ENDBRANCH  24  25
ENDBRANCH  23  24
ENDBRANCH  21  23
ENDBRANCH   1  21
BRANCH  20  29
HETATM   29  O3  UNL     1      55.849  41.145  12.961  1.00  0.00    -0.394 OA
ATOM     30  H3  UNL     1      55.235  41.867  12.891  1.00  0.00     0.210 HD
ENDBRANCH  20  29
BRANCH  18  31
HETATM   31  C25 UNL     1      55.679  39.576  10.997  1.00  0.00     0.243 C 
HETATM   32  O2  UNL     1      55.512  40.479  10.194  1.00  0.00    -0.306 OA
ENDBRANCH  18  31
BRANCH   9  33
HETATM   33  O1  UNL     1      60.924  41.050  19.027  1.00  0.00    -0.396 OA
ATOM     34  H1  UNL     1      60.842  41.870  19.499  1.00  0.00     0.210 HD
ENDBRANCH   9  33
TORSDOF 8
ENDMDL
MODEL 5
REMARK VINA RESULT: -7.572027196      1.563      2.486
REMARK  8 active torsions:
REMARK  status: ('A' for Active; 'I' for Inactive)
REMARK    1  A    between atoms: N1_2  and  C3_4 
REMARK    2  A    between atoms: C3_4  and  C4_5 
REMARK    3  A    between atoms: C4_5  and  C5_6 
REMARK    4  A    between atoms: C5_6  and  N2_7 
REMARK    5  A    between atoms: N2_7  and  C6_9 
REMARK    6  A    between atoms: C14_17  and  O1_18 
REMARK    7  A    between atoms: C23_28  and  C25_30 
REMARK    8  A    between atoms: C26_32  and  O3_33 
ROOT
HETATM    1  C6  UNL     1      55.828  39.355  15.048  1.00  0.00     0.106 C 
HETATM    2  C7  UNL     1      56.111  38.130  15.872  1.00  0.00     0.035 C 
HETATM    3  C8  UNL     1      55.298  36.937  15.563  1.00  0.00     0.001 C 
HETATM    4  C9  UNL     1      54.592  36.974  14.221  1.00  0.00     0.001 C 
HETATM    5  C10 UNL     1      55.488  36.779  13.061  1.00  0.00     0.006 C 
HETATM    6  C11 UNL     1      56.784  36.152  13.452  1.00  0.00     0.006 C 
HETATM    7  C12 UNL     1      56.515  35.053  14.464  1.00  0.00    -0.004 C 
HETATM    8  C13 UNL     1      57.734  34.207  14.546  1.00  0.00     0.037 C 
HETATM    9  C14 UNL     1      58.047  33.559  15.834  1.00  0.00     0.118 C 
HETATM   10  C15 UNL     1      57.672  34.355  17.057  1.00  0.00     0.032 C 
HETATM   11  C16 UNL     1      57.204  35.752  16.675  1.00  0.00     0.012 C 
HETATM   12  C17 UNL     1      56.018  35.608  15.754  1.00  0.00    -0.036 C 
HETATM   13  C18 UNL     1      55.001  34.603  16.322  1.00  0.00     0.016 C 
HETATM   14  C19 UNL     1      53.727  38.197  14.177  1.00  0.00     0.051 C 
HETATM   15  C20 UNL     1      54.468  39.446  14.512  1.00  0.00    -0.054 C 
HETATM   16  C21 UNL     1      53.830  40.576  14.284  1.00  0.00    -0.020 C 
HETATM   17  C22 UNL     1      52.450  40.635  13.741  1.00  0.00     0.046 C 
HETATM   18  C23 UNL     1      52.030  39.452  12.949  1.00  0.00     0.039 C 
HETATM   19  C24 UNL     1      51.647  39.827  11.515  1.00  0.00     0.026 C 
HETATM   20  C26 UNL     1      53.090  38.388  12.826  1.00  0.00     0.142 C 
ENDROOT
BRANCH   1  21
HETATM   21  N2  UNL     1      56.221  40.581  15.634  1.00  0.00    -0.413 N 
ATOM     22  H2  UNL     1      56.606  41.330  15.056  1.00  0.00     0.153 HD
BRANCH  21  23
HETATM   23  C5  UNL     1      56.075  40.758  17.026  1.00  0.00     0.116 C 
BRANCH  23  24
HETATM   24  C4  UNL     1      55.768  42.199  17.360  1.00  0.00     0.049 C 
BRANCH  24  25
HETATM   25  C3  UNL     1      54.721  42.831  16.509  1.00  0.00     0.273 C 
BRANCH  25  26
HETATM   26  N1  UNL     1      55.248  44.056  15.883  1.00  0.00     0.080 N 
HETATM   27  C1  UNL     1      54.408  45.172  16.206  1.00  0.00     0.309 C 
HETATM   28  C2  UNL     1      55.347  43.900  14.461  1.00  0.00     0.309 C 
ENDBRANCH  25  26
ENDBRANCH  24  25
ENDBRANCH  23  24
ENDBRANCH  21  23
ENDBRANCH   1  21
BRANCH  20  29
HETATM   29  O3  UNL     1      52.455  37.179  12.479  1.00  0.00    -0.394 OA
ATOM     30  H3  UNL     1      51.531  37.271  12.682  1.00  0.00     0.210 HD
ENDBRANCH  20  29
BRANCH  18  31
HETATM   31  C25 UNL     1      50.816  38.776  13.533  1.00  0.00     0.243 C 
HETATM   32  O2  UNL     1      49.945  38.425  12.754  1.00  0.00    -0.306 OA
ENDBRANCH  18  31
BRANCH   9  33
HETATM   33  O1  UNL     1      57.569  32.236  15.939  1.00  0.00    -0.396 OA
ATOM     34  H1  UNL     1      56.856  32.133  16.558  1.00  0.00     0.210 HD
ENDBRANCH   9  33
TORSDOF 8
ENDMDL
