MODEL 1
REMARK VINA RESULT: -8.662993839      0.000      0.000
REMARK  9 active torsions:
REMARK  status: ('A' for Active; 'I' for Inactive)
REMARK    1  A    between atoms: N1_1  and  C1_5 
REMARK    2  A    between atoms: C4_8  and  S1_9 
REMARK    3  A    between atoms: S1_9  and  C5_12 
REMARK    4  A    between atoms: C9_16  and  N2_17 
REMARK    5  A    between atoms: N2_17  and  S2_19 
REMARK    6  A    between atoms: S2_19  and  C10_22 
REMARK    7  A    between atoms: C10_22  and  C11_23 
REMARK    8  A    between atoms: C11_23  and  C12_24 
REMARK       I    between atoms: N3_27  and  C15_28 
REMARK    9  A    between atoms: C15_28  and  C16_30 
ROOT
HETATM    1  S2  UNL     1       6.176   9.755  18.924  1.00  0.00     0.227 S 
HETATM    2  O3  UNL     1       5.168  10.599  18.151  1.00  0.00    -0.206 OA
HETATM    3  O4  UNL     1       7.222   9.351  17.914  1.00  0.00    -0.206 OA
ENDROOT
BRANCH   1   4
HETATM    4  N2  UNL     1       6.860  10.611  20.215  1.00  0.00    -0.313 N 
ATOM      5  H2  UNL     1       6.812  11.627  20.285  1.00  0.00     0.172 HD
BRANCH   4   6
HETATM    6  C9  UNL     1       7.521   9.792  21.218  1.00  0.00     0.124 C 
HETATM    7  C1  UNL     1       8.983   9.853  20.941  1.00  0.00     0.206 C 
HETATM    8  C2  UNL     1       9.878   9.838  22.123  1.00  0.00     0.036 C 
HETATM    9  C3  UNL     1       9.382  10.646  23.296  1.00  0.00     0.022 C 
HETATM   10  C4  UNL     1       8.027  10.122  23.671  1.00  0.00     0.111 C 
HETATM   11  C8  UNL     1       7.048  10.120  22.558  1.00  0.00     0.048 C 
BRANCH   7  12
HETATM   12  N1  UNL     1       9.416   8.776  20.055  1.00  0.00    -0.073 N 
ATOM     13  H13 UNL     1      10.324   8.955  19.624  1.00  0.00     0.274 HD
ATOM     14  H12 UNL     1       9.672   7.926  20.556  1.00  0.00     0.274 HD
ATOM     15  H11 UNL     1       8.673   8.629  19.371  1.00  0.00     0.274 HD
ENDBRANCH   7  12
BRANCH  10  16
HETATM   16  S1  UNL     1       8.140   8.531  24.489  1.00  0.00     0.152 S 
HETATM   17  O1  UNL     1       6.786   8.284  25.122  1.00  0.00    -0.227 OA
HETATM   18  O2  UNL     1       8.411   7.421  23.561  1.00  0.00    -0.227 OA
BRANCH  16  19
HETATM   19  C5  UNL     1       9.310   8.661  25.816  1.00  0.00     0.109 A 
HETATM   20  C6  UNL     1      10.699   8.217  25.674  1.00  0.00     0.021 A 
HETATM   21  C7  UNL     1       9.724   7.321  26.416  1.00  0.00     0.021 A 
ENDBRANCH  16  19
ENDBRANCH  10  16
ENDBRANCH   4   6
ENDBRANCH   1   4
BRANCH   1  22
HETATM   22  C10 UNL     1       5.366   8.293  19.487  1.00  0.00     0.163 C 
BRANCH  22  23
HETATM   23  C11 UNL     1       6.226   7.091  19.288  1.00  0.00     0.023 C 
BRANCH  23  24
HETATM   24  C12 UNL     1       6.395   6.293  20.576  1.00  0.00     0.006 C 
HETATM   25  C13 UNL     1       5.104   5.725  21.062  1.00  0.00     0.026 C 
HETATM   26  C14 UNL     1       5.283   4.245  21.005  1.00  0.00     0.126 C 
HETATM   27  N3  UNL     1       6.553   3.998  20.371  1.00  0.00    -0.351 N 
HETATM   28  C15 UNL     1       6.972   2.785  19.738  1.00  0.00     0.224 C 
HETATM   29  C22 UNL     1       7.378   5.179  20.465  1.00  0.00     0.130 C 
HETATM   30  O5  UNL     1       6.173   1.826  19.712  1.00  0.00    -0.273 OA
BRANCH  28  31
HETATM   31  C16 UNL     1       8.331   2.663  19.120  1.00  0.00     0.078 C 
HETATM   32  C17 UNL     1       8.707   1.205  18.951  1.00  0.00     0.020 C 
HETATM   33  C18 UNL     1       9.277   0.958  17.565  1.00  0.00     0.080 C 
HETATM   34  C19 UNL     1       8.227   1.277  16.514  1.00  0.00     0.243 C 
HETATM   35  F1  UNL     1       7.231   0.311  16.602  1.00  0.00    -0.206 F 
HETATM   36  F2  UNL     1       8.841   1.182  15.279  1.00  0.00    -0.206 F 
HETATM   37  C20 UNL     1       7.679   2.666  16.701  1.00  0.00     0.080 C 
HETATM   38  C21 UNL     1       8.363   3.414  17.829  1.00  0.00     0.020 C 
ENDBRANCH  28  31
ENDBRANCH  23  24
ENDBRANCH  22  23
ENDBRANCH   1  22
TORSDOF 9
ENDMDL
MODEL 2
REMARK VINA RESULT: -8.600979490      1.541      1.880
REMARK  9 active torsions:
REMARK  status: ('A' for Active; 'I' for Inactive)
REMARK    1  A    between atoms: N1_1  and  C1_5 
REMARK    2  A    between atoms: C4_8  and  S1_9 
REMARK    3  A    between atoms: S1_9  and  C5_12 
REMARK    4  A    between atoms: C9_16  and  N2_17 
REMARK    5  A    between atoms: N2_17  and  S2_19 
REMARK    6  A    between atoms: S2_19  and  C10_22 
REMARK    7  A    between atoms: C10_22  and  C11_23 
REMARK    8  A    between atoms: C11_23  and  C12_24 
REMARK       I    between atoms: N3_27  and  C15_28 
REMARK    9  A    between atoms: C15_28  and  C16_30 
ROOT
HETATM    1  S2  UNL     1       5.648   8.615  19.468  1.00  0.00     0.227 S 
HETATM    2  O3  UNL     1       5.228   9.092  18.083  1.00  0.00    -0.206 OA
HETATM    3  O4  UNL     1       6.429   7.344  19.237  1.00  0.00    -0.206 OA
ENDROOT
BRANCH   1   4
HETATM    4  N2  UNL     1       6.577   9.773  20.282  1.00  0.00    -0.313 N 
ATOM      5  H2  UNL     1       6.536  10.767  20.054  1.00  0.00     0.172 HD
BRANCH   4   6
HETATM    6  C9  UNL     1       7.439   9.250  21.329  1.00  0.00     0.124 C 
HETATM    7  C1  UNL     1       8.845   9.491  20.904  1.00  0.00     0.206 C 
HETATM    8  C2  UNL     1       9.812   9.817  21.980  1.00  0.00     0.036 C 
HETATM    9  C3  UNL     1       9.271  10.724  23.056  1.00  0.00     0.022 C 
HETATM   10  C4  UNL     1       8.055  10.065  23.640  1.00  0.00     0.111 C 
HETATM   11  C8  UNL     1       7.014   9.722  22.642  1.00  0.00     0.048 C 
BRANCH   7  12
HETATM   12  N1  UNL     1       9.391   8.362  20.156  1.00  0.00    -0.073 N 
ATOM     13  H13 UNL     1      10.407   8.291  20.226  1.00  0.00     0.274 HD
ATOM     14  H12 UNL     1       9.166   7.461  20.576  1.00  0.00     0.274 HD
ATOM     15  H11 UNL     1       9.063   8.447  19.194  1.00  0.00     0.274 HD
ENDBRANCH   7  12
BRANCH  10  16
HETATM   16  S1  UNL     1       8.497   8.673  24.679  1.00  0.00     0.152 S 
HETATM   17  O1  UNL     1       7.446   8.609  25.768  1.00  0.00    -0.227 OA
HETATM   18  O2  UNL     1       8.481   7.387  23.962  1.00  0.00    -0.227 OA
BRANCH  16  19
HETATM   19  C5  UNL     1      10.040   9.033  25.477  1.00  0.00     0.109 A 
HETATM   20  C6  UNL     1      11.271   8.305  25.154  1.00  0.00     0.021 A 
HETATM   21  C7  UNL     1      10.523   7.937  26.423  1.00  0.00     0.021 A 
ENDBRANCH  16  19
ENDBRANCH  10  16
ENDBRANCH   4   6
ENDBRANCH   1   4
BRANCH   1  22
HETATM   22  C10 UNL     1       4.197   8.206  20.382  1.00  0.00     0.163 C 
BRANCH  22  23
HETATM   23  C11 UNL     1       4.412   6.991  21.219  1.00  0.00     0.023 C 
BRANCH  23  24
HETATM   24  C12 UNL     1       3.555   5.818  20.753  1.00  0.00     0.006 C 
HETATM   25  C13 UNL     1       2.895   6.089  19.442  1.00  0.00     0.026 C 
HETATM   26  C14 UNL     1       3.462   5.077  18.504  1.00  0.00     0.126 C 
HETATM   27  N3  UNL     1       4.501   4.377  19.216  1.00  0.00    -0.351 N 
HETATM   28  C15 UNL     1       5.577   3.628  18.642  1.00  0.00     0.224 C 
HETATM   29  C22 UNL     1       4.305   4.537  20.638  1.00  0.00     0.130 C 
HETATM   30  O5  UNL     1       5.650   3.560  17.397  1.00  0.00    -0.273 OA
BRANCH  28  31
HETATM   31  C16 UNL     1       6.591   2.942  19.505  1.00  0.00     0.078 C 
HETATM   32  C17 UNL     1       6.936   1.582  18.936  1.00  0.00     0.020 C 
HETATM   33  C18 UNL     1       8.441   1.372  18.928  1.00  0.00     0.080 C 
HETATM   34  C19 UNL     1       9.098   2.413  18.037  1.00  0.00     0.243 C 
HETATM   35  F1  UNL     1       8.752   2.126  16.722  1.00  0.00    -0.206 F 
HETATM   36  F2  UNL     1      10.465   2.274  18.185  1.00  0.00    -0.206 F 
HETATM   37  C20 UNL     1       8.685   3.804  18.434  1.00  0.00     0.080 C 
HETATM   38  C21 UNL     1       7.791   3.818  19.659  1.00  0.00     0.020 C 
ENDBRANCH  28  31
ENDBRANCH  23  24
ENDBRANCH  22  23
ENDBRANCH   1  22
TORSDOF 9
ENDMDL
MODEL 3
REMARK VINA RESULT: -8.421232910      1.265      1.533
REMARK  9 active torsions:
REMARK  status: ('A' for Active; 'I' for Inactive)
REMARK    1  A    between atoms: N1_1  and  C1_5 
REMARK    2  A    between atoms: C4_8  and  S1_9 
REMARK    3  A    between atoms: S1_9  and  C5_12 
REMARK    4  A    between atoms: C9_16  and  N2_17 
REMARK    5  A    between atoms: N2_17  and  S2_19 
REMARK    6  A    between atoms: S2_19  and  C10_22 
REMARK    7  A    between atoms: C10_22  and  C11_23 
REMARK    8  A    between atoms: C11_23  and  C12_24 
REMARK       I    between atoms: N3_27  and  C15_28 
REMARK    9  A    between atoms: C15_28  and  C16_30 
ROOT
HETATM    1  S2  UNL     1       5.623   7.775  19.000  1.00  0.00     0.227 S 
HETATM    2  O3  UNL     1       4.189   7.894  18.499  1.00  0.00    -0.206 OA
HETATM    3  O4  UNL     1       6.468   7.581  17.764  1.00  0.00    -0.206 OA
ENDROOT
BRANCH   1   4
HETATM    4  N2  UNL     1       6.106   9.144  19.872  1.00  0.00    -0.313 N 
ATOM      5  H2  UNL     1       5.742  10.076  19.672  1.00  0.00     0.172 HD
BRANCH   4   6
HETATM    6  C9  UNL     1       7.077   8.896  20.925  1.00  0.00     0.124 C 
HETATM    7  C1  UNL     1       8.416   9.253  20.381  1.00  0.00     0.206 C 
HETATM    8  C2  UNL     1       9.376   9.856  21.337  1.00  0.00     0.036 C 
HETATM    9  C3  UNL     1       8.764  10.833  22.308  1.00  0.00     0.022 C 
HETATM   10  C4  UNL     1       7.678  10.115  23.055  1.00  0.00     0.111 C 
HETATM   11  C8  UNL     1       6.650   9.497  22.184  1.00  0.00     0.048 C 
BRANCH   7  12
HETATM   12  N1  UNL     1       9.078   8.107  19.765  1.00  0.00    -0.073 N 
ATOM     13  H13 UNL     1       9.583   8.348  18.912  1.00  0.00     0.274 HD
ATOM     14  H12 UNL     1       9.879   7.773  20.302  1.00  0.00     0.274 HD
ATOM     15  H11 UNL     1       8.369   7.388  19.619  1.00  0.00     0.274 HD
ENDBRANCH   7  12
BRANCH  10  16
HETATM   16  S1  UNL     1       8.352   8.960  24.247  1.00  0.00     0.152 S 
HETATM   17  O1  UNL     1       7.452   9.035  25.464  1.00  0.00    -0.227 OA
HETATM   18  O2  UNL     1       8.349   7.567  23.771  1.00  0.00    -0.227 OA
BRANCH  16  19
HETATM   19  C5  UNL     1       9.949   9.543  24.756  1.00  0.00     0.109 A 
HETATM   20  C6  UNL     1      11.170   8.766  24.526  1.00  0.00     0.021 A 
HETATM   21  C7  UNL     1      10.558   8.760  25.916  1.00  0.00     0.021 A 
ENDBRANCH  16  19
ENDBRANCH  10  16
ENDBRANCH   4   6
ENDBRANCH   1   4
BRANCH   1  22
HETATM   22  C10 UNL     1       5.753   6.316  19.984  1.00  0.00     0.163 C 
BRANCH  22  23
HETATM   23  C11 UNL     1       4.495   6.064  20.741  1.00  0.00     0.023 C 
BRANCH  23  24
HETATM   24  C12 UNL     1       4.477   4.674  21.370  1.00  0.00     0.006 C 
HETATM   25  C13 UNL     1       3.263   3.897  20.985  1.00  0.00     0.026 C 
HETATM   26  C14 UNL     1       3.777   2.725  20.219  1.00  0.00     0.126 C 
HETATM   27  N3  UNL     1       5.194   2.920  20.049  1.00  0.00    -0.351 N 
HETATM   28  C15 UNL     1       6.032   2.304  19.065  1.00  0.00     0.224 C 
HETATM   29  C22 UNL     1       5.675   3.853  21.041  1.00  0.00     0.130 C 
HETATM   30  O5  UNL     1       5.506   1.514  18.254  1.00  0.00    -0.273 OA
BRANCH  28  31
HETATM   31  C16 UNL     1       7.500   2.596  19.006  1.00  0.00     0.078 C 
HETATM   32  C17 UNL     1       8.299   1.315  19.133  1.00  0.00     0.020 C 
HETATM   33  C18 UNL     1       9.398   1.265  18.086  1.00  0.00     0.080 C 
HETATM   34  C19 UNL     1       8.784   1.276  16.697  1.00  0.00     0.243 C 
HETATM   35  F1  UNL     1       8.139   0.060  16.507  1.00  0.00    -0.206 F 
HETATM   36  F2  UNL     1       9.822   1.383  15.790  1.00  0.00    -0.206 F 
HETATM   37  C20 UNL     1       7.844   2.440  16.530  1.00  0.00     0.080 C 
HETATM   38  C21 UNL     1       7.812   3.340  17.749  1.00  0.00     0.020 C 
ENDBRANCH  28  31
ENDBRANCH  23  24
ENDBRANCH  22  23
ENDBRANCH   1  22
TORSDOF 9
ENDMDL
MODEL 4
REMARK VINA RESULT: -8.373788382      1.685      2.072
REMARK  9 active torsions:
REMARK  status: ('A' for Active; 'I' for Inactive)
REMARK    1  A    between atoms: N1_1  and  C1_5 
REMARK    2  A    between atoms: C4_8  and  S1_9 
REMARK    3  A    between atoms: S1_9  and  C5_12 
REMARK    4  A    between atoms: C9_16  and  N2_17 
REMARK    5  A    between atoms: N2_17  and  S2_19 
REMARK    6  A    between atoms: S2_19  and  C10_22 
REMARK    7  A    between atoms: C10_22  and  C11_23 
REMARK    8  A    between atoms: C11_23  and  C12_24 
REMARK       I    between atoms: N3_27  and  C15_28 
REMARK    9  A    between atoms: C15_28  and  C16_30 
ROOT
HETATM    1  S2  UNL     1       6.196   8.873  18.486  1.00  0.00     0.227 S 
HETATM    2  O3  UNL     1       6.636   9.436  17.140  1.00  0.00    -0.206 OA
HETATM    3  O4  UNL     1       6.914   7.553  18.625  1.00  0.00    -0.206 OA
ENDROOT
BRANCH   1   4
HETATM    4  N2  UNL     1       6.571   9.919  19.764  1.00  0.00    -0.313 N 
ATOM      5  H2  UNL     1       6.298  10.902  19.764  1.00  0.00     0.172 HD
BRANCH   4   6
HETATM    6  C9  UNL     1       7.311   9.316  20.860  1.00  0.00     0.124 C 
HETATM    7  C1  UNL     1       8.752   9.620  20.639  1.00  0.00     0.206 C 
HETATM    8  C2  UNL     1       9.568   9.862  21.852  1.00  0.00     0.036 C 
HETATM    9  C3  UNL     1       8.872  10.655  22.928  1.00  0.00     0.022 C 
HETATM   10  C4  UNL     1       7.613   9.925  23.294  1.00  0.00     0.111 C 
HETATM   11  C8  UNL     1       6.714   9.658  22.146  1.00  0.00     0.048 C 
BRANCH   7  12
HETATM   12  N1  UNL     1       9.418   8.574  19.868  1.00  0.00    -0.073 N 
ATOM     13  H13 UNL     1      10.410   8.487  20.088  1.00  0.00     0.274 HD
ATOM     14  H12 UNL     1       9.138   7.634  20.146  1.00  0.00     0.274 HD
ATOM     15  H11 UNL     1       9.244   8.767  18.881  1.00  0.00     0.274 HD
ENDBRANCH   7  12
BRANCH  10  16
HETATM   16  S1  UNL     1       7.962   8.451  24.251  1.00  0.00     0.152 S 
HETATM   17  O1  UNL     1       6.703   8.150  25.038  1.00  0.00    -0.227 OA
HETATM   18  O2  UNL     1       8.262   7.276  23.417  1.00  0.00    -0.227 OA
BRANCH  16  19
HETATM   19  C5  UNL     1       9.226   8.834  25.435  1.00  0.00     0.109 A 
HETATM   20  C6  UNL     1      10.603   8.353  25.287  1.00  0.00     0.021 A 
HETATM   21  C7  UNL     1       9.687   7.639  26.264  1.00  0.00     0.021 A 
ENDBRANCH  16  19
ENDBRANCH  10  16
ENDBRANCH   4   6
ENDBRANCH   1   4
BRANCH   1  22
HETATM   22  C10 UNL     1       4.464   8.548  18.417  1.00  0.00     0.163 C 
BRANCH  22  23
HETATM   23  C11 UNL     1       4.042   7.642  19.523  1.00  0.00     0.023 C 
BRANCH  23  24
HETATM   24  C12 UNL     1       3.497   6.317  18.997  1.00  0.00     0.006 C 
HETATM   25  C13 UNL     1       3.215   6.365  17.533  1.00  0.00     0.026 C 
HETATM   26  C14 UNL     1       4.140   5.366  16.925  1.00  0.00     0.126 C 
HETATM   27  N3  UNL     1       5.006   4.897  17.977  1.00  0.00    -0.351 N 
HETATM   28  C15 UNL     1       6.281   4.266  17.820  1.00  0.00     0.224 C 
HETATM   29  C22 UNL     1       4.392   5.156  19.259  1.00  0.00     0.130 C 
HETATM   30  O5  UNL     1       6.715   4.095  16.662  1.00  0.00    -0.273 OA
BRANCH  28  31
HETATM   31  C16 UNL     1       7.076   3.820  19.008  1.00  0.00     0.078 C 
HETATM   32  C17 UNL     1       6.596   2.467  19.489  1.00  0.00     0.020 C 
HETATM   33  C18 UNL     1       7.773   1.544  19.753  1.00  0.00     0.080 C 
HETATM   34  C19 UNL     1       8.545   1.316  18.464  1.00  0.00     0.243 C 
HETATM   35  F1  UNL     1       7.749   0.548  17.623  1.00  0.00    -0.206 F 
HETATM   36  F2  UNL     1       9.682   0.601  18.788  1.00  0.00    -0.206 F 
HETATM   37  C20 UNL     1       8.933   2.624  17.827  1.00  0.00     0.080 C 
HETATM   38  C21 UNL     1       8.530   3.821  18.666  1.00  0.00     0.020 C 
ENDBRANCH  28  31
ENDBRANCH  23  24
ENDBRANCH  22  23
ENDBRANCH   1  22
TORSDOF 9
ENDMDL
MODEL 5
REMARK VINA RESULT: -8.287469775      2.582      4.309
REMARK  9 active torsions:
REMARK  status: ('A' for Active; 'I' for Inactive)
REMARK    1  A    between atoms: N1_1  and  C1_5 
REMARK    2  A    between atoms: C4_8  and  S1_9 
REMARK    3  A    between atoms: S1_9  and  C5_12 
REMARK    4  A    between atoms: C9_16  and  N2_17 
REMARK    5  A    between atoms: N2_17  and  S2_19 
REMARK    6  A    between atoms: S2_19  and  C10_22 
REMARK    7  A    between atoms: C10_22  and  C11_23 
REMARK    8  A    between atoms: C11_23  and  C12_24 
REMARK       I    between atoms: N3_27  and  C15_28 
REMARK    9  A    between atoms: C15_28  and  C16_30 
ROOT
HETATM    1  S2  UNL     1       4.157   6.207  22.989  1.00  0.00     0.227 S 
HETATM    2  O3  UNL     1       3.790   4.826  23.518  1.00  0.00    -0.206 OA
HETATM    3  O4  UNL     1       3.223   7.167  23.684  1.00  0.00    -0.206 OA
ENDROOT
BRANCH   1   4
HETATM    4  N2  UNL     1       5.779   6.591  23.291  1.00  0.00    -0.313 N 
ATOM      5  H2  UNL     1       6.353   6.062  23.947  1.00  0.00     0.172 HD
BRANCH   4   6
HETATM    6  C9  UNL     1       6.293   7.730  22.547  1.00  0.00     0.124 C 
HETATM    7  C1  UNL     1       6.355   8.880  23.492  1.00  0.00     0.206 C 
HETATM    8  C2  UNL     1       7.486   9.821  23.309  1.00  0.00     0.036 C 
HETATM    9  C3  UNL     1       8.798   9.165  22.962  1.00  0.00     0.022 C 
HETATM   10  C4  UNL     1       8.591   8.363  21.711  1.00  0.00     0.111 C 
HETATM   11  C8  UNL     1       7.494   7.370  21.802  1.00  0.00     0.048 C 
BRANCH   7  12
HETATM   12  N1  UNL     1       5.126   9.668  23.474  1.00  0.00    -0.073 N 
ATOM     13  H13 UNL     1       4.341   9.194  23.921  1.00  0.00     0.274 HD
ATOM     14  H12 UNL     1       5.163  10.477  24.094  1.00  0.00     0.274 HD
ATOM     15  H11 UNL     1       4.940   9.918  22.503  1.00  0.00     0.274 HD
ENDBRANCH   7  12
BRANCH  10  16
HETATM   16  S1  UNL     1       8.446   9.417  20.270  1.00  0.00     0.152 S 
HETATM   17  O1  UNL     1       9.249  10.664  20.576  1.00  0.00    -0.227 OA
HETATM   18  O2  UNL     1       9.003   8.811  19.050  1.00  0.00    -0.227 OA
BRANCH  16  19
HETATM   19  C5  UNL     1       6.753   9.925  20.111  1.00  0.00     0.109 A 
HETATM   20  C6  UNL     1       6.089  10.021  18.809  1.00  0.00     0.021 A 
HETATM   21  C7  UNL     1       6.572  11.299  19.473  1.00  0.00     0.021 A 
ENDBRANCH  16  19
ENDBRANCH  10  16
ENDBRANCH   4   6
ENDBRANCH   1   4
BRANCH   1  22
HETATM   22  C10 UNL     1       3.803   6.256  21.262  1.00  0.00     0.163 C 
BRANCH  22  23
HETATM   23  C11 UNL     1       4.303   5.032  20.574  1.00  0.00     0.023 C 
BRANCH  23  24
HETATM   24  C12 UNL     1       4.697   5.312  19.127  1.00  0.00     0.006 C 
HETATM   25  C13 UNL     1       5.632   6.468  19.012  1.00  0.00     0.026 C 
HETATM   26  C14 UNL     1       6.894   5.896  18.459  1.00  0.00     0.126 C 
HETATM   27  N3  UNL     1       6.725   4.466  18.415  1.00  0.00    -0.351 N 
HETATM   28  C15 UNL     1       7.763   3.482  18.353  1.00  0.00     0.224 C 
HETATM   29  C22 UNL     1       5.317   4.145  18.440  1.00  0.00     0.130 C 
HETATM   30  O5  UNL     1       8.948   3.876  18.340  1.00  0.00    -0.273 OA
BRANCH  28  31
HETATM   31  C16 UNL     1       7.443   2.020  18.307  1.00  0.00     0.078 C 
HETATM   32  C17 UNL     1       7.121   1.594  16.889  1.00  0.00     0.020 C 
HETATM   33  C18 UNL     1       7.851   0.310  16.538  1.00  0.00     0.080 C 
HETATM   34  C19 UNL     1       9.352   0.537  16.610  1.00  0.00     0.243 C 
HETATM   35  F1  UNL     1       9.705   1.375  15.559  1.00  0.00    -0.206 F 
HETATM   36  F2  UNL     1       9.961  -0.691  16.433  1.00  0.00    -0.206 F 
HETATM   37  C20 UNL     1       9.749   1.112  17.943  1.00  0.00     0.080 C 
HETATM   38  C21 UNL     1       8.575   1.241  18.893  1.00  0.00     0.020 C 
ENDBRANCH  28  31
ENDBRANCH  23  24
ENDBRANCH  22  23
ENDBRANCH   1  22
TORSDOF 9
ENDMDL
