MODEL 1
REMARK VINA RESULT: -8.708042429      0.000      0.000
REMARK  8 active torsions:
REMARK  status: ('A' for Active; 'I' for Inactive)
REMARK    1  A    between atoms: C2_2  and  C3_3 
REMARK    2  A    between atoms: N2_8  and  C6_9 
REMARK    3  A    between atoms: C6_9  and  C7_10 
REMARK    4  A    between atoms: C7_10  and  O2_11 
REMARK    5  A    between atoms: O2_11  and  C8_12 
REMARK    6  A    between atoms: C11_16  and  N3_17 
REMARK    7  A    between atoms: N3_17  and  C12_19 
REMARK    8  A    between atoms: C13_22  and  N5_23 
ROOT
HETATM    1  C8  UNL     1       5.906   1.757  16.392  1.00  0.00     0.097 A 
HETATM    2  C9  UNL     1       5.044   2.274  17.323  1.00  0.00     0.070 A 
HETATM    3 CL1  UNL     1       3.314   2.063  17.266  1.00  0.00    -0.081 Cl
HETATM    4  C10 UNL     1       5.533   3.013  18.408  1.00  0.00     0.057 A 
HETATM    5  C11 UNL     1       6.885   3.236  18.567  1.00  0.00     0.057 A 
HETATM    6  C21 UNL     1       7.738   2.716  17.633  1.00  0.00    -0.022 A 
HETATM    7  C22 UNL     1       7.251   1.991  16.568  1.00  0.00    -0.015 A 
HETATM    8  C23 UNL     1       8.233   1.461  15.606  1.00  0.00     0.042 C 
HETATM    9  C24 UNL     1       9.425   0.833  16.279  1.00  0.00     0.005 C 
HETATM   10  C25 UNL     1       9.951   1.620  17.436  1.00  0.00     0.005 C 
HETATM   11  C26 UNL     1       9.198   2.893  17.697  1.00  0.00     0.041 C 
ENDROOT
BRANCH   5  12
HETATM   12  N3  UNL     1       7.404   3.977  19.663  1.00  0.00    -0.191 N 
ATOM     13  H3  UNL     1       7.854   3.490  20.438  1.00  0.00     0.184 HD
BRANCH  12  14
HETATM   14  C12 UNL     1       7.306   5.284  19.682  1.00  0.00     0.684 A 
HETATM   15  N4  UNL     1       7.348   5.956  20.843  1.00  0.00    -0.175 N 
HETATM   16  C13 UNL     1       7.245   7.317  20.903  1.00  0.00     0.142 A 
ATOM     17  H4  UNL     1       7.461   5.432  21.711  1.00  0.00     0.186 HD
HETATM   18  C19 UNL     1       7.093   8.023  19.736  1.00  0.00     0.094 A 
HETATM   19 CL2  UNL     1       6.966   9.761  19.773  1.00  0.00    -0.079 Cl
HETATM   20  C20 UNL     1       7.048   7.327  18.521  1.00  0.00     0.133 A 
HETATM   21  N6  UNL     1       7.157   5.991  18.552  1.00  0.00    -0.200 N 
ATOM     22  H6  UNL     1       7.124   5.484  17.668  1.00  0.00     0.183 HD
BRANCH  16  23
HETATM   23  N5  UNL     1       7.285   8.001  22.145  1.00  0.00    -0.360 N 
HETATM   24  C14 UNL     1       6.182   8.333  23.058  1.00  0.00     0.129 C 
HETATM   25  C15 UNL     1       6.965   9.010  24.140  1.00  0.00     0.007 C 
HETATM   26  C16 UNL     1       7.892   9.897  23.303  1.00  0.00     0.031 C 
HETATM   27  C18 UNL     1       8.174   8.094  24.270  1.00  0.00     0.031 C 
HETATM   28  C17 UNL     1       8.430   8.548  22.829  1.00  0.00     0.086 C 
ENDBRANCH  16  23
ENDBRANCH  12  14
ENDBRANCH   5  12
BRANCH   1  29
HETATM   29  O2  UNL     1       5.491   1.037  15.322  1.00  0.00    -0.347 OA
BRANCH  29  30
HETATM   30  C7  UNL     1       5.275   1.415  14.009  1.00  0.00     0.206 C 
BRANCH  30  31
HETATM   31  C6  UNL     1       4.085   2.258  13.721  1.00  0.00     0.299 C 
BRANCH  31  32
HETATM   32  N2  UNL     1       4.413   3.641  14.038  1.00  0.00     0.090 N 
HETATM   33  C5  UNL     1       3.420   4.590  13.661  1.00  0.00     0.273 C 
HETATM   34  C4  UNL     1       4.013   5.987  13.888  1.00  0.00     0.048 C 
HETATM   35  C2  UNL     1       5.120   6.274  12.932  1.00  0.00     0.038 C 
HETATM   36  C1  UNL     1       4.534   6.856  11.650  1.00  0.00     0.025 C 
HETATM   37  C28 UNL     1       5.814   4.998  12.561  1.00  0.00     0.048 C 
HETATM   38  C27 UNL     1       5.740   3.928  13.604  1.00  0.00     0.273 C 
BRANCH  35  39
HETATM   39  C3  UNL     1       6.033   7.244  13.586  1.00  0.00     0.239 C 
HETATM   40  N1  UNL     1       5.781   7.597  14.936  1.00  0.00    -0.061 NA
HETATM   41  O1  UNL     1       7.019   7.774  13.012  1.00  0.00    -0.276 OA
ENDBRANCH  35  39
ENDBRANCH  31  32
ENDBRANCH  30  31
ENDBRANCH  29  30
ENDBRANCH   1  29
TORSDOF 8
ENDMDL
MODEL 2
REMARK VINA RESULT: -8.628243871      1.758      2.541
REMARK  8 active torsions:
REMARK  status: ('A' for Active; 'I' for Inactive)
REMARK    1  A    between atoms: C2_2  and  C3_3 
REMARK    2  A    between atoms: N2_8  and  C6_9 
REMARK    3  A    between atoms: C6_9  and  C7_10 
REMARK    4  A    between atoms: C7_10  and  O2_11 
REMARK    5  A    between atoms: O2_11  and  C8_12 
REMARK    6  A    between atoms: C11_16  and  N3_17 
REMARK    7  A    between atoms: N3_17  and  C12_19 
REMARK    8  A    between atoms: C13_22  and  N5_23 
ROOT
HETATM    1  C8  UNL     1       5.987   1.477  15.771  1.00  0.00     0.097 A 
HETATM    2  C9  UNL     1       4.920   1.700  16.600  1.00  0.00     0.070 A 
HETATM    3 CL1  UNL     1       3.258   1.468  16.127  1.00  0.00    -0.081 Cl
HETATM    4  C10 UNL     1       5.125   2.130  17.918  1.00  0.00     0.057 A 
HETATM    5  C11 UNL     1       6.397   2.337  18.411  1.00  0.00     0.057 A 
HETATM    6  C21 UNL     1       7.456   2.111  17.576  1.00  0.00    -0.022 A 
HETATM    7  C22 UNL     1       7.248   1.689  16.281  1.00  0.00    -0.015 A 
HETATM    8  C23 UNL     1       8.440   1.464  15.445  1.00  0.00     0.042 C 
HETATM    9  C24 UNL     1       9.523   0.709  16.167  1.00  0.00     0.005 C 
HETATM   10  C25 UNL     1       9.747   1.166  17.573  1.00  0.00     0.005 C 
HETATM   11  C26 UNL     1       8.856   2.301  17.991  1.00  0.00     0.041 C 
ENDROOT
BRANCH   5  12
HETATM   12  N3  UNL     1       6.628   2.767  19.746  1.00  0.00    -0.191 N 
ATOM     13  H3  UNL     1       7.160   2.176  20.385  1.00  0.00     0.184 HD
BRANCH  12  14
HETATM   14  C12 UNL     1       6.161   3.920  20.158  1.00  0.00     0.684 A 
HETATM   15  N4  UNL     1       6.869   5.046  19.981  1.00  0.00    -0.175 N 
HETATM   16  C13 UNL     1       6.418   6.265  20.401  1.00  0.00     0.142 A 
ATOM     17  H4  UNL     1       7.776   4.990  19.517  1.00  0.00     0.186 HD
HETATM   18  C19 UNL     1       5.198   6.342  21.026  1.00  0.00     0.094 A 
HETATM   19 CL2  UNL     1       4.586   7.881  21.568  1.00  0.00    -0.079 Cl
HETATM   20  C20 UNL     1       4.455   5.170  21.213  1.00  0.00     0.133 A 
HETATM   21  N6  UNL     1       4.973   4.015  20.770  1.00  0.00    -0.200 N 
ATOM     22  H6  UNL     1       4.432   3.161  20.906  1.00  0.00     0.183 HD
BRANCH  16  23
HETATM   23  N5  UNL     1       7.190   7.439  20.207  1.00  0.00    -0.360 N 
HETATM   24  C14 UNL     1       8.150   8.079  21.119  1.00  0.00     0.129 C 
HETATM   25  C15 UNL     1       8.578   9.221  20.249  1.00  0.00     0.007 C 
HETATM   26  C16 UNL     1       7.221   9.688  19.711  1.00  0.00     0.031 C 
HETATM   27  C18 UNL     1       8.732   8.541  18.895  1.00  0.00     0.031 C 
HETATM   28  C17 UNL     1       7.227   8.308  19.058  1.00  0.00     0.086 C 
ENDBRANCH  16  23
ENDBRANCH  12  14
ENDBRANCH   5  12
BRANCH   1  29
HETATM   29  O2  UNL     1       5.851   1.063  14.488  1.00  0.00    -0.347 OA
BRANCH  29  30
HETATM   30  C7  UNL     1       5.798   1.783  13.308  1.00  0.00     0.206 C 
BRANCH  30  31
HETATM   31  C6  UNL     1       4.542   2.518  13.004  1.00  0.00     0.299 C 
BRANCH  31  32
HETATM   32  N2  UNL     1       4.759   3.933  13.275  1.00  0.00     0.090 N 
HETATM   33  C5  UNL     1       6.076   4.261  13.707  1.00  0.00     0.273 C 
HETATM   34  C4  UNL     1       6.065   5.736  14.127  1.00  0.00     0.048 C 
HETATM   35  C2  UNL     1       5.254   5.948  15.361  1.00  0.00     0.038 C 
HETATM   36  C1  UNL     1       6.138   5.724  16.583  1.00  0.00     0.025 C 
HETATM   37  C28 UNL     1       4.150   4.936  15.421  1.00  0.00     0.048 C 
HETATM   38  C27 UNL     1       3.699   4.431  14.087  1.00  0.00     0.273 C 
BRANCH  35  39
HETATM   39  C3  UNL     1       4.743   7.341  15.324  1.00  0.00     0.239 C 
HETATM   40  N1  UNL     1       5.662   8.386  15.048  1.00  0.00    -0.061 NA
HETATM   41  O1  UNL     1       3.541   7.650  15.523  1.00  0.00    -0.276 OA
ENDBRANCH  35  39
ENDBRANCH  31  32
ENDBRANCH  30  31
ENDBRANCH  29  30
ENDBRANCH   1  29
TORSDOF 8
ENDMDL
MODEL 3
REMARK VINA RESULT: -8.580654029      0.516      1.004
REMARK  8 active torsions:
REMARK  status: ('A' for Active; 'I' for Inactive)
REMARK    1  A    between atoms: C2_2  and  C3_3 
REMARK    2  A    between atoms: N2_8  and  C6_9 
REMARK    3  A    between atoms: C6_9  and  C7_10 
REMARK    4  A    between atoms: C7_10  and  O2_11 
REMARK    5  A    between atoms: O2_11  and  C8_12 
REMARK    6  A    between atoms: C11_16  and  N3_17 
REMARK    7  A    between atoms: N3_17  and  C12_19 
REMARK    8  A    between atoms: C13_22  and  N5_23 
ROOT
HETATM    1  C8  UNL     1       5.911   1.796  16.382  1.00  0.00     0.097 A 
HETATM    2  C9  UNL     1       5.059   2.339  17.306  1.00  0.00     0.070 A 
HETATM    3 CL1  UNL     1       3.323   2.196  17.226  1.00  0.00    -0.081 Cl
HETATM    4  C10 UNL     1       5.562   3.050  18.403  1.00  0.00     0.057 A 
HETATM    5  C11 UNL     1       6.920   3.219  18.580  1.00  0.00     0.057 A 
HETATM    6  C21 UNL     1       7.763   2.673  17.653  1.00  0.00    -0.022 A 
HETATM    7  C22 UNL     1       7.262   1.976  16.576  1.00  0.00    -0.015 A 
HETATM    8  C23 UNL     1       8.235   1.415  15.622  1.00  0.00     0.042 C 
HETATM    9  C24 UNL     1       9.393   0.737  16.304  1.00  0.00     0.005 C 
HETATM   10  C25 UNL     1       9.935   1.493  17.474  1.00  0.00     0.005 C 
HETATM   11  C26 UNL     1       9.228   2.793  17.737  1.00  0.00     0.041 C 
ENDROOT
BRANCH   5  12
HETATM   12  N3  UNL     1       7.453   3.930  19.689  1.00  0.00    -0.191 N 
ATOM     13  H3  UNL     1       7.884   3.421  20.461  1.00  0.00     0.184 HD
BRANCH  12  14
HETATM   14  C12 UNL     1       7.394   5.240  19.723  1.00  0.00     0.684 A 
HETATM   15  N4  UNL     1       7.004   5.877  20.838  1.00  0.00    -0.175 N 
HETATM   16  C13 UNL     1       6.926   7.239  20.910  1.00  0.00     0.142 A 
ATOM     17  H4  UNL     1       6.756   5.325  21.660  1.00  0.00     0.186 HD
HETATM   18  C19 UNL     1       7.258   7.982  19.806  1.00  0.00     0.094 A 
HETATM   19 CL2  UNL     1       7.178   9.722  19.864  1.00  0.00    -0.079 Cl
HETATM   20  C20 UNL     1       7.666   7.323  18.640  1.00  0.00     0.133 A 
HETATM   21  N6  UNL     1       7.715   5.982  18.655  1.00  0.00    -0.200 N 
ATOM     22  H6  UNL     1       8.013   5.502  17.806  1.00  0.00     0.183 HD
BRANCH  16  23
HETATM   23  N5  UNL     1       6.502   7.886  22.100  1.00  0.00    -0.360 N 
HETATM   24  C14 UNL     1       7.293   8.272  23.278  1.00  0.00     0.129 C 
HETATM   25  C15 UNL     1       6.210   8.912  24.091  1.00  0.00     0.007 C 
HETATM   26  C16 UNL     1       5.084   7.888  23.915  1.00  0.00     0.031 C 
HETATM   27  C18 UNL     1       5.464   9.718  23.037  1.00  0.00     0.031 C 
HETATM   28  C17 UNL     1       5.178   8.330  22.455  1.00  0.00     0.086 C 
ENDBRANCH  16  23
ENDBRANCH  12  14
ENDBRANCH   5  12
BRANCH   1  29
HETATM   29  O2  UNL     1       5.482   1.101  15.300  1.00  0.00    -0.347 OA
BRANCH  29  30
HETATM   30  C7  UNL     1       5.262   1.507  13.996  1.00  0.00     0.206 C 
BRANCH  30  31
HETATM   31  C6  UNL     1       4.057   2.334  13.726  1.00  0.00     0.299 C 
BRANCH  31  32
HETATM   32  N2  UNL     1       4.380   3.725  14.012  1.00  0.00     0.090 N 
HETATM   33  C5  UNL     1       3.411   4.666  13.560  1.00  0.00     0.273 C 
HETATM   34  C4  UNL     1       4.003   6.066  13.768  1.00  0.00     0.048 C 
HETATM   35  C2  UNL     1       5.154   6.317  12.855  1.00  0.00     0.038 C 
HETATM   36  C1  UNL     1       4.631   6.859  11.529  1.00  0.00     0.025 C 
HETATM   37  C28 UNL     1       5.855   5.025  12.558  1.00  0.00     0.048 C 
HETATM   38  C27 UNL     1       5.727   3.990  13.630  1.00  0.00     0.273 C 
BRANCH  35  39
HETATM   39  C3  UNL     1       6.043   7.303  13.518  1.00  0.00     0.239 C 
HETATM   40  N1  UNL     1       5.742   7.688  14.849  1.00  0.00    -0.061 NA
HETATM   41  O1  UNL     1       7.049   7.819  12.968  1.00  0.00    -0.276 OA
ENDBRANCH  35  39
ENDBRANCH  31  32
ENDBRANCH  30  31
ENDBRANCH  29  30
ENDBRANCH   1  29
TORSDOF 8
ENDMDL
MODEL 4
REMARK VINA RESULT: -8.286177499      2.840      4.660
REMARK  8 active torsions:
REMARK  status: ('A' for Active; 'I' for Inactive)
REMARK    1  A    between atoms: C2_2  and  C3_3 
REMARK    2  A    between atoms: N2_8  and  C6_9 
REMARK    3  A    between atoms: C6_9  and  C7_10 
REMARK    4  A    between atoms: C7_10  and  O2_11 
REMARK    5  A    between atoms: O2_11  and  C8_12 
REMARK    6  A    between atoms: C11_16  and  N3_17 
REMARK    7  A    between atoms: N3_17  and  C12_19 
REMARK    8  A    between atoms: C13_22  and  N5_23 
ROOT
HETATM    1  C8  UNL     1       5.303   4.197  16.436  1.00  0.00     0.097 A 
HETATM    2  C9  UNL     1       5.017   5.479  16.825  1.00  0.00     0.070 A 
HETATM    3 CL1  UNL     1       3.506   6.281  16.488  1.00  0.00    -0.081 Cl
HETATM    4  C10 UNL     1       5.955   6.226  17.549  1.00  0.00     0.057 A 
HETATM    5  C11 UNL     1       7.183   5.694  17.886  1.00  0.00     0.057 A 
HETATM    6  C21 UNL     1       7.459   4.414  17.493  1.00  0.00    -0.022 A 
HETATM    7  C22 UNL     1       6.532   3.684  16.781  1.00  0.00    -0.015 A 
HETATM    8  C23 UNL     1       6.904   2.312  16.398  1.00  0.00     0.042 C 
HETATM    9  C24 UNL     1       7.549   1.548  17.523  1.00  0.00     0.005 C 
HETATM   10  C25 UNL     1       8.553   2.340  18.296  1.00  0.00     0.005 C 
HETATM   11  C26 UNL     1       8.736   3.744  17.793  1.00  0.00     0.041 C 
ENDROOT
BRANCH   5  12
HETATM   12  N3  UNL     1       8.148   6.431  18.624  1.00  0.00    -0.191 N 
ATOM     13  H3  UNL     1       9.078   6.041  18.777  1.00  0.00     0.184 HD
BRANCH  12  14
HETATM   14  C12 UNL     1       7.847   7.611  19.110  1.00  0.00     0.684 A 
HETATM   15  N4  UNL     1       7.169   7.723  20.262  1.00  0.00    -0.175 N 
HETATM   16  C13 UNL     1       6.834   8.935  20.797  1.00  0.00     0.142 A 
ATOM     17  H4  UNL     1       6.894   6.874  20.756  1.00  0.00     0.186 HD
HETATM   18  C19 UNL     1       7.203  10.078  20.133  1.00  0.00     0.094 A 
HETATM   19 CL2  UNL     1       6.800  11.642  20.789  1.00  0.00    -0.079 Cl
HETATM   20  C20 UNL     1       7.911   9.967  18.930  1.00  0.00     0.133 A 
HETATM   21  N6  UNL     1       8.199   8.738  18.476  1.00  0.00    -0.200 N 
ATOM     22  H6  UNL     1       8.715   8.657  17.600  1.00  0.00     0.183 HD
BRANCH  16  23
HETATM   23  N5  UNL     1       6.110   9.024  22.013  1.00  0.00    -0.360 N 
HETATM   24  C14 UNL     1       6.564   9.492  23.331  1.00  0.00     0.129 C 
HETATM   25  C15 UNL     1       5.285   9.329  24.094  1.00  0.00     0.007 C 
HETATM   26  C16 UNL     1       4.840   7.947  23.605  1.00  0.00     0.031 C 
HETATM   27  C18 UNL     1       4.260   9.864  23.103  1.00  0.00     0.031 C 
HETATM   28  C17 UNL     1       4.735   8.673  22.265  1.00  0.00     0.086 C 
ENDBRANCH  16  23
ENDBRANCH  12  14
ENDBRANCH   5  12
BRANCH   1  29
HETATM   29  O2  UNL     1       4.436   3.429  15.733  1.00  0.00    -0.347 OA
BRANCH  29  30
HETATM   30  C7  UNL     1       3.289   2.765  16.133  1.00  0.00     0.206 C 
BRANCH  30  31
HETATM   31  C6  UNL     1       3.446   1.620  17.068  1.00  0.00     0.299 C 
BRANCH  31  32
HETATM   32  N2  UNL     1       3.061   2.060  18.403  1.00  0.00     0.090 N 
HETATM   33  C5  UNL     1       2.308   3.268  18.438  1.00  0.00     0.273 C 
HETATM   34  C4  UNL     1       2.165   3.675  19.910  1.00  0.00     0.048 C 
HETATM   35  C2  UNL     1       3.473   4.089  20.493  1.00  0.00     0.038 C 
HETATM   36  C1  UNL     1       3.693   5.573  20.222  1.00  0.00     0.025 C 
HETATM   37  C28 UNL     1       4.587   3.347  19.818  1.00  0.00     0.048 C 
HETATM   38  C27 UNL     1       4.195   2.013  19.265  1.00  0.00     0.273 C 
BRANCH  35  39
HETATM   39  C3  UNL     1       3.417   3.819  21.951  1.00  0.00     0.239 C 
HETATM   40  N1  UNL     1       2.960   2.547  22.381  1.00  0.00    -0.061 NA
HETATM   41  O1  UNL     1       3.750   4.654  22.831  1.00  0.00    -0.276 OA
ENDBRANCH  35  39
ENDBRANCH  31  32
ENDBRANCH  30  31
ENDBRANCH  29  30
ENDBRANCH   1  29
TORSDOF 8
ENDMDL
MODEL 5
REMARK VINA RESULT: -8.284664622      2.387      7.238
REMARK  8 active torsions:
REMARK  status: ('A' for Active; 'I' for Inactive)
REMARK    1  A    between atoms: C2_2  and  C3_3 
REMARK    2  A    between atoms: N2_8  and  C6_9 
REMARK    3  A    between atoms: C6_9  and  C7_10 
REMARK    4  A    between atoms: C7_10  and  O2_11 
REMARK    5  A    between atoms: O2_11  and  C8_12 
REMARK    6  A    between atoms: C11_16  and  N3_17 
REMARK    7  A    between atoms: N3_17  and  C12_19 
REMARK    8  A    between atoms: C13_22  and  N5_23 
ROOT
HETATM    1  C8  UNL     1       5.978   2.362  18.030  1.00  0.00     0.097 A 
HETATM    2  C9  UNL     1       4.890   2.539  17.217  1.00  0.00     0.070 A 
HETATM    3 CL1  UNL     1       3.393   3.261  17.744  1.00  0.00    -0.081 Cl
HETATM    4  C10 UNL     1       4.938   2.146  15.873  1.00  0.00     0.057 A 
HETATM    5  C11 UNL     1       6.074   1.574  15.338  1.00  0.00     0.057 A 
HETATM    6  C21 UNL     1       7.155   1.401  16.157  1.00  0.00    -0.022 A 
HETATM    7  C22 UNL     1       7.102   1.789  17.478  1.00  0.00    -0.015 A 
HETATM    8  C23 UNL     1       8.308   1.573  18.295  1.00  0.00     0.042 C 
HETATM    9  C24 UNL     1       9.571   1.985  17.587  1.00  0.00     0.005 C 
HETATM   10  C25 UNL     1       9.628   1.565  16.154  1.00  0.00     0.005 C 
HETATM   11  C26 UNL     1       8.418   0.799  15.698  1.00  0.00     0.041 C 
ENDROOT
BRANCH   5  12
HETATM   12  N3  UNL     1       6.147   1.173  13.976  1.00  0.00    -0.191 N 
ATOM     13  H3  UNL     1       6.379   0.208  13.742  1.00  0.00     0.184 HD
BRANCH  12  14
HETATM   14  C12 UNL     1       5.917   2.040  13.020  1.00  0.00     0.684 A 
HETATM   15  N4  UNL     1       5.682   3.330  13.309  1.00  0.00    -0.175 N 
HETATM   16  C13 UNL     1       5.434   4.260  12.340  1.00  0.00     0.142 A 
ATOM     17  H4  UNL     1       5.689   3.625  14.284  1.00  0.00     0.186 HD
HETATM   18  C19 UNL     1       5.425   3.864  11.026  1.00  0.00     0.094 A 
HETATM   19 CL2  UNL     1       5.120   5.026   9.762  1.00  0.00    -0.079 Cl
HETATM   20  C20 UNL     1       5.669   2.520  10.719  1.00  0.00     0.133 A 
HETATM   21  N6  UNL     1       5.904   1.672  11.731  1.00  0.00    -0.200 N 
ATOM     22  H6  UNL     1       6.082   0.693  11.508  1.00  0.00     0.183 HD
BRANCH  16  23
HETATM   23  N5  UNL     1       5.182   5.616  12.674  1.00  0.00    -0.360 N 
HETATM   24  C14 UNL     1       3.898   6.327  12.759  1.00  0.00     0.129 C 
HETATM   25  C15 UNL     1       4.400   7.674  13.177  1.00  0.00     0.007 C 
HETATM   26  C16 UNL     1       5.591   7.838  12.227  1.00  0.00     0.031 C 
HETATM   27  C18 UNL     1       5.450   7.306  14.217  1.00  0.00     0.031 C 
HETATM   28  C17 UNL     1       6.131   6.646  13.015  1.00  0.00     0.086 C 
ENDBRANCH  16  23
ENDBRANCH  12  14
ENDBRANCH   5  12
BRANCH   1  29
HETATM   29  O2  UNL     1       5.989   2.721  19.337  1.00  0.00    -0.347 OA
BRANCH  29  30
HETATM   30  C7  UNL     1       6.324   3.920  19.940  1.00  0.00     0.206 C 
BRANCH  30  31
HETATM   31  C6  UNL     1       5.445   5.090  19.683  1.00  0.00     0.299 C 
BRANCH  31  32
HETATM   32  N2  UNL     1       6.258   6.162  19.124  1.00  0.00     0.090 N 
HETATM   33  C5  UNL     1       7.629   6.132  19.509  1.00  0.00     0.273 C 
HETATM   34  C4  UNL     1       8.276   7.425  18.995  1.00  0.00     0.048 C 
HETATM   35  C2  UNL     1       7.759   8.622  19.718  1.00  0.00     0.038 C 
HETATM   36  C1  UNL     1       8.590   8.840  20.978  1.00  0.00     0.025 C 
HETATM   37  C28 UNL     1       6.347   8.377  20.158  1.00  0.00     0.048 C 
HETATM   38  C27 UNL     1       5.591   7.409  19.303  1.00  0.00     0.273 C 
BRANCH  35  39
HETATM   39  C3  UNL     1       7.872   9.781  18.800  1.00  0.00     0.239 C 
HETATM   40  N1  UNL     1       8.308  11.021  19.334  1.00  0.00    -0.061 NA
HETATM   41  O1  UNL     1       7.605   9.730  17.572  1.00  0.00    -0.276 OA
ENDBRANCH  35  39
ENDBRANCH  31  32
ENDBRANCH  30  31
ENDBRANCH  29  30
ENDBRANCH   1  29
TORSDOF 8
ENDMDL
