MODEL 1
REMARK VINA RESULT: -7.100952829      0.000      0.000
REMARK  16 active torsions:
REMARK  status: ('A' for Active; 'I' for Inactive)
REMARK    1  A    between atoms: O1_2  and  C2_3 
REMARK    2  A    between atoms: C5_8  and  O3_9 
REMARK    3  A    between atoms: O3_9  and  C6_10 
REMARK    4  A    between atoms: C6_10  and  O4_11 
REMARK    5  A    between atoms: O4_11  and  C7_12 
REMARK    6  A    between atoms: C7_12  and  C8_13 
REMARK    7  A    between atoms: C9_19  and  N4_20 
REMARK    8  A    between atoms: C13_28  and  O7_29 
REMARK    9  A    between atoms: O7_29  and  C14_30 
REMARK   10  A    between atoms: C15_35  and  C16_36 
REMARK   11  A    between atoms: N8_42  and  N9_44 
REMARK       I    between atoms: N9_44  and  C19_46 
REMARK   12  A    between atoms: C19_46  and  O9_48 
REMARK   13  A    between atoms: O9_48  and  C20_49 
REMARK   14  A    between atoms: C20_49  and  C21_50 
REMARK   15  A    between atoms: C21_50  and  N10_51 
REMARK   16  A    between atoms: C23_57  and  O10_58 
ROOT
HETATM    1  C2  UNL     1     -57.554  54.802  15.360  1.00  0.00     0.175 C 
HETATM    2  C3  UNL     1     -56.121  55.615  15.301  1.00  0.00     0.259 C 
HETATM    3  O2  UNL     1     -55.238  55.524  16.095  1.00  0.00    -0.270 OA
HETATM    4  N1  UNL     1     -56.763  56.032  14.233  1.00  0.00    -0.324 N 
HETATM    5  C4  UNL     1     -56.880  56.004  12.848  1.00  0.00     0.149 C 
HETATM    6  C5  UNL     1     -57.696  57.126  12.338  1.00  0.00     0.171 C 
HETATM    7  C10 UNL     1     -58.981  57.390  13.067  1.00  0.00     0.161 C 
HETATM    8  S1  UNL     1     -58.951  59.139  13.660  1.00  0.00    -0.081 SA
HETATM    9  C11 UNL     1     -59.066  56.578  14.293  1.00  0.00     0.170 C 
HETATM   10  O6  UNL     1     -60.222  56.181  14.564  1.00  0.00    -0.294 OA
HETATM   11  C12 UNL     1     -57.905  56.292  15.076  1.00  0.00     0.203 C 
HETATM   12  C13 UNL     1     -57.597  54.602  12.758  1.00  0.00     0.165 C 
HETATM   13  C15 UNL     1     -57.529  53.955  14.142  1.00  0.00     0.079 C 
ENDROOT
BRANCH  13  14
HETATM   14  C16 UNL     1     -56.395  52.947  14.174  1.00  0.00     0.090 C 
HETATM   15  C17 UNL     1     -56.379  52.080  15.373  1.00  0.00     0.048 C 
HETATM   16  N7  UNL     1     -55.645  52.221  16.402  1.00  0.00    -0.399 N 
HETATM   17  C18 UNL     1     -57.320  50.964  15.252  1.00  0.00     0.112 C 
ATOM     18  H72 UNL     1     -54.991  52.998  16.487  1.00  0.00     0.156 HD
ATOM     19  H71 UNL     1     -55.634  51.623  17.229  1.00  0.00     0.156 HD
HETATM   20  N8  UNL     1     -57.805  50.154  16.085  1.00  0.00    -0.288 N 
HETATM   21  S2  UNL     1     -57.758  50.909  13.475  1.00  0.00    -0.071 SA
ATOM     22  H8  UNL     1     -58.450  49.467  15.695  1.00  0.00     0.188 HD
HETATM   23  C22 UNL     1     -56.376  52.017  13.031  1.00  0.00     0.017 C 
HETATM   24  C23 UNL     1     -55.646  51.818  11.979  1.00  0.00     0.146 C 
BRANCH  20  25
HETATM   25  N9  UNL     1     -57.600  50.055  17.441  1.00  0.00    -0.244 N 
HETATM   26  C19 UNL     1     -58.663  50.323  18.335  1.00  0.00     0.379 C 
HETATM   27  O8  UNL     1     -59.812  50.655  17.880  1.00  0.00    -0.237 OA
ATOM     28  H9  UNL     1     -56.684  49.789  17.801  1.00  0.00     0.192 HD
BRANCH  26  29
HETATM   29  O9  UNL     1     -58.552  50.248  19.701  1.00  0.00    -0.301 OA
BRANCH  29  30
HETATM   30  C20 UNL     1     -57.391  50.095  20.445  1.00  0.00     0.207 C 
BRANCH  30  31
HETATM   31  C21 UNL     1     -56.417  51.237  20.326  1.00  0.00     0.256 C 
BRANCH  31  32
HETATM   32  N10 UNL     1     -55.104  50.694  20.688  1.00  0.00    -0.077 N 
ATOM     33 3H10 UNL     1     -55.156  49.899  21.325  1.00  0.00     0.274 HD
ATOM     34 2H10 UNL     1     -54.640  50.209  19.920  1.00  0.00     0.274 HD
ATOM     35 1H10 UNL     1     -54.565  51.477  21.059  1.00  0.00     0.274 HD
ENDBRANCH  31  32
ENDBRANCH  30  31
ENDBRANCH  29  30
ENDBRANCH  26  29
ENDBRANCH  20  25
BRANCH  24  36
HETATM   36  O10 UNL     1     -54.512  52.594  11.662  1.00  0.00    -0.372 OA
ATOM     37  H10 UNL     1     -54.559  53.426  11.206  1.00  0.00     0.216 HD
ENDBRANCH  24  36
ENDBRANCH  13  14
BRANCH   1  38
HETATM   38  O1  UNL     1     -57.857  54.402  16.539  1.00  0.00    -0.372 OA
HETATM   39  C1  UNL     1     -59.046  53.872  16.906  1.00  0.00     0.203 C 
ENDBRANCH   1  38
BRANCH  12  40
HETATM   40  O7  UNL     1     -58.764  54.518  12.081  1.00  0.00    -0.317 OA
BRANCH  40  41
HETATM   41  C14 UNL     1     -59.046  53.702  10.998  1.00  0.00     0.225 C 
HETATM   42  N5  UNL     1     -58.153  53.755  10.054  1.00  0.00    -0.368 N 
ATOM     43  H52 UNL     1     -57.326  54.347  10.116  1.00  0.00     0.159 HD
ATOM     44  H51 UNL     1     -58.360  53.153   9.256  1.00  0.00     0.159 HD
HETATM   45  N6  UNL     1     -60.191  52.882  10.912  1.00  0.00    -0.057 NA
ENDBRANCH  40  41
ENDBRANCH  12  40
BRANCH   6  46
HETATM   46  O3  UNL     1     -56.909  58.329  12.383  1.00  0.00    -0.358 OA
BRANCH  46  47
HETATM   47  C6  UNL     1     -56.903  58.829  11.063  1.00  0.00     0.338 C 
BRANCH  47  48
HETATM   48  O4  UNL     1     -55.806  58.380  10.378  1.00  0.00    -0.361 OA
BRANCH  48  49
HETATM   49  C7  UNL     1     -55.602  58.960   9.181  1.00  0.00     0.233 C 
BRANCH  49  50
HETATM   50  C8  UNL     1     -56.733  59.164   8.281  1.00  0.00     0.103 A 
HETATM   51  N2  UNL     1     -57.325  60.292   7.935  1.00  0.00    -0.240 N 
HETATM   52  O5  UNL     1     -58.303  60.044   7.133  1.00  0.00    -0.155 OA
ATOM     53  H2  UNL     1     -57.049  61.221   8.254  1.00  0.00     0.196 HD
HETATM   54  N3  UNL     1     -58.408  58.771   6.912  1.00  0.00    -0.224 N 
HETATM   55  C9  UNL     1     -57.444  58.154   7.608  1.00  0.00     0.148 A 
ATOM     56  H3  UNL     1     -59.101  58.320   6.315  1.00  0.00     0.198 HD
BRANCH  55  57
HETATM   57  N4  UNL     1     -57.234  56.908   7.641  1.00  0.00    -0.382 N 
ATOM     58  H42 UNL     1     -56.668  56.413   8.331  1.00  0.00     0.157 HD
ATOM     59  H41 UNL     1     -57.585  56.200   6.996  1.00  0.00     0.157 HD
ENDBRANCH  55  57
ENDBRANCH  49  50
ENDBRANCH  48  49
ENDBRANCH  47  48
ENDBRANCH  46  47
ENDBRANCH   6  46
TORSDOF 16
ENDMDL
MODEL 2
REMARK VINA RESULT: -6.781487715      4.508      7.504
REMARK  16 active torsions:
REMARK  status: ('A' for Active; 'I' for Inactive)
REMARK    1  A    between atoms: O1_2  and  C2_3 
REMARK    2  A    between atoms: C5_8  and  O3_9 
REMARK    3  A    between atoms: O3_9  and  C6_10 
REMARK    4  A    between atoms: C6_10  and  O4_11 
REMARK    5  A    between atoms: O4_11  and  C7_12 
REMARK    6  A    between atoms: C7_12  and  C8_13 
REMARK    7  A    between atoms: C9_19  and  N4_20 
REMARK    8  A    between atoms: C13_28  and  O7_29 
REMARK    9  A    between atoms: O7_29  and  C14_30 
REMARK   10  A    between atoms: C15_35  and  C16_36 
REMARK   11  A    between atoms: N8_42  and  N9_44 
REMARK       I    between atoms: N9_44  and  C19_46 
REMARK   12  A    between atoms: C19_46  and  O9_48 
REMARK   13  A    between atoms: O9_48  and  C20_49 
REMARK   14  A    between atoms: C20_49  and  C21_50 
REMARK   15  A    between atoms: C21_50  and  N10_51 
REMARK   16  A    between atoms: C23_57  and  O10_58 
ROOT
HETATM    1  C2  UNL     1     -59.543  59.900  11.933  1.00  0.00     0.175 C 
HETATM    2  C3  UNL     1     -58.553  59.837  13.250  1.00  0.00     0.259 C 
HETATM    3  O2  UNL     1     -58.422  58.902  13.975  1.00  0.00    -0.270 OA
HETATM    4  N1  UNL     1     -58.365  61.047  12.773  1.00  0.00    -0.324 N 
HETATM    5  C4  UNL     1     -57.524  61.927  12.100  1.00  0.00     0.149 C 
HETATM    6  C5  UNL     1     -57.925  63.336  12.297  1.00  0.00     0.171 C 
HETATM    7  C10 UNL     1     -59.388  63.632  12.144  1.00  0.00     0.161 C 
HETATM    8  S1  UNL     1     -59.982  64.405  13.712  1.00  0.00    -0.081 SA
HETATM    9  C11 UNL     1     -60.166  62.387  12.019  1.00  0.00     0.170 C 
HETATM   10  O6  UNL     1     -61.146  62.471  11.245  1.00  0.00    -0.294 OA
HETATM   11  C12 UNL     1     -59.799  61.208  12.738  1.00  0.00     0.203 C 
HETATM   12  C13 UNL     1     -57.815  61.378  10.651  1.00  0.00     0.165 C 
HETATM   13  C15 UNL     1     -58.606  60.077  10.795  1.00  0.00     0.079 C 
ENDROOT
BRANCH  13  14
HETATM   14  C16 UNL     1     -57.667  58.895  10.643  1.00  0.00     0.090 C 
HETATM   15  C17 UNL     1     -58.333  57.574  10.690  1.00  0.00     0.048 C 
HETATM   16  N7  UNL     1     -58.391  56.788  11.689  1.00  0.00    -0.399 N 
HETATM   17  C18 UNL     1     -58.931  57.218   9.402  1.00  0.00     0.112 C 
ATOM     18  H72 UNL     1     -57.973  57.036  12.586  1.00  0.00     0.156 HD
ATOM     19  H71 UNL     1     -58.849  55.877  11.722  1.00  0.00     0.156 HD
HETATM   20  N8  UNL     1     -59.773  56.348   9.057  1.00  0.00    -0.288 N 
HETATM   21  S2  UNL     1     -58.190  58.384   8.201  1.00  0.00    -0.071 SA
ATOM     22  H8  UNL     1     -60.001  56.337   8.063  1.00  0.00     0.188 HD
HETATM   23  C22 UNL     1     -56.896  58.888   9.387  1.00  0.00     0.017 C 
HETATM   24  C23 UNL     1     -55.666  59.070   9.026  1.00  0.00     0.146 C 
BRANCH  20  25
HETATM   25  N9  UNL     1     -60.433  55.408   9.815  1.00  0.00    -0.244 N 
HETATM   26  C19 UNL     1     -59.757  54.234  10.223  1.00  0.00     0.379 C 
HETATM   27  O8  UNL     1     -58.536  54.050   9.888  1.00  0.00    -0.237 OA
ATOM     28  H9  UNL     1     -61.405  55.558  10.081  1.00  0.00     0.192 HD
BRANCH  26  29
HETATM   29  O9  UNL     1     -60.332  53.245  10.980  1.00  0.00    -0.301 OA
BRANCH  29  30
HETATM   30  C20 UNL     1     -60.377  53.161  12.364  1.00  0.00     0.207 C 
BRANCH  30  31
HETATM   31  C21 UNL     1     -59.440  52.145  12.961  1.00  0.00     0.256 C 
BRANCH  31  32
HETATM   32  N10 UNL     1     -60.287  51.105  13.552  1.00  0.00    -0.077 N 
ATOM     33 3H10 UNL     1     -60.632  50.427  12.872  1.00  0.00     0.274 HD
ATOM     34 2H10 UNL     1     -59.772  50.444  14.135  1.00  0.00     0.274 HD
ATOM     35 1H10 UNL     1     -61.030  51.593  14.052  1.00  0.00     0.274 HD
ENDBRANCH  31  32
ENDBRANCH  30  31
ENDBRANCH  29  30
ENDBRANCH  26  29
ENDBRANCH  20  25
BRANCH  24  36
HETATM   36  O10 UNL     1     -54.625  59.363   9.932  1.00  0.00    -0.372 OA
ATOM     37  H10 UNL     1     -53.708  59.200   9.746  1.00  0.00     0.216 HD
ENDBRANCH  24  36
ENDBRANCH  13  14
BRANCH   1  38
HETATM   38  O1  UNL     1     -60.501  59.051  11.983  1.00  0.00    -0.372 OA
HETATM   39  C1  UNL     1     -61.549  59.101  12.838  1.00  0.00     0.203 C 
ENDBRANCH   1  38
BRANCH  12  40
HETATM   40  O7  UNL     1     -58.210  62.252   9.698  1.00  0.00    -0.317 OA
BRANCH  40  41
HETATM   41  C14 UNL     1     -58.811  61.955   8.487  1.00  0.00     0.225 C 
HETATM   42  N5  UNL     1     -60.099  62.140   8.479  1.00  0.00    -0.368 N 
ATOM     43  H52 UNL     1     -60.607  62.474   9.297  1.00  0.00     0.159 HD
ATOM     44  H51 UNL     1     -60.542  61.922   7.587  1.00  0.00     0.159 HD
HETATM   45  N6  UNL     1     -58.107  61.492   7.355  1.00  0.00    -0.057 NA
ENDBRANCH  40  41
ENDBRANCH  12  40
BRANCH   6  46
HETATM   46  O3  UNL     1     -57.528  63.751  13.616  1.00  0.00    -0.358 OA
BRANCH  46  47
HETATM   47  C6  UNL     1     -56.194  64.195  13.490  1.00  0.00     0.338 C 
BRANCH  47  48
HETATM   48  O4  UNL     1     -55.319  63.230  13.911  1.00  0.00    -0.361 OA
BRANCH  48  49
HETATM   49  C7  UNL     1     -54.019  63.504  13.696  1.00  0.00     0.233 C 
BRANCH  49  50
HETATM   50  C8  UNL     1     -53.193  62.541  12.974  1.00  0.00     0.103 A 
HETATM   51  N2  UNL     1     -52.123  61.890  13.391  1.00  0.00    -0.240 N 
HETATM   52  O5  UNL     1     -51.668  61.145  12.443  1.00  0.00    -0.155 OA
ATOM     53  H2  UNL     1     -51.717  61.965  14.324  1.00  0.00     0.196 HD
HETATM   54  N3  UNL     1     -52.394  61.261  11.376  1.00  0.00    -0.224 N 
HETATM   55  C9  UNL     1     -53.378  62.130  11.642  1.00  0.00     0.148 A 
ATOM     56  H3  UNL     1     -52.243  60.777  10.491  1.00  0.00     0.198 HD
BRANCH  55  57
HETATM   57  N4  UNL     1     -54.284  62.495  10.839  1.00  0.00    -0.382 N 
ATOM     58  H42 UNL     1     -54.877  63.319  10.939  1.00  0.00     0.157 HD
ATOM     59  H41 UNL     1     -54.571  62.037   9.974  1.00  0.00     0.157 HD
ENDBRANCH  55  57
ENDBRANCH  49  50
ENDBRANCH  48  49
ENDBRANCH  47  48
ENDBRANCH  46  47
ENDBRANCH   6  46
TORSDOF 16
ENDMDL
MODEL 3
REMARK VINA RESULT: -6.693061883      1.928      2.255
REMARK  16 active torsions:
REMARK  status: ('A' for Active; 'I' for Inactive)
REMARK    1  A    between atoms: O1_2  and  C2_3 
REMARK    2  A    between atoms: C5_8  and  O3_9 
REMARK    3  A    between atoms: O3_9  and  C6_10 
REMARK    4  A    between atoms: C6_10  and  O4_11 
REMARK    5  A    between atoms: O4_11  and  C7_12 
REMARK    6  A    between atoms: C7_12  and  C8_13 
REMARK    7  A    between atoms: C9_19  and  N4_20 
REMARK    8  A    between atoms: C13_28  and  O7_29 
REMARK    9  A    between atoms: O7_29  and  C14_30 
REMARK   10  A    between atoms: C15_35  and  C16_36 
REMARK   11  A    between atoms: N8_42  and  N9_44 
REMARK       I    between atoms: N9_44  and  C19_46 
REMARK   12  A    between atoms: C19_46  and  O9_48 
REMARK   13  A    between atoms: O9_48  and  C20_49 
REMARK   14  A    between atoms: C20_49  and  C21_50 
REMARK   15  A    between atoms: C21_50  and  N10_51 
REMARK   16  A    between atoms: C23_57  and  O10_58 
ROOT
HETATM    1  C2  UNL     1     -58.629  55.771  15.052  1.00  0.00     0.175 C 
HETATM    2  C3  UNL     1     -57.092  56.361  15.138  1.00  0.00     0.259 C 
HETATM    3  O2  UNL     1     -56.324  56.170  16.028  1.00  0.00    -0.270 OA
HETATM    4  N1  UNL     1     -57.543  56.827  13.996  1.00  0.00    -0.324 N 
HETATM    5  C4  UNL     1     -57.512  56.764  12.607  1.00  0.00     0.149 C 
HETATM    6  C5  UNL     1     -58.089  57.975  11.985  1.00  0.00     0.171 C 
HETATM    7  C10 UNL     1     -59.391  58.454  12.558  1.00  0.00     0.161 C 
HETATM    8  S1  UNL     1     -59.162  60.200  13.114  1.00  0.00    -0.081 SA
HETATM    9  C11 UNL     1     -59.731  57.709  13.783  1.00  0.00     0.170 C 
HETATM   10  O6  UNL     1     -60.955  57.498  13.930  1.00  0.00    -0.294 OA
HETATM   11  C12 UNL     1     -58.718  57.285  14.698  1.00  0.00     0.203 C 
HETATM   12  C13 UNL     1     -58.419  55.482  12.466  1.00  0.00     0.165 C 
HETATM   13  C15 UNL     1     -58.600  54.884  13.862  1.00  0.00     0.079 C 
ENDROOT
BRANCH  13  14
HETATM   14  C16 UNL     1     -57.642  53.722  14.043  1.00  0.00     0.090 C 
HETATM   15  C17 UNL     1     -57.845  52.948  15.288  1.00  0.00     0.048 C 
HETATM   16  N7  UNL     1     -57.172  53.048  16.363  1.00  0.00    -0.399 N 
HETATM   17  C18 UNL     1     -58.937  51.980  15.157  1.00  0.00     0.112 C 
ATOM     18  H72 UNL     1     -56.412  53.722  16.454  1.00  0.00     0.156 HD
ATOM     19  H71 UNL     1     -57.312  52.514  17.221  1.00  0.00     0.156 HD
HETATM   20  N8  UNL     1     -59.600  51.313  15.994  1.00  0.00    -0.288 N 
HETATM   21  S2  UNL     1     -59.253  51.869  13.357  1.00  0.00    -0.071 SA
ATOM     22  H8  UNL     1     -60.314  50.705  15.594  1.00  0.00     0.188 HD
HETATM   23  C22 UNL     1     -57.687  52.722  12.961  1.00  0.00     0.017 C 
HETATM   24  C23 UNL     1     -56.925  52.343  11.985  1.00  0.00     0.146 C 
BRANCH  20  25
HETATM   25  N9  UNL     1     -59.508  51.279  17.366  1.00  0.00    -0.244 N 
HETATM   26  C19 UNL     1     -58.419  50.617  17.981  1.00  0.00     0.379 C 
HETATM   27  O8  UNL     1     -57.523  50.054  17.261  1.00  0.00    -0.237 OA
ATOM     28  H9  UNL     1     -60.222  51.729  17.938  1.00  0.00     0.192 HD
BRANCH  26  29
HETATM   29  O9  UNL     1     -58.244  50.532  19.339  1.00  0.00    -0.301 OA
BRANCH  29  30
HETATM   30  C20 UNL     1     -57.130  50.058  20.018  1.00  0.00     0.207 C 
BRANCH  30  31
HETATM   31  C21 UNL     1     -56.099  51.107  20.339  1.00  0.00     0.256 C 
BRANCH  31  32
HETATM   32  N10 UNL     1     -55.194  51.157  19.187  1.00  0.00    -0.077 N 
ATOM     33 3H10 UNL     1     -54.431  51.826  19.299  1.00  0.00     0.274 HD
ATOM     34 2H10 UNL     1     -54.614  50.323  19.089  1.00  0.00     0.274 HD
ATOM     35 1H10 UNL     1     -55.780  51.342  18.372  1.00  0.00     0.274 HD
ENDBRANCH  31  32
ENDBRANCH  30  31
ENDBRANCH  29  30
ENDBRANCH  26  29
ENDBRANCH  20  25
BRANCH  24  36
HETATM   36  O10 UNL     1     -55.665  52.915  11.715  1.00  0.00    -0.372 OA
ATOM     37  H10 UNL     1     -55.543  53.830  11.492  1.00  0.00     0.216 HD
ENDBRANCH  24  36
ENDBRANCH  13  14
BRANCH   1  38
HETATM   38  O1  UNL     1     -59.115  55.465  16.197  1.00  0.00    -0.372 OA
HETATM   39  C1  UNL     1     -60.412  55.173  16.445  1.00  0.00     0.203 C 
ENDBRANCH   1  38
BRANCH  12  40
HETATM   40  O7  UNL     1     -59.505  55.545  11.663  1.00  0.00    -0.317 OA
BRANCH  40  41
HETATM   41  C14 UNL     1     -59.658  54.964  10.416  1.00  0.00     0.225 C 
HETATM   42  N5  UNL     1     -59.242  55.709   9.434  1.00  0.00    -0.368 N 
ATOM     43  H52 UNL     1     -58.841  56.635   9.582  1.00  0.00     0.159 HD
ATOM     44  H51 UNL     1     -59.354  55.281   8.515  1.00  0.00     0.159 HD
HETATM   45  N6  UNL     1     -60.213  53.682  10.211  1.00  0.00    -0.057 NA
ENDBRANCH  40  41
ENDBRANCH  12  40
BRANCH   6  46
HETATM   46  O3  UNL     1     -57.139  59.050  12.093  1.00  0.00    -0.358 OA
BRANCH  46  47
HETATM   47  C6  UNL     1     -56.392  59.020  10.896  1.00  0.00     0.338 C 
BRANCH  47  48
HETATM   48  O4  UNL     1     -55.102  59.419  11.117  1.00  0.00    -0.361 OA
BRANCH  48  49
HETATM   49  C7  UNL     1     -54.531  60.097  10.104  1.00  0.00     0.233 C 
BRANCH  49  50
HETATM   50  C8  UNL     1     -53.539  59.431   9.265  1.00  0.00     0.103 A 
HETATM   51  N2  UNL     1     -52.233  59.341   9.438  1.00  0.00    -0.240 N 
HETATM   52  O5  UNL     1     -51.708  58.686   8.461  1.00  0.00    -0.155 OA
ATOM     53  H2  UNL     1     -51.718  59.732  10.227  1.00  0.00     0.196 HD
HETATM   54  N3  UNL     1     -52.614  58.318   7.611  1.00  0.00    -0.224 N 
HETATM   55  C9  UNL     1     -53.798  58.756   8.059  1.00  0.00     0.148 A 
ATOM     56  H3  UNL     1     -52.455  57.787   6.754  1.00  0.00     0.198 HD
BRANCH  55  57
HETATM   57  N4  UNL     1     -54.916  58.587   7.493  1.00  0.00    -0.382 N 
ATOM     58  H42 UNL     1     -55.571  57.827   7.676  1.00  0.00     0.157 HD
ATOM     59  H41 UNL     1     -55.343  59.167   6.771  1.00  0.00     0.157 HD
ENDBRANCH  55  57
ENDBRANCH  49  50
ENDBRANCH  48  49
ENDBRANCH  47  48
ENDBRANCH  46  47
ENDBRANCH   6  46
TORSDOF 16
ENDMDL
MODEL 4
REMARK VINA RESULT: -6.664785181      3.743      6.055
REMARK  16 active torsions:
REMARK  status: ('A' for Active; 'I' for Inactive)
REMARK    1  A    between atoms: O1_2  and  C2_3 
REMARK    2  A    between atoms: C5_8  and  O3_9 
REMARK    3  A    between atoms: O3_9  and  C6_10 
REMARK    4  A    between atoms: C6_10  and  O4_11 
REMARK    5  A    between atoms: O4_11  and  C7_12 
REMARK    6  A    between atoms: C7_12  and  C8_13 
REMARK    7  A    between atoms: C9_19  and  N4_20 
REMARK    8  A    between atoms: C13_28  and  O7_29 
REMARK    9  A    between atoms: O7_29  and  C14_30 
REMARK   10  A    between atoms: C15_35  and  C16_36 
REMARK   11  A    between atoms: N8_42  and  N9_44 
REMARK       I    between atoms: N9_44  and  C19_46 
REMARK   12  A    between atoms: C19_46  and  O9_48 
REMARK   13  A    between atoms: O9_48  and  C20_49 
REMARK   14  A    between atoms: C20_49  and  C21_50 
REMARK   15  A    between atoms: C21_50  and  N10_51 
REMARK   16  A    between atoms: C23_57  and  O10_58 
ROOT
HETATM    1  C2  UNL     1     -59.325  58.421  12.316  1.00  0.00     0.175 C 
HETATM    2  C3  UNL     1     -57.760  58.404  12.837  1.00  0.00     0.259 C 
HETATM    3  O2  UNL     1     -57.230  57.506  13.412  1.00  0.00    -0.270 OA
HETATM    4  N1  UNL     1     -57.889  59.582  12.269  1.00  0.00    -0.324 N 
HETATM    5  C4  UNL     1     -57.589  60.404  11.188  1.00  0.00     0.149 C 
HETATM    6  C5  UNL     1     -57.822  61.830  11.496  1.00  0.00     0.171 C 
HETATM    7  C10 UNL     1     -59.115  62.154  12.185  1.00  0.00     0.161 C 
HETATM    8  S1  UNL     1     -58.717  63.025  13.764  1.00  0.00    -0.081 SA
HETATM    9  C11 UNL     1     -59.813  60.924  12.597  1.00  0.00     0.170 C 
HETATM   10  O6  UNL     1     -61.059  60.991  12.515  1.00  0.00    -0.294 OA
HETATM   11  C12 UNL     1     -59.090  59.776  13.047  1.00  0.00     0.203 C 
HETATM   12  C13 UNL     1     -58.648  59.786  10.196  1.00  0.00     0.165 C 
HETATM   13  C15 UNL     1     -59.203  58.514  10.840  1.00  0.00     0.079 C 
ENDROOT
BRANCH  13  14
HETATM   14  C16 UNL     1     -58.506  57.303  10.250  1.00  0.00     0.090 C 
HETATM   15  C17 UNL     1     -58.927  56.009  10.833  1.00  0.00     0.048 C 
HETATM   16  N7  UNL     1     -58.307  55.338  11.718  1.00  0.00    -0.399 N 
HETATM   17  C18 UNL     1     -60.180  55.528  10.247  1.00  0.00     0.112 C 
ATOM     18  H72 UNL     1     -57.434  55.673  12.126  1.00  0.00     0.156 HD
ATOM     19  H71 UNL     1     -58.596  54.446  12.120  1.00  0.00     0.156 HD
HETATM   20  N8  UNL     1     -61.007  54.644  10.593  1.00  0.00    -0.288 N 
HETATM   21  S2  UNL     1     -60.414  56.540   8.739  1.00  0.00    -0.071 SA
ATOM     22  H8  UNL     1     -61.805  54.530   9.969  1.00  0.00     0.188 HD
HETATM   23  C22 UNL     1     -58.691  57.143   8.796  1.00  0.00     0.017 C 
HETATM   24  C23 UNL     1     -57.967  57.258   7.728  1.00  0.00     0.146 C 
BRANCH  20  25
HETATM   25  N9  UNL     1     -60.998  53.807  11.684  1.00  0.00    -0.244 N 
HETATM   26  C19 UNL     1     -60.007  52.802  11.792  1.00  0.00     0.379 C 
HETATM   27  O8  UNL     1     -59.123  52.676  10.876  1.00  0.00    -0.237 OA
ATOM     28  H9  UNL     1     -61.703  53.910  12.414  1.00  0.00     0.192 HD
BRANCH  26  29
HETATM   29  O9  UNL     1     -59.920  51.924  12.842  1.00  0.00    -0.301 OA
BRANCH  29  30
HETATM   30  C20 UNL     1     -59.016  51.956  13.895  1.00  0.00     0.207 C 
BRANCH  30  31
HETATM   31  C21 UNL     1     -57.901  50.949  13.793  1.00  0.00     0.256 C 
BRANCH  31  32
HETATM   32  N10 UNL     1     -56.913  51.524  12.875  1.00  0.00    -0.077 N 
ATOM     33 3H10 UNL     1     -57.176  51.442  11.893  1.00  0.00     0.274 HD
ATOM     34 2H10 UNL     1     -56.873  52.543  12.908  1.00  0.00     0.274 HD
ATOM     35 1H10 UNL     1     -56.024  51.075  13.097  1.00  0.00     0.274 HD
ENDBRANCH  31  32
ENDBRANCH  30  31
ENDBRANCH  29  30
ENDBRANCH  26  29
ENDBRANCH  20  25
BRANCH  24  36
HETATM   36  O10 UNL     1     -56.606  57.625   7.747  1.00  0.00    -0.372 OA
ATOM     37  H10 UNL     1     -56.294  58.491   7.511  1.00  0.00     0.216 HD
ENDBRANCH  24  36
ENDBRANCH  13  14
BRANCH   1  38
HETATM   38  O1  UNL     1     -60.075  57.600  12.952  1.00  0.00    -0.372 OA
HETATM   39  C1  UNL     1     -61.427  57.643  12.991  1.00  0.00     0.203 C 
ENDBRANCH   1  38
BRANCH  12  40
HETATM   40  O7  UNL     1     -59.524  60.617   9.588  1.00  0.00    -0.317 OA
BRANCH  40  41
HETATM   41  C14 UNL     1     -59.310  61.370   8.446  1.00  0.00     0.225 C 
HETATM   42  N5  UNL     1     -60.115  62.385   8.327  1.00  0.00    -0.368 N 
ATOM     43  H52 UNL     1     -60.835  62.595   9.017  1.00  0.00     0.159 HD
ATOM     44  H51 UNL     1     -59.957  62.940   7.486  1.00  0.00     0.159 HD
HETATM   45  N6  UNL     1     -58.313  61.078   7.491  1.00  0.00    -0.057 NA
ENDBRANCH  40  41
ENDBRANCH  12  40
BRANCH   6  46
HETATM   46  O3  UNL     1     -56.748  62.306  12.328  1.00  0.00    -0.358 OA
BRANCH  46  47
HETATM   47  C6  UNL     1     -55.651  62.496  11.462  1.00  0.00     0.338 C 
BRANCH  47  48
HETATM   48  O4  UNL     1     -54.706  61.524  11.653  1.00  0.00    -0.361 OA
BRANCH  48  49
HETATM   49  C7  UNL     1     -53.677  61.548  10.786  1.00  0.00     0.233 C 
BRANCH  49  50
HETATM   50  C8  UNL     1     -53.368  60.354  10.007  1.00  0.00     0.103 A 
HETATM   51  N2  UNL     1     -52.262  59.633   9.998  1.00  0.00    -0.240 N 
HETATM   52  O5  UNL     1     -52.377  58.666   9.154  1.00  0.00    -0.155 OA
ATOM     53  H2  UNL     1     -51.439  59.814  10.573  1.00  0.00     0.196 HD
HETATM   54  N3  UNL     1     -53.536  58.695   8.574  1.00  0.00    -0.224 N 
HETATM   55  C9  UNL     1     -54.215  59.739   9.068  1.00  0.00     0.148 A 
ATOM     56  H3  UNL     1     -53.872  58.039   7.868  1.00  0.00     0.198 HD
BRANCH  55  57
HETATM   57  N4  UNL     1     -55.386  60.086   8.739  1.00  0.00    -0.382 N 
ATOM     58  H42 UNL     1     -55.740  61.042   8.707  1.00  0.00     0.157 HD
ATOM     59  H41 UNL     1     -56.158  59.482   8.458  1.00  0.00     0.157 HD
ENDBRANCH  55  57
ENDBRANCH  49  50
ENDBRANCH  48  49
ENDBRANCH  47  48
ENDBRANCH  46  47
ENDBRANCH   6  46
TORSDOF 16
ENDMDL
MODEL 5
REMARK VINA RESULT: -6.515592388      7.206     10.310
REMARK  16 active torsions:
REMARK  status: ('A' for Active; 'I' for Inactive)
REMARK    1  A    between atoms: O1_2  and  C2_3 
REMARK    2  A    between atoms: C5_8  and  O3_9 
REMARK    3  A    between atoms: O3_9  and  C6_10 
REMARK    4  A    between atoms: C6_10  and  O4_11 
REMARK    5  A    between atoms: O4_11  and  C7_12 
REMARK    6  A    between atoms: C7_12  and  C8_13 
REMARK    7  A    between atoms: C9_19  and  N4_20 
REMARK    8  A    between atoms: C13_28  and  O7_29 
REMARK    9  A    between atoms: O7_29  and  C14_30 
REMARK   10  A    between atoms: C15_35  and  C16_36 
REMARK   11  A    between atoms: N8_42  and  N9_44 
REMARK       I    between atoms: N9_44  and  C19_46 
REMARK   12  A    between atoms: C19_46  and  O9_48 
REMARK   13  A    between atoms: O9_48  and  C20_49 
REMARK   14  A    between atoms: C20_49  and  C21_50 
REMARK   15  A    between atoms: C21_50  and  N10_51 
REMARK   16  A    between atoms: C23_57  and  O10_58 
ROOT
HETATM    1  C2  UNL     1     -56.470  62.526  11.352  1.00  0.00     0.175 C 
HETATM    2  C3  UNL     1     -57.323  63.689  10.553  1.00  0.00     0.259 C 
HETATM    3  O2  UNL     1     -57.403  63.802   9.370  1.00  0.00    -0.270 OA
HETATM    4  N1  UNL     1     -57.528  63.965  11.821  1.00  0.00    -0.324 N 
HETATM    5  C4  UNL     1     -58.411  63.963  12.896  1.00  0.00     0.149 C 
HETATM    6  C5  UNL     1     -57.957  64.850  13.987  1.00  0.00     0.171 C 
HETATM    7  C10 UNL     1     -56.510  64.738  14.369  1.00  0.00     0.161 C 
HETATM    8  S1  UNL     1     -55.742  66.408  14.191  1.00  0.00    -0.081 SA
HETATM    9  C11 UNL     1     -55.780  63.883  13.417  1.00  0.00     0.170 C 
HETATM   10  O6  UNL     1     -54.882  63.186  13.940  1.00  0.00    -0.294 OA
HETATM   11  C12 UNL     1     -56.102  63.881  12.024  1.00  0.00     0.203 C 
HETATM   12  C13 UNL     1     -58.282  62.427  13.228  1.00  0.00     0.165 C 
HETATM   13  C15 UNL     1     -57.513  61.765  12.084  1.00  0.00     0.079 C 
ENDROOT
BRANCH  13  14
HETATM   14  C16 UNL     1     -58.491  61.090  11.140  1.00  0.00     0.090 C 
HETATM   15  C17 UNL     1     -57.863  60.428   9.976  1.00  0.00     0.048 C 
HETATM   16  N7  UNL     1     -57.779  60.890   8.793  1.00  0.00    -0.399 N 
HETATM   17  C18 UNL     1     -57.337  59.105  10.318  1.00  0.00     0.112 C 
ATOM     18  H72 UNL     1     -58.146  61.812   8.555  1.00  0.00     0.156 HD
ATOM     19  H71 UNL     1     -57.346  60.434   7.990  1.00  0.00     0.156 HD
HETATM   20  N8  UNL     1     -56.537  58.322   9.741  1.00  0.00    -0.288 N 
HETATM   21  S2  UNL     1     -58.101  58.698  11.932  1.00  0.00    -0.071 SA
ATOM     22  H8  UNL     1     -56.358  57.447  10.234  1.00  0.00     0.188 HD
HETATM   23  C22 UNL     1     -59.321  60.047  11.769  1.00  0.00     0.017 C 
HETATM   24  C23 UNL     1     -60.562  59.897  12.109  1.00  0.00     0.146 C 
BRANCH  20  25
HETATM   25  N9  UNL     1     -55.870  58.465   8.547  1.00  0.00    -0.244 N 
HETATM   26  C19 UNL     1     -54.506  58.846   8.545  1.00  0.00     0.379 C 
HETATM   27  O8  UNL     1     -53.900  59.054   9.652  1.00  0.00    -0.237 OA
ATOM     28  H9  UNL     1     -56.355  58.297   7.666  1.00  0.00     0.192 HD
BRANCH  26  29
HETATM   29  O9  UNL     1     -53.760  59.012   7.406  1.00  0.00    -0.301 OA
BRANCH  29  30
HETATM   30  C20 UNL     1     -52.386  59.183   7.316  1.00  0.00     0.207 C 
BRANCH  30  31
HETATM   31  C21 UNL     1     -51.955  60.331   6.441  1.00  0.00     0.256 C 
BRANCH  31  32
HETATM   32  N10 UNL     1     -50.541  60.569   6.747  1.00  0.00    -0.077 N 
ATOM     33 3H10 UNL     1     -50.298  60.372   7.718  1.00  0.00     0.274 HD
ATOM     34 2H10 UNL     1     -49.913  59.887   6.321  1.00  0.00     0.274 HD
ATOM     35 1H10 UNL     1     -50.347  61.531   6.467  1.00  0.00     0.274 HD
ENDBRANCH  31  32
ENDBRANCH  30  31
ENDBRANCH  29  30
ENDBRANCH  26  29
ENDBRANCH  20  25
BRANCH  24  36
HETATM   36  O10 UNL     1     -61.549  60.882  11.905  1.00  0.00    -0.372 OA
ATOM     37  H10 UNL     1     -62.259  60.792  11.280  1.00  0.00     0.216 HD
ENDBRANCH  24  36
ENDBRANCH  13  14
BRANCH   1  38
HETATM   38  O1  UNL     1     -55.533  62.014  10.644  1.00  0.00    -0.372 OA
HETATM   39  C1  UNL     1     -54.211  62.250  10.805  1.00  0.00     0.203 C 
ENDBRANCH   1  38
BRANCH  12  40
HETATM   40  O7  UNL     1     -57.964  62.065  14.492  1.00  0.00    -0.317 OA
BRANCH  40  41
HETATM   41  C14 UNL     1     -58.839  61.778  15.526  1.00  0.00     0.225 C 
HETATM   42  N5  UNL     1     -59.459  60.643  15.390  1.00  0.00    -0.368 N 
ATOM     43  H52 UNL     1     -59.307  60.029  14.590  1.00  0.00     0.159 HD
ATOM     44  H51 UNL     1     -60.103  60.431  16.151  1.00  0.00     0.159 HD
HETATM   45  N6  UNL     1     -59.050  62.628  16.633  1.00  0.00    -0.057 NA
ENDBRANCH  40  41
ENDBRANCH  12  40
BRANCH   6  46
HETATM   46  O3  UNL     1     -58.208  66.216  13.609  1.00  0.00    -0.358 OA
BRANCH  46  47
HETATM   47  C6  UNL     1     -59.540  66.478  13.993  1.00  0.00     0.338 C 
BRANCH  47  48
HETATM   48  O4  UNL     1     -60.203  67.165  13.011  1.00  0.00    -0.361 OA
BRANCH  48  49
HETATM   49  C7  UNL     1     -61.341  66.590  12.579  1.00  0.00     0.233 C 
BRANCH  49  50
HETATM   50  C8  UNL     1     -61.412  66.081  11.213  1.00  0.00     0.103 A 
HETATM   51  N2  UNL     1     -61.478  66.755  10.080  1.00  0.00    -0.240 N 
HETATM   52  O5  UNL     1     -61.549  65.935   9.088  1.00  0.00    -0.155 OA
ATOM     53  H2  UNL     1     -61.473  67.772  10.001  1.00  0.00     0.196 HD
HETATM   54  N3  UNL     1     -61.535  64.707   9.502  1.00  0.00    -0.224 N 
HETATM   55  C9  UNL     1     -61.449  64.726  10.838  1.00  0.00     0.148 A 
ATOM     56  H3  UNL     1     -61.581  63.874   8.914  1.00  0.00     0.198 HD
BRANCH  55  57
HETATM   57  N4  UNL     1     -61.412  63.714  11.595  1.00  0.00    -0.382 N 
ATOM     58  H42 UNL     1     -61.967  63.576  12.440  1.00  0.00     0.157 HD
ATOM     59  H41 UNL     1     -60.832  62.881  11.493  1.00  0.00     0.157 HD
ENDBRANCH  55  57
ENDBRANCH  49  50
ENDBRANCH  48  49
ENDBRANCH  47  48
ENDBRANCH  46  47
ENDBRANCH   6  46
TORSDOF 16
ENDMDL
