MODEL 1
REMARK VINA RESULT: -9.513547485      0.000      0.000
REMARK  12 active torsions:
REMARK  status: ('A' for Active; 'I' for Inactive)
REMARK    1  A    between atoms: C2_2  and  N1_3 
REMARK    2  A    between atoms: N1_3  and  S1_5 
REMARK    3  A    between atoms: S1_5  and  C3_8 
REMARK    4  A    between atoms: C3_8  and  C4_9 
REMARK    5  A    between atoms: C8_13  and  C9_14 
REMARK    6  A    between atoms: C9_14  and  N2_15 
REMARK       I    between atoms: N2_15  and  C10_17 
REMARK       I    between atoms: C10_17  and  N3_19 
REMARK    7  A    between atoms: N3_19  and  C11_21 
REMARK    8  A    between atoms: C11_21  and  C12_22 
REMARK    9  A    between atoms: C11_21  and  C14_24 
REMARK   10  A    between atoms: C14_24  and  O4_25 
REMARK   11  A    between atoms: O4_25  and  C15_26 
REMARK   12  A    between atoms: C15_26  and  C16_27 
ROOT
HETATM    1  C9  UNL     1      10.065  42.312  66.144  1.00  0.00     0.129 C 
ENDROOT
BRANCH   1   2
HETATM    2  C8  UNL     1      11.589  42.475  66.254  1.00  0.00     0.004 C 
HETATM    3  C7  UNL     1      12.173  41.105  66.518  1.00  0.00     0.006 C 
HETATM    4  C6  UNL     1      12.904  40.463  65.412  1.00  0.00     0.001 C 
HETATM    5  C5  UNL     1      13.759  41.322  64.583  1.00  0.00     0.005 C 
HETATM    6  C4  UNL     1      13.638  42.812  64.785  1.00  0.00     0.001 C 
HETATM    7  C19 UNL     1      12.186  43.148  65.056  1.00  0.00     0.012 C 
BRANCH   6   8
HETATM    8  C3  UNL     1      14.553  43.252  65.876  1.00  0.00     0.167 C 
BRANCH   8   9
HETATM    9  S1  UNL     1      16.264  43.244  65.486  1.00  0.00     0.226 S 
HETATM   10  O1  UNL     1      16.523  42.536  64.158  1.00  0.00    -0.206 OA
HETATM   11  O2  UNL     1      16.914  44.575  65.542  1.00  0.00    -0.206 OA
BRANCH   9  12
HETATM   12  N1  UNL     1      17.062  42.235  66.679  1.00  0.00    -0.320 N 
ATOM     13  H1  UNL     1      16.757  41.305  66.970  1.00  0.00     0.172 HD
BRANCH  12  14
HETATM   14  C2  UNL     1      18.232  42.943  67.186  1.00  0.00     0.127 C 
HETATM   15  C1  UNL     1      19.424  42.021  67.058  1.00  0.00     0.027 C 
ENDBRANCH  12  14
ENDBRANCH   9  12
ENDBRANCH   8   9
ENDBRANCH   6   8
ENDBRANCH   1   2
BRANCH   1  16
HETATM   16  N2  UNL     1       9.425  42.104  67.383  1.00  0.00    -0.343 N 
HETATM   17  C10 UNL     1       8.913  40.843  67.753  1.00  0.00     0.320 C 
HETATM   18  O3  UNL     1       9.012  39.902  66.906  1.00  0.00    -0.247 OA
HETATM   19  N3  UNL     1       8.309  40.579  68.995  1.00  0.00    -0.314 N 
ATOM     20  H3  UNL     1       8.276  41.366  69.644  1.00  0.00     0.170 HD
ATOM     21  H2  UNL     1       9.328  42.887  68.029  1.00  0.00     0.164 HD
BRANCH  19  22
HETATM   22  C11 UNL     1       7.735  39.363  69.472  1.00  0.00     0.014 C 
BRANCH  22  23
HETATM   23  C12 UNL     1       7.134  38.474  68.422  1.00  0.00     0.050 C 
HETATM   24  C13 UNL     1       7.470  37.007  68.749  1.00  0.00     0.011 C 
ENDBRANCH  22  23
BRANCH  22  25
HETATM   25  C14 UNL     1       8.531  38.670  70.520  1.00  0.00     0.220 C 
BRANCH  25  26
HETATM   26  O4  UNL     1       8.016  38.541  71.764  1.00  0.00    -0.385 OA
BRANCH  26  27
HETATM   27  C15 UNL     1       7.677  37.342  72.274  1.00  0.00     0.172 C 
BRANCH  27  28
HETATM   28  C16 UNL     1       8.781  36.532  72.882  1.00  0.00     0.001 C 
HETATM   29  C17 UNL     1       9.059  35.272  72.064  1.00  0.00     0.011 C 
HETATM   30  C18 UNL     1       8.423  36.140  74.270  1.00  0.00     0.011 C 
ENDBRANCH  27  28
ENDBRANCH  26  27
ENDBRANCH  25  26
ENDBRANCH  22  25
ENDBRANCH  19  22
ENDBRANCH   1  16
TORSDOF 12
ENDMDL
MODEL 2
REMARK VINA RESULT: -9.413651895      4.902      8.740
REMARK  12 active torsions:
REMARK  status: ('A' for Active; 'I' for Inactive)
REMARK    1  A    between atoms: C2_2  and  N1_3 
REMARK    2  A    between atoms: N1_3  and  S1_5 
REMARK    3  A    between atoms: S1_5  and  C3_8 
REMARK    4  A    between atoms: C3_8  and  C4_9 
REMARK    5  A    between atoms: C8_13  and  C9_14 
REMARK    6  A    between atoms: C9_14  and  N2_15 
REMARK       I    between atoms: N2_15  and  C10_17 
REMARK       I    between atoms: C10_17  and  N3_19 
REMARK    7  A    between atoms: N3_19  and  C11_21 
REMARK    8  A    between atoms: C11_21  and  C12_22 
REMARK    9  A    between atoms: C11_21  and  C14_24 
REMARK   10  A    between atoms: C14_24  and  O4_25 
REMARK   11  A    between atoms: O4_25  and  C15_26 
REMARK   12  A    between atoms: C15_26  and  C16_27 
ROOT
HETATM    1  C9  UNL     1      18.370  44.488  69.758  1.00  0.00     0.129 C 
ENDROOT
BRANCH   1   2
HETATM    2  C8  UNL     1      19.532  43.591  70.210  1.00  0.00     0.004 C 
HETATM    3  C7  UNL     1      19.476  43.504  71.719  1.00  0.00     0.006 C 
HETATM    4  C6  UNL     1      19.027  42.227  72.301  1.00  0.00     0.001 C 
HETATM    5  C5  UNL     1      19.490  40.994  71.654  1.00  0.00     0.005 C 
HETATM    6  C4  UNL     1      20.187  41.135  70.323  1.00  0.00     0.001 C 
HETATM    7  C19 UNL     1      19.520  42.249  69.543  1.00  0.00     0.012 C 
BRANCH   6   8
HETATM    8  C3  UNL     1      21.644  41.363  70.536  1.00  0.00     0.167 C 
BRANCH   8   9
HETATM    9  S1  UNL     1      22.711  40.643  69.344  1.00  0.00     0.226 S 
HETATM   10  O1  UNL     1      24.000  41.450  69.198  1.00  0.00    -0.206 OA
HETATM   11  O2  UNL     1      22.981  39.200  69.550  1.00  0.00    -0.206 OA
BRANCH   9  12
HETATM   12  N1  UNL     1      21.924  40.798  67.784  1.00  0.00    -0.320 N 
ATOM     13  H1  UNL     1      21.267  40.130  67.381  1.00  0.00     0.172 HD
BRANCH  12  14
HETATM   14  C2  UNL     1      22.364  42.040  67.158  1.00  0.00     0.127 C 
HETATM   15  C1  UNL     1      21.192  42.615  66.393  1.00  0.00     0.027 C 
ENDBRANCH  12  14
ENDBRANCH   9  12
ENDBRANCH   8   9
ENDBRANCH   6   8
ENDBRANCH   1   2
BRANCH   1  16
HETATM   16  N2  UNL     1      17.318  43.785  69.135  1.00  0.00    -0.343 N 
HETATM   17  C10 UNL     1      17.033  43.935  67.762  1.00  0.00     0.320 C 
HETATM   18  O3  UNL     1      17.736  44.765  67.108  1.00  0.00    -0.247 OA
HETATM   19  N3  UNL     1      16.024  43.219  67.092  1.00  0.00    -0.314 N 
ATOM     20  H3  UNL     1      15.506  42.550  67.662  1.00  0.00     0.170 HD
ATOM     21  H2  UNL     1      16.747  43.150  69.694  1.00  0.00     0.164 HD
BRANCH  19  22
HETATM   22  C11 UNL     1      15.627  43.301  65.724  1.00  0.00     0.014 C 
BRANCH  22  23
HETATM   23  C12 UNL     1      16.564  42.668  64.737  1.00  0.00     0.050 C 
HETATM   24  C13 UNL     1      15.829  41.535  63.997  1.00  0.00     0.011 C 
ENDBRANCH  22  23
BRANCH  22  25
HETATM   25  C14 UNL     1      14.180  43.058  65.482  1.00  0.00     0.220 C 
BRANCH  25  26
HETATM   26  O4  UNL     1      13.456  42.397  66.413  1.00  0.00    -0.385 OA
BRANCH  26  27
HETATM   27  C15 UNL     1      12.383  41.652  66.085  1.00  0.00     0.172 C 
BRANCH  27  28
HETATM   28  C16 UNL     1      11.044  42.180  66.503  1.00  0.00     0.001 C 
HETATM   29  C17 UNL     1      10.095  41.044  66.886  1.00  0.00     0.011 C 
HETATM   30  C18 UNL     1      10.437  42.967  65.399  1.00  0.00     0.011 C 
ENDBRANCH  27  28
ENDBRANCH  26  27
ENDBRANCH  25  26
ENDBRANCH  22  25
ENDBRANCH  19  22
ENDBRANCH   1  16
TORSDOF 12
ENDMDL
MODEL 3
REMARK VINA RESULT: -9.184281042      4.546      8.181
REMARK  12 active torsions:
REMARK  status: ('A' for Active; 'I' for Inactive)
REMARK    1  A    between atoms: C2_2  and  N1_3 
REMARK    2  A    between atoms: N1_3  and  S1_5 
REMARK    3  A    between atoms: S1_5  and  C3_8 
REMARK    4  A    between atoms: C3_8  and  C4_9 
REMARK    5  A    between atoms: C8_13  and  C9_14 
REMARK    6  A    between atoms: C9_14  and  N2_15 
REMARK       I    between atoms: N2_15  and  C10_17 
REMARK       I    between atoms: C10_17  and  N3_19 
REMARK    7  A    between atoms: N3_19  and  C11_21 
REMARK    8  A    between atoms: C11_21  and  C12_22 
REMARK    9  A    between atoms: C11_21  and  C14_24 
REMARK   10  A    between atoms: C14_24  and  O4_25 
REMARK   11  A    between atoms: O4_25  and  C15_26 
REMARK   12  A    between atoms: C15_26  and  C16_27 
ROOT
HETATM    1  C9  UNL     1      17.446  44.982  68.387  1.00  0.00     0.129 C 
ENDROOT
BRANCH   1   2
HETATM    2  C8  UNL     1      18.321  44.338  69.472  1.00  0.00     0.004 C 
HETATM    3  C7  UNL     1      17.669  44.621  70.807  1.00  0.00     0.006 C 
HETATM    4  C6  UNL     1      17.011  43.490  71.485  1.00  0.00     0.001 C 
HETATM    5  C5  UNL     1      17.679  42.185  71.416  1.00  0.00     0.005 C 
HETATM    6  C4  UNL     1      18.848  42.059  70.472  1.00  0.00     0.001 C 
HETATM    7  C19 UNL     1      18.560  42.879  69.231  1.00  0.00     0.012 C 
BRANCH   6   8
HETATM    8  C3  UNL     1      20.104  42.469  71.163  1.00  0.00     0.167 C 
BRANCH   8   9
HETATM    9  S1  UNL     1      20.945  41.197  72.032  1.00  0.00     0.226 S 
HETATM   10  O1  UNL     1      22.411  41.562  72.259  1.00  0.00    -0.206 OA
HETATM   11  O2  UNL     1      20.281  40.764  73.284  1.00  0.00    -0.206 OA
BRANCH   9  12
HETATM   12  N1  UNL     1      21.005  39.799  70.975  1.00  0.00    -0.320 N 
ATOM     13  H1  UNL     1      20.410  38.973  71.047  1.00  0.00     0.172 HD
BRANCH  12  14
HETATM   14  C2  UNL     1      22.045  40.012  69.974  1.00  0.00     0.127 C 
HETATM   15  C1  UNL     1      21.380  40.056  68.616  1.00  0.00     0.027 C 
ENDBRANCH  12  14
ENDBRANCH   9  12
ENDBRANCH   8   9
ENDBRANCH   6   8
ENDBRANCH   1   2
BRANCH   1  16
HETATM   16  N2  UNL     1      16.301  44.227  68.057  1.00  0.00    -0.343 N 
HETATM   17  C10 UNL     1      15.963  43.935  66.719  1.00  0.00     0.320 C 
HETATM   18  O3  UNL     1      16.708  44.417  65.811  1.00  0.00    -0.247 OA
HETATM   19  N3  UNL     1      14.858  43.148  66.348  1.00  0.00    -0.314 N 
ATOM     20  H3  UNL     1      14.308  42.769  67.119  1.00  0.00     0.170 HD
ATOM     21  H2  UNL     1      15.702  43.883  68.806  1.00  0.00     0.164 HD
BRANCH  19  22
HETATM   22  C11 UNL     1      14.402  42.806  65.040  1.00  0.00     0.014 C 
BRANCH  22  23
HETATM   23  C12 UNL     1      14.908  41.501  64.497  1.00  0.00     0.050 C 
HETATM   24  C13 UNL     1      16.303  41.716  63.880  1.00  0.00     0.011 C 
ENDBRANCH  22  23
BRANCH  22  25
HETATM   25  C14 UNL     1      12.964  43.090  64.789  1.00  0.00     0.220 C 
BRANCH  25  26
HETATM   26  O4  UNL     1      12.086  43.009  65.814  1.00  0.00    -0.385 OA
BRANCH  26  27
HETATM   27  C15 UNL     1      11.575  41.832  66.223  1.00  0.00     0.172 C 
BRANCH  27  28
HETATM   28  C16 UNL     1      10.237  41.876  66.897  1.00  0.00     0.001 C 
HETATM   29  C17 UNL     1       9.652  40.474  67.060  1.00  0.00     0.011 C 
HETATM   30  C18 UNL     1       9.293  42.708  66.108  1.00  0.00     0.011 C 
ENDBRANCH  27  28
ENDBRANCH  26  27
ENDBRANCH  25  26
ENDBRANCH  22  25
ENDBRANCH  19  22
ENDBRANCH   1  16
TORSDOF 12
ENDMDL
MODEL 4
REMARK VINA RESULT: -9.122860108      4.332      7.924
REMARK  12 active torsions:
REMARK  status: ('A' for Active; 'I' for Inactive)
REMARK    1  A    between atoms: C2_2  and  N1_3 
REMARK    2  A    between atoms: N1_3  and  S1_5 
REMARK    3  A    between atoms: S1_5  and  C3_8 
REMARK    4  A    between atoms: C3_8  and  C4_9 
REMARK    5  A    between atoms: C8_13  and  C9_14 
REMARK    6  A    between atoms: C9_14  and  N2_15 
REMARK       I    between atoms: N2_15  and  C10_17 
REMARK       I    between atoms: C10_17  and  N3_19 
REMARK    7  A    between atoms: N3_19  and  C11_21 
REMARK    8  A    between atoms: C11_21  and  C12_22 
REMARK    9  A    between atoms: C11_21  and  C14_24 
REMARK   10  A    between atoms: C14_24  and  O4_25 
REMARK   11  A    between atoms: O4_25  and  C15_26 
REMARK   12  A    between atoms: C15_26  and  C16_27 
ROOT
HETATM    1  C9  UNL     1      17.536  45.264  68.289  1.00  0.00     0.129 C 
ENDROOT
BRANCH   1   2
HETATM    2  C8  UNL     1      18.747  44.553  68.910  1.00  0.00     0.004 C 
HETATM    3  C7  UNL     1      18.468  44.390  70.387  1.00  0.00     0.006 C 
HETATM    4  C6  UNL     1      18.159  43.032  70.866  1.00  0.00     0.001 C 
HETATM    5  C5  UNL     1      18.922  41.923  70.281  1.00  0.00     0.005 C 
HETATM    6  C4  UNL     1      19.786  42.238  69.085  1.00  0.00     0.001 C 
HETATM    7  C19 UNL     1      19.071  43.260  68.227  1.00  0.00     0.012 C 
BRANCH   6   8
HETATM    8  C3  UNL     1      21.131  42.694  69.538  1.00  0.00     0.167 C 
BRANCH   8   9
HETATM    9  S1  UNL     1      22.495  42.078  68.622  1.00  0.00     0.226 S 
HETATM   10  O1  UNL     1      22.572  42.731  67.243  1.00  0.00    -0.206 OA
HETATM   11  O2  UNL     1      23.792  42.134  69.336  1.00  0.00    -0.206 OA
BRANCH   9  12
HETATM   12  N1  UNL     1      22.169  40.387  68.284  1.00  0.00    -0.320 N 
ATOM     13  H1  UNL     1      21.710  40.027  67.447  1.00  0.00     0.172 HD
BRANCH  12  14
HETATM   14  C2  UNL     1      22.664  39.583  69.395  1.00  0.00     0.127 C 
HETATM   15  C1  UNL     1      21.473  39.155  70.225  1.00  0.00     0.027 C 
ENDBRANCH  12  14
ENDBRANCH   9  12
ENDBRANCH   8   9
ENDBRANCH   6   8
ENDBRANCH   1   2
BRANCH   1  16
HETATM   16  N2  UNL     1      16.425  44.421  68.084  1.00  0.00    -0.343 N 
HETATM   17  C10 UNL     1      16.005  44.043  66.792  1.00  0.00     0.320 C 
HETATM   18  O3  UNL     1      16.642  44.529  65.807  1.00  0.00    -0.247 OA
HETATM   19  N3  UNL     1      14.932  43.168  66.544  1.00  0.00    -0.314 N 
ATOM     20  H3  UNL     1      14.471  42.792  67.372  1.00  0.00     0.170 HD
ATOM     21  H2  UNL     1      15.910  44.074  68.893  1.00  0.00     0.164 HD
BRANCH  19  22
HETATM   22  C11 UNL     1      14.401  42.735  65.292  1.00  0.00     0.014 C 
BRANCH  22  23
HETATM   23  C12 UNL     1      15.005  41.480  64.731  1.00  0.00     0.050 C 
HETATM   24  C13 UNL     1      16.194  41.852  63.826  1.00  0.00     0.011 C 
ENDBRANCH  22  23
BRANCH  22  25
HETATM   25  C14 UNL     1      12.923  42.844  65.174  1.00  0.00     0.220 C 
BRANCH  25  26
HETATM   26  O4  UNL     1      12.152  42.583  66.253  1.00  0.00    -0.385 OA
BRANCH  26  27
HETATM   27  C15 UNL     1      11.403  41.467  66.341  1.00  0.00     0.172 C 
BRANCH  27  28
HETATM   28  C16 UNL     1      10.061  41.606  66.995  1.00  0.00     0.001 C 
HETATM   29  C17 UNL     1       9.331  40.265  67.051  1.00  0.00     0.011 C 
HETATM   30  C18 UNL     1       9.227  42.583  66.249  1.00  0.00     0.011 C 
ENDBRANCH  27  28
ENDBRANCH  26  27
ENDBRANCH  25  26
ENDBRANCH  22  25
ENDBRANCH  19  22
ENDBRANCH   1  16
TORSDOF 12
ENDMDL
MODEL 5
REMARK VINA RESULT: -9.072626638      2.914      9.759
REMARK  12 active torsions:
REMARK  status: ('A' for Active; 'I' for Inactive)
REMARK    1  A    between atoms: C2_2  and  N1_3 
REMARK    2  A    between atoms: N1_3  and  S1_5 
REMARK    3  A    between atoms: S1_5  and  C3_8 
REMARK    4  A    between atoms: C3_8  and  C4_9 
REMARK    5  A    between atoms: C8_13  and  C9_14 
REMARK    6  A    between atoms: C9_14  and  N2_15 
REMARK       I    between atoms: N2_15  and  C10_17 
REMARK       I    between atoms: C10_17  and  N3_19 
REMARK    7  A    between atoms: N3_19  and  C11_21 
REMARK    8  A    between atoms: C11_21  and  C12_22 
REMARK    9  A    between atoms: C11_21  and  C14_24 
REMARK   10  A    between atoms: C14_24  and  O4_25 
REMARK   11  A    between atoms: O4_25  and  C15_26 
REMARK   12  A    between atoms: C15_26  and  C16_27 
ROOT
HETATM    1  C9  UNL     1       9.908  41.629  66.473  1.00  0.00     0.129 C 
ENDROOT
BRANCH   1   2
HETATM    2  C8  UNL     1       9.499  40.925  67.775  1.00  0.00     0.004 C 
HETATM    3  C7  UNL     1       8.566  41.856  68.518  1.00  0.00     0.006 C 
HETATM    4  C6  UNL     1       7.139  41.489  68.553  1.00  0.00     0.001 C 
HETATM    5  C5  UNL     1       6.815  40.067  68.720  1.00  0.00     0.005 C 
HETATM    6  C4  UNL     1       7.954  39.084  68.609  1.00  0.00     0.001 C 
HETATM    7  C19 UNL     1       8.909  39.568  67.538  1.00  0.00     0.012 C 
BRANCH   6   8
HETATM    8  C3  UNL     1       8.605  38.911  69.938  1.00  0.00     0.167 C 
BRANCH   8   9
HETATM    9  S1  UNL     1       7.966  37.619  70.939  1.00  0.00     0.226 S 
HETATM   10  O1  UNL     1       6.726  38.077  71.703  1.00  0.00    -0.206 OA
HETATM   11  O2  UNL     1       7.736  36.342  70.222  1.00  0.00    -0.206 OA
BRANCH   9  12
HETATM   12  N1  UNL     1       9.153  37.298  72.190  1.00  0.00    -0.320 N 
ATOM     13  H1  UNL     1      10.017  37.819  72.336  1.00  0.00     0.172 HD
BRANCH  12  14
HETATM   14  C2  UNL     1       8.699  36.162  72.985  1.00  0.00     0.127 C 
HETATM   15  C1  UNL     1       9.667  35.021  72.759  1.00  0.00     0.027 C 
ENDBRANCH  12  14
ENDBRANCH   9  12
ENDBRANCH   8   9
ENDBRANCH   6   8
ENDBRANCH   1   2
BRANCH   1  16
HETATM   16  N2  UNL     1      11.051  42.444  66.602  1.00  0.00    -0.343 N 
HETATM   17  C10 UNL     1      12.317  42.032  66.135  1.00  0.00     0.320 C 
HETATM   18  O3  UNL     1      12.400  40.871  65.627  1.00  0.00    -0.247 OA
HETATM   19  N3  UNL     1      13.472  42.831  66.201  1.00  0.00    -0.314 N 
ATOM     20  H3  UNL     1      13.341  43.762  66.598  1.00  0.00     0.170 HD
ATOM     21  H2  UNL     1      10.961  43.358  67.046  1.00  0.00     0.164 HD
BRANCH  19  22
HETATM   22  C11 UNL     1      14.802  42.518  65.789  1.00  0.00     0.014 C 
BRANCH  22  23
HETATM   23  C12 UNL     1      14.973  42.205  64.331  1.00  0.00     0.050 C 
HETATM   24  C13 UNL     1      16.445  41.842  64.060  1.00  0.00     0.011 C 
ENDBRANCH  22  23
BRANCH  22  25
HETATM   25  C14 UNL     1      15.856  43.379  66.388  1.00  0.00     0.220 C 
BRANCH  25  26
HETATM   26  O4  UNL     1      16.605  42.897  67.405  1.00  0.00    -0.385 OA
BRANCH  26  27
HETATM   27  C15 UNL     1      17.913  43.192  67.528  1.00  0.00     0.172 C 
BRANCH  27  28
HETATM   28  C16 UNL     1      18.868  42.380  66.706  1.00  0.00     0.001 C 
HETATM   29  C17 UNL     1      19.884  41.657  67.589  1.00  0.00     0.011 C 
HETATM   30  C18 UNL     1      19.592  43.255  65.749  1.00  0.00     0.011 C 
ENDBRANCH  27  28
ENDBRANCH  26  27
ENDBRANCH  25  26
ENDBRANCH  22  25
ENDBRANCH  19  22
ENDBRANCH   1  16
TORSDOF 12
ENDMDL
