MODEL 1
REMARK VINA RESULT: -9.724104127      0.000      0.000
REMARK  12 active torsions:
REMARK  status: ('A' for Active; 'I' for Inactive)
REMARK    1  A    between atoms: C2_2  and  C3_3 
REMARK    2  A    between atoms: C3_3  and  C5_5 
REMARK    3  A    between atoms: C5_5  and  C6_6 
REMARK    4  A    between atoms: C11_11  and  C12_12 
REMARK    5  A    between atoms: C12_12  and  C13_13 
REMARK    6  A    between atoms: C13_13  and  N1_14 
REMARK    7  A    between atoms: C13_13  and  C16_20 
REMARK       I    between atoms: N1_14  and  C14_16 
REMARK    8  A    between atoms: C14_16  and  C15_18 
REMARK       I    between atoms: C16_20  and  N2_22 
REMARK    9  A    between atoms: N2_22  and  C17_24 
REMARK   10  A    between atoms: C17_24  and  C18_25 
REMARK   11  A    between atoms: C17_24  and  C19_28 
REMARK   12  A    between atoms: C19_28  and  C21_30 
ROOT
HETATM    1  C13 UNL     1      17.059  44.603  68.149  1.00  0.00     0.177 C 
ENDROOT
BRANCH   1   2
HETATM    2  C12 UNL     1      18.416  45.079  67.861  1.00  0.00     0.040 C 
BRANCH   2   3
HETATM    3  C11 UNL     1      19.530  44.122  67.717  1.00  0.00    -0.008 C 
HETATM    4  C6  UNL     1      20.549  44.128  68.852  1.00  0.00    -0.010 C 
HETATM    5  C7  UNL     1      21.895  43.951  68.300  1.00  0.00     0.005 C 
HETATM    6  C8  UNL     1      22.025  42.784  67.330  1.00  0.00     0.000 C 
HETATM    7  C9  UNL     1      20.955  42.764  66.297  1.00  0.00     0.000 C 
HETATM    8  C10 UNL     1      20.186  44.081  66.385  1.00  0.00     0.005 C 
BRANCH   4   9
HETATM    9  C5  UNL     1      20.036  43.326  69.954  1.00  0.00     0.009 C 
BRANCH   9  10
HETATM   10  C3  UNL     1      19.362  42.040  69.832  1.00  0.00    -0.019 C 
HETATM   11  C4  UNL     1      20.487  40.957  70.029  1.00  0.00     0.010 C 
BRANCH  10  12
HETATM   12  C2  UNL     1      18.388  41.724  70.906  1.00  0.00    -0.000 C 
HETATM   13  C1  UNL     1      19.028  40.824  71.982  1.00  0.00     0.005 C 
ENDBRANCH  10  12
ENDBRANCH   9  10
ENDBRANCH   4   9
ENDBRANCH   2   3
ENDBRANCH   1   2
BRANCH   1  14
HETATM   14  N1  UNL     1      16.169  45.516  68.817  1.00  0.00    -0.342 N 
HETATM   15  C14 UNL     1      15.806  45.447  70.193  1.00  0.00     0.279 C 
HETATM   16  O1  UNL     1      16.268  44.538  70.939  1.00  0.00    -0.265 OA
ATOM     17  H1  UNL     1      15.768  46.273  68.262  1.00  0.00     0.163 HD
BRANCH  15  18
HETATM   18  C15 UNL     1      14.898  46.409  70.796  1.00  0.00     0.332 C 
HETATM   19  O2  UNL     1      14.600  47.504  70.246  1.00  0.00    -0.297 OA
ENDBRANCH  15  18
ENDBRANCH   1  14
BRANCH   1  20
HETATM   20  C16 UNL     1      16.378  44.216  66.891  1.00  0.00     0.241 C 
HETATM   21  O3  UNL     1      16.811  44.760  65.821  1.00  0.00    -0.271 OA
HETATM   22  N2  UNL     1      15.309  43.317  66.746  1.00  0.00    -0.346 N 
ATOM     23  H2  UNL     1      14.939  42.857  67.578  1.00  0.00     0.163 HD
BRANCH  22  24
HETATM   24  C17 UNL     1      14.701  43.013  65.442  1.00  0.00     0.177 C 
BRANCH  24  25
HETATM   25  C18 UNL     1      15.545  42.040  64.711  1.00  0.00     0.254 C 
HETATM   26  N3  UNL     1      16.387  41.068  65.249  1.00  0.00    -0.060 NA
HETATM   27  O4  UNL     1      15.505  42.082  63.427  1.00  0.00    -0.275 OA
ENDBRANCH  24  25
BRANCH  24  28
HETATM   28  C19 UNL     1      13.271  42.641  65.602  1.00  0.00     0.013 C 
HETATM   29  C20 UNL     1      13.018  41.159  65.603  1.00  0.00     0.012 C 
BRANCH  28  30
HETATM   30  C21 UNL     1      12.375  43.319  64.636  1.00  0.00     0.002 C 
HETATM   31  C22 UNL     1      10.907  43.154  65.073  1.00  0.00     0.005 C 
ENDBRANCH  28  30
ENDBRANCH  24  28
ENDBRANCH  22  24
ENDBRANCH   1  20
TORSDOF 12
ENDMDL
MODEL 2
REMARK VINA RESULT: -9.395110720      0.986      1.117
REMARK  12 active torsions:
REMARK  status: ('A' for Active; 'I' for Inactive)
REMARK    1  A    between atoms: C2_2  and  C3_3 
REMARK    2  A    between atoms: C3_3  and  C5_5 
REMARK    3  A    between atoms: C5_5  and  C6_6 
REMARK    4  A    between atoms: C11_11  and  C12_12 
REMARK    5  A    between atoms: C12_12  and  C13_13 
REMARK    6  A    between atoms: C13_13  and  N1_14 
REMARK    7  A    between atoms: C13_13  and  C16_20 
REMARK       I    between atoms: N1_14  and  C14_16 
REMARK    8  A    between atoms: C14_16  and  C15_18 
REMARK       I    between atoms: C16_20  and  N2_22 
REMARK    9  A    between atoms: N2_22  and  C17_24 
REMARK   10  A    between atoms: C17_24  and  C18_25 
REMARK   11  A    between atoms: C17_24  and  C19_28 
REMARK   12  A    between atoms: C19_28  and  C21_30 
ROOT
HETATM    1  C13 UNL     1      17.005  44.411  68.375  1.00  0.00     0.177 C 
ENDROOT
BRANCH   1   2
HETATM    2  C12 UNL     1      18.333  45.006  68.193  1.00  0.00     0.040 C 
BRANCH   2   3
HETATM    3  C11 UNL     1      19.515  44.148  67.986  1.00  0.00    -0.008 C 
HETATM    4  C6  UNL     1      20.551  44.178  69.106  1.00  0.00    -0.010 C 
HETATM    5  C7  UNL     1      21.897  44.133  68.528  1.00  0.00     0.005 C 
HETATM    6  C8  UNL     1      22.100  43.029  67.499  1.00  0.00     0.000 C 
HETATM    7  C9  UNL     1      21.017  42.976  66.481  1.00  0.00     0.000 C 
HETATM    8  C10 UNL     1      20.149  44.223  66.646  1.00  0.00     0.005 C 
BRANCH   4   9
HETATM    9  C5  UNL     1      20.121  43.285  70.174  1.00  0.00     0.009 C 
BRANCH   9  10
HETATM   10  C3  UNL     1      19.466  41.996  69.996  1.00  0.00    -0.019 C 
HETATM   11  C4  UNL     1      20.633  40.944  69.899  1.00  0.00     0.010 C 
BRANCH  10  12
HETATM   12  C2  UNL     1      18.668  41.518  71.152  1.00  0.00    -0.000 C 
HETATM   13  C1  UNL     1      17.304  42.234  71.213  1.00  0.00     0.005 C 
ENDBRANCH  10  12
ENDBRANCH   9  10
ENDBRANCH   4   9
ENDBRANCH   2   3
ENDBRANCH   1   2
BRANCH   1  14
HETATM   14  N1  UNL     1      16.013  45.209  69.047  1.00  0.00    -0.342 N 
HETATM   15  C14 UNL     1      16.093  46.619  69.246  1.00  0.00     0.279 C 
HETATM   16  O1  UNL     1      17.084  47.276  68.821  1.00  0.00    -0.265 OA
ATOM     17  H1  UNL     1      15.189  44.729  69.408  1.00  0.00     0.163 HD
BRANCH  15  18
HETATM   18  C15 UNL     1      15.047  47.355  69.936  1.00  0.00     0.332 C 
HETATM   19  O2  UNL     1      14.517  46.949  71.005  1.00  0.00    -0.297 OA
ENDBRANCH  15  18
ENDBRANCH   1  14
BRANCH   1  20
HETATM   20  C16 UNL     1      16.422  44.057  67.060  1.00  0.00     0.241 C 
HETATM   21  O3  UNL     1      16.731  44.814  66.080  1.00  0.00    -0.271 OA
HETATM   22  N2  UNL     1      15.567  42.980  66.772  1.00  0.00    -0.346 N 
ATOM     23  H2  UNL     1      15.303  42.349  67.528  1.00  0.00     0.163 HD
BRANCH  22  24
HETATM   24  C17 UNL     1      15.039  42.727  65.423  1.00  0.00     0.177 C 
BRANCH  24  25
HETATM   25  C18 UNL     1      15.813  41.643  64.777  1.00  0.00     0.254 C 
HETATM   26  N3  UNL     1      15.694  41.173  63.469  1.00  0.00    -0.060 NA
HETATM   27  O4  UNL     1      16.706  41.057  65.491  1.00  0.00    -0.275 OA
ENDBRANCH  24  25
BRANCH  24  28
HETATM   28  C19 UNL     1      13.565  42.537  65.464  1.00  0.00     0.013 C 
HETATM   29  C20 UNL     1      13.129  41.099  65.444  1.00  0.00     0.012 C 
BRANCH  28  30
HETATM   30  C21 UNL     1      12.844  43.311  64.425  1.00  0.00     0.002 C 
HETATM   31  C22 UNL     1      11.337  43.345  64.744  1.00  0.00     0.005 C 
ENDBRANCH  28  30
ENDBRANCH  24  28
ENDBRANCH  22  24
ENDBRANCH   1  20
TORSDOF 12
ENDMDL
MODEL 3
REMARK VINA RESULT: -9.370710393      1.170      2.777
REMARK  12 active torsions:
REMARK  status: ('A' for Active; 'I' for Inactive)
REMARK    1  A    between atoms: C2_2  and  C3_3 
REMARK    2  A    between atoms: C3_3  and  C5_5 
REMARK    3  A    between atoms: C5_5  and  C6_6 
REMARK    4  A    between atoms: C11_11  and  C12_12 
REMARK    5  A    between atoms: C12_12  and  C13_13 
REMARK    6  A    between atoms: C13_13  and  N1_14 
REMARK    7  A    between atoms: C13_13  and  C16_20 
REMARK       I    between atoms: N1_14  and  C14_16 
REMARK    8  A    between atoms: C14_16  and  C15_18 
REMARK       I    between atoms: C16_20  and  N2_22 
REMARK    9  A    between atoms: N2_22  and  C17_24 
REMARK   10  A    between atoms: C17_24  and  C18_25 
REMARK   11  A    between atoms: C17_24  and  C19_28 
REMARK   12  A    between atoms: C19_28  and  C21_30 
ROOT
HETATM    1  C13 UNL     1      16.699  44.448  68.319  1.00  0.00     0.177 C 
ENDROOT
BRANCH   1   2
HETATM    2  C12 UNL     1      18.154  44.620  68.377  1.00  0.00     0.040 C 
BRANCH   2   3
HETATM    3  C11 UNL     1      18.970  43.793  69.287  1.00  0.00    -0.008 C 
HETATM    4  C6  UNL     1      18.856  42.286  69.081  1.00  0.00    -0.010 C 
HETATM    5  C7  UNL     1      18.866  41.614  70.384  1.00  0.00     0.005 C 
HETATM    6  C8  UNL     1      19.998  42.050  71.304  1.00  0.00     0.000 C 
HETATM    7  C9  UNL     1      20.134  43.528  71.400  1.00  0.00     0.000 C 
HETATM    8  C10 UNL     1      18.918  44.160  70.725  1.00  0.00     0.005 C 
BRANCH   4   9
HETATM    9  C5  UNL     1      19.726  41.890  67.982  1.00  0.00     0.009 C 
BRANCH   9  10
HETATM   10  C3  UNL     1      21.079  42.376  67.747  1.00  0.00    -0.019 C 
HETATM   11  C4  UNL     1      22.024  41.168  68.104  1.00  0.00     0.010 C 
BRANCH  10  12
HETATM   12  C2  UNL     1      21.418  42.670  66.333  1.00  0.00    -0.000 C 
HETATM   13  C1  UNL     1      20.205  43.265  65.590  1.00  0.00     0.005 C 
ENDBRANCH  10  12
ENDBRANCH   9  10
ENDBRANCH   4   9
ENDBRANCH   2   3
ENDBRANCH   1   2
BRANCH   1  14
HETATM   14  N1  UNL     1      15.888  45.591  68.645  1.00  0.00    -0.342 N 
HETATM   15  C14 UNL     1      15.449  45.937  69.956  1.00  0.00     0.279 C 
HETATM   16  O1  UNL     1      15.765  45.227  70.952  1.00  0.00    -0.265 OA
ATOM     17  H1  UNL     1      15.605  46.201  67.878  1.00  0.00     0.163 HD
BRANCH  15  18
HETATM   18  C15 UNL     1      14.628  47.111  70.205  1.00  0.00     0.332 C 
HETATM   19  O2  UNL     1      14.957  48.267  69.823  1.00  0.00    -0.297 OA
ENDBRANCH  15  18
ENDBRANCH   1  14
BRANCH   1  20
HETATM   20  C16 UNL     1      16.290  44.033  66.956  1.00  0.00     0.241 C 
HETATM   21  O3  UNL     1      16.882  44.612  65.986  1.00  0.00    -0.271 OA
HETATM   22  N2  UNL     1      15.324  43.072  66.615  1.00  0.00    -0.346 N 
ATOM     23  H2  UNL     1      14.835  42.583  67.364  1.00  0.00     0.163 HD
BRANCH  22  24
HETATM   24  C17 UNL     1      14.991  42.744  65.221  1.00  0.00     0.177 C 
BRANCH  24  25
HETATM   25  C18 UNL     1      15.852  41.635  64.747  1.00  0.00     0.254 C 
HETATM   26  N3  UNL     1      15.736  40.913  63.561  1.00  0.00    -0.060 NA
HETATM   27  O4  UNL     1      16.828  41.289  65.508  1.00  0.00    -0.275 OA
ENDBRANCH  24  25
BRANCH  24  28
HETATM   28  C19 UNL     1      13.527  42.541  65.064  1.00  0.00     0.013 C 
HETATM   29  C20 UNL     1      12.847  43.592  64.232  1.00  0.00     0.012 C 
BRANCH  28  30
HETATM   30  C21 UNL     1      12.817  42.362  66.352  1.00  0.00     0.002 C 
HETATM   31  C22 UNL     1      11.294  42.407  66.126  1.00  0.00     0.005 C 
ENDBRANCH  28  30
ENDBRANCH  24  28
ENDBRANCH  22  24
ENDBRANCH   1  20
TORSDOF 12
ENDMDL
MODEL 4
REMARK VINA RESULT: -8.794091330      1.844      5.271
REMARK  12 active torsions:
REMARK  status: ('A' for Active; 'I' for Inactive)
REMARK    1  A    between atoms: C2_2  and  C3_3 
REMARK    2  A    between atoms: C3_3  and  C5_5 
REMARK    3  A    between atoms: C5_5  and  C6_6 
REMARK    4  A    between atoms: C11_11  and  C12_12 
REMARK    5  A    between atoms: C12_12  and  C13_13 
REMARK    6  A    between atoms: C13_13  and  N1_14 
REMARK    7  A    between atoms: C13_13  and  C16_20 
REMARK       I    between atoms: N1_14  and  C14_16 
REMARK    8  A    between atoms: C14_16  and  C15_18 
REMARK       I    between atoms: C16_20  and  N2_22 
REMARK    9  A    between atoms: N2_22  and  C17_24 
REMARK   10  A    between atoms: C17_24  and  C18_25 
REMARK   11  A    between atoms: C17_24  and  C19_28 
REMARK   12  A    between atoms: C19_28  and  C21_30 
ROOT
HETATM    1  C13 UNL     1      17.616  44.077  68.182  1.00  0.00     0.177 C 
ENDROOT
BRANCH   1   2
HETATM    2  C12 UNL     1      18.591  43.091  68.659  1.00  0.00     0.040 C 
BRANCH   2   3
HETATM    3  C11 UNL     1      19.738  42.704  67.815  1.00  0.00    -0.008 C 
HETATM    4  C6  UNL     1      20.912  42.070  68.555  1.00  0.00    -0.010 C 
HETATM    5  C7  UNL     1      22.170  42.547  67.975  1.00  0.00     0.005 C 
HETATM    6  C8  UNL     1      22.239  42.440  66.457  1.00  0.00     0.000 C 
HETATM    7  C9  UNL     1      21.032  42.984  65.780  1.00  0.00     0.000 C 
HETATM    8  C10 UNL     1      20.190  43.715  66.826  1.00  0.00     0.005 C 
BRANCH   4   9
HETATM    9  C5  UNL     1      20.628  40.658  68.773  1.00  0.00     0.009 C 
BRANCH   9  10
HETATM   10  C3  UNL     1      20.993  39.887  69.954  1.00  0.00    -0.019 C 
HETATM   11  C4  UNL     1      22.505  39.498  69.749  1.00  0.00     0.010 C 
BRANCH  10  12
HETATM   12  C2  UNL     1      21.003  40.640  71.233  1.00  0.00    -0.000 C 
HETATM   13  C1  UNL     1      19.569  40.845  71.761  1.00  0.00     0.005 C 
ENDBRANCH  10  12
ENDBRANCH   9  10
ENDBRANCH   4   9
ENDBRANCH   2   3
ENDBRANCH   1   2
BRANCH   1  14
HETATM   14  N1  UNL     1      16.407  43.572  67.585  1.00  0.00    -0.342 N 
HETATM   15  C14 UNL     1      16.011  43.783  66.232  1.00  0.00     0.279 C 
HETATM   16  O1  UNL     1      16.734  44.455  65.445  1.00  0.00    -0.265 OA
ATOM     17  H1  UNL     1      15.786  43.019  68.177  1.00  0.00     0.163 HD
BRANCH  15  18
HETATM   18  C15 UNL     1      14.771  43.239  65.703  1.00  0.00     0.332 C 
HETATM   19  O2  UNL     1      13.933  42.628  66.420  1.00  0.00    -0.297 OA
ENDBRANCH  15  18
ENDBRANCH   1  14
BRANCH   1  20
HETATM   20  C16 UNL     1      17.186  44.949  69.300  1.00  0.00     0.241 C 
HETATM   21  O3  UNL     1      17.923  45.961  69.546  1.00  0.00    -0.271 OA
HETATM   22  N2  UNL     1      16.056  44.786  70.118  1.00  0.00    -0.346 N 
ATOM     23  H2  UNL     1      15.439  43.993  69.948  1.00  0.00     0.163 HD
BRANCH  22  24
HETATM   24  C17 UNL     1      15.729  45.714  71.211  1.00  0.00     0.177 C 
BRANCH  24  25
HETATM   25  C18 UNL     1      14.650  46.633  70.781  1.00  0.00     0.254 C 
HETATM   26  N3  UNL     1      13.300  46.584  71.128  1.00  0.00    -0.060 NA
HETATM   27  O4  UNL     1      14.981  47.597  69.998  1.00  0.00    -0.275 OA
ENDBRANCH  24  25
BRANCH  24  28
HETATM   28  C19 UNL     1      15.485  44.972  72.475  1.00  0.00     0.013 C 
HETATM   29  C20 UNL     1      15.525  45.831  73.709  1.00  0.00     0.012 C 
BRANCH  28  30
HETATM   30  C21 UNL     1      16.361  43.788  72.640  1.00  0.00     0.002 C 
HETATM   31  C22 UNL     1      17.771  44.231  73.075  1.00  0.00     0.005 C 
ENDBRANCH  28  30
ENDBRANCH  24  28
ENDBRANCH  22  24
ENDBRANCH   1  20
TORSDOF 12
ENDMDL
MODEL 5
REMARK VINA RESULT: -8.786392000      1.766      5.157
REMARK  12 active torsions:
REMARK  status: ('A' for Active; 'I' for Inactive)
REMARK    1  A    between atoms: C2_2  and  C3_3 
REMARK    2  A    between atoms: C3_3  and  C5_5 
REMARK    3  A    between atoms: C5_5  and  C6_6 
REMARK    4  A    between atoms: C11_11  and  C12_12 
REMARK    5  A    between atoms: C12_12  and  C13_13 
REMARK    6  A    between atoms: C13_13  and  N1_14 
REMARK    7  A    between atoms: C13_13  and  C16_20 
REMARK       I    between atoms: N1_14  and  C14_16 
REMARK    8  A    between atoms: C14_16  and  C15_18 
REMARK       I    between atoms: C16_20  and  N2_22 
REMARK    9  A    between atoms: N2_22  and  C17_24 
REMARK   10  A    between atoms: C17_24  and  C18_25 
REMARK   11  A    between atoms: C17_24  and  C19_28 
REMARK   12  A    between atoms: C19_28  and  C21_30 
ROOT
HETATM    1  C13 UNL     1      17.144  43.676  67.049  1.00  0.00     0.177 C 
ENDROOT
BRANCH   1   2
HETATM    2  C12 UNL     1      17.874  42.425  67.281  1.00  0.00     0.040 C 
BRANCH   2   3
HETATM    3  C11 UNL     1      19.344  42.431  67.413  1.00  0.00    -0.008 C 
HETATM    4  C6  UNL     1      19.876  42.704  68.816  1.00  0.00    -0.010 C 
HETATM    5  C7  UNL     1      21.070  43.549  68.729  1.00  0.00     0.005 C 
HETATM    6  C8  UNL     1      22.113  43.057  67.735  1.00  0.00     0.000 C 
HETATM    7  C9  UNL     1      21.537  42.711  66.409  1.00  0.00     0.000 C 
HETATM    8  C10 UNL     1      20.088  43.197  66.381  1.00  0.00     0.005 C 
BRANCH   4   9
HETATM    9  C5  UNL     1      19.836  41.469  69.587  1.00  0.00     0.009 C 
BRANCH   9  10
HETATM   10  C3  UNL     1      20.935  40.916  70.368  1.00  0.00    -0.019 C 
HETATM   11  C4  UNL     1      20.293  40.466  71.733  1.00  0.00     0.010 C 
BRANCH  10  12
HETATM   12  C2  UNL     1      21.529  39.663  69.838  1.00  0.00    -0.000 C 
HETATM   13  C1  UNL     1      22.988  39.892  69.395  1.00  0.00     0.005 C 
ENDBRANCH  10  12
ENDBRANCH   9  10
ENDBRANCH   4   9
ENDBRANCH   2   3
ENDBRANCH   1   2
BRANCH   1  14
HETATM   14  N1  UNL     1      15.745  43.571  66.728  1.00  0.00    -0.342 N 
HETATM   15  C14 UNL     1      15.219  43.001  65.533  1.00  0.00     0.279 C 
HETATM   16  O1  UNL     1      15.988  42.531  64.647  1.00  0.00    -0.265 OA
ATOM     17  H1  UNL     1      15.078  43.932  67.410  1.00  0.00     0.163 HD
BRANCH  15  18
HETATM   18  C15 UNL     1      13.788  42.931  65.281  1.00  0.00     0.332 C 
HETATM   19  O2  UNL     1      12.962  42.529  66.145  1.00  0.00    -0.297 OA
ENDBRANCH  15  18
ENDBRANCH   1  14
BRANCH   1  20
HETATM   20  C16 UNL     1      17.224  44.542  68.248  1.00  0.00     0.241 C 
HETATM   21  O3  UNL     1      17.980  45.566  68.159  1.00  0.00    -0.271 OA
HETATM   22  N2  UNL     1      16.559  44.362  69.472  1.00  0.00    -0.346 N 
ATOM     23  H2  UNL     1      15.941  43.558  69.580  1.00  0.00     0.163 HD
BRANCH  22  24
HETATM   24  C17 UNL     1      16.720  45.286  70.605  1.00  0.00     0.177 C 
BRANCH  24  25
HETATM   25  C18 UNL     1      15.528  46.158  70.714  1.00  0.00     0.254 C 
HETATM   26  N3  UNL     1      14.703  46.340  71.823  1.00  0.00    -0.060 NA
HETATM   27  O4  UNL     1      15.204  46.836  69.672  1.00  0.00    -0.275 OA
ENDBRANCH  24  25
BRANCH  24  28
HETATM   28  C19 UNL     1      17.099  44.546  71.837  1.00  0.00     0.013 C 
HETATM   29  C20 UNL     1      18.543  44.133  71.887  1.00  0.00     0.012 C 
BRANCH  28  30
HETATM   30  C21 UNL     1      16.219  43.389  72.122  1.00  0.00     0.002 C 
HETATM   31  C22 UNL     1      16.987  42.073  71.892  1.00  0.00     0.005 C 
ENDBRANCH  28  30
ENDBRANCH  24  28
ENDBRANCH  22  24
ENDBRANCH   1  20
TORSDOF 12
ENDMDL
